4x6p_ligand
     RDKit          3D

 64 69  0  0  0  0  0  0  0  0999 V2000
    4.6690   14.7390  -36.3820 N   0  0  0  0  0  0  0  0  0  0  0  0
    5.4080   14.7550  -37.5370 C   0  0  0  0  0  0  0  0  0  0  0  0
    5.1930   13.9140  -38.6420 N   0  0  0  0  0  0  0  0  0  0  0  0
    6.2180   14.2590  -39.6890 N   0  0  0  0  0  0  0  0  0  0  0  0
    7.0060   15.2950  -39.1670 C   0  0  0  0  0  0  0  0  0  0  0  0
    8.0790   15.9740  -39.7170 C   0  0  0  0  0  0  0  0  0  0  0  0
    8.6880   16.9890  -38.9520 C   0  0  0  0  0  0  0  0  0  0  0  0
    9.8140   17.6990  -39.5490 C   0  0  0  0  0  0  0  0  0  0  0  0
   10.4190   17.4400  -40.7580 C   0  0  0  0  0  0  0  0  0  0  0  0
   11.4260   18.3620  -40.8660 N   0  0  0  0  0  0  0  0  0  0  0  0
   11.4150   19.1310  -39.7270 C   0  0  0  0  0  0  0  0  0  0  0  0
   12.4000   20.2530  -39.5410 C   0  0  2  0  0  0  0  0  0  0  0  0
   12.2450   21.3590  -40.6000 C   0  0  0  0  0  0  0  0  0  0  0  0
   13.4660   21.5130  -41.4770 C   0  0  0  0  0  0  0  0  0  0  0  0
   13.6830   20.6500  -42.5590 C   0  0  0  0  0  0  0  0  0  0  0  0
   14.8000   20.8090  -43.3790 C   0  0  0  0  0  0  0  0  0  0  0  0
   15.7100   21.8340  -43.1270 C   0  0  0  0  0  0  0  0  0  0  0  0
   15.5040   22.7000  -42.0560 C   0  0  0  0  0  0  0  0  0  0  0  0
   14.3860   22.5440  -41.2350 C   0  0  0  0  0  0  0  0  0  0  0  0
   13.7300   19.6570  -39.5960 N   0  0  0  0  0  0  0  0  0  0  0  0
   14.1050   18.7050  -38.6840 C   0  0  0  0  0  0  0  0  0  0  0  0
   13.4160   18.3580  -37.7330 O   0  0  0  0  0  0  0  0  0  0  0  0
   15.4290   18.1060  -38.9720 C   0  0  0  0  0  0  0  0  0  0  0  0
   16.4370   18.8980  -39.3710 C   0  0  0  0  0  0  0  0  0  0  0  0
   17.7630   18.3520  -39.6700 C   0  0  0  0  0  0  0  0  0  0  0  0
   18.7300   18.5610  -38.6670 C   0  0  0  0  0  0  0  0  0  0  0  0
   20.0060   18.0120  -38.7750 C   0  0  0  0  0  0  0  0  0  0  0  0
   21.1580   18.2750  -37.5260 Cl  0  0  0  0  0  0  0  0  0  0  0  0
   20.3430   17.2390  -39.8770 C   0  0  0  0  0  0  0  0  0  0  0  0
   19.4000   17.0250  -40.8850 C   0  0  0  0  0  0  0  0  0  0  0  0
   18.1070   17.5890  -40.8060 C   0  0  0  0  0  0  0  0  0  0  0  0
   17.2230   17.3480  -41.8970 N   0  0  0  0  0  0  0  0  0  0  0  0
   16.2100   16.4360  -42.0620 C   0  0  0  0  0  0  0  0  0  0  0  0
   15.6950   16.5600  -43.2640 N   0  0  0  0  0  0  0  0  0  0  0  0
   16.3700   17.5930  -43.8510 N   0  0  0  0  0  0  0  0  0  0  0  0
   17.2800   18.0930  -43.0290 N   0  0  0  0  0  0  0  0  0  0  0  0
   10.4280   18.7650  -38.9280 N   0  0  0  0  0  0  0  0  0  0  0  0
    8.2240   17.3110  -37.6490 C   0  0  0  0  0  0  0  0  0  0  0  0
    7.1420   16.6630  -37.0270 C   0  0  0  0  0  0  0  0  0  0  0  0
    6.5390   15.6540  -37.8010 C   0  0  0  0  0  0  0  0  0  0  0  0
    3.8150   15.2620  -36.1970 H   0  0  0  0  0  0  0  0  0  0  0  0
    4.9250   14.1760  -35.5710 H   0  0  0  0  0  0  0  0  0  0  0  0
    4.4770   13.1960  -38.7340 H   0  0  0  0  0  0  0  0  0  0  0  0
    6.3020   13.8110  -40.6000 H   0  0  0  0  0  0  0  0  0  0  0  0
    8.4467   15.7282  -40.7241 H   0  0  0  0  0  0  0  0  0  0  0  0
   10.1506   16.6581  -41.4837 H   0  0  0  0  0  0  0  0  0  0  0  0
   12.0510   18.4980  -41.6520 H   0  0  0  0  0  0  0  0  0  0  0  0
   12.2220   20.7485  -38.5752 H   0  0  0  0  0  0  0  0  0  0  0  0
   11.3835   21.1143  -41.2387 H   0  0  0  0  0  0  0  0  0  0  0  0
   12.1029   22.3093  -40.0645 H   0  0  0  0  0  0  0  0  0  0  0  0
   12.9668   19.8406  -42.7635 H   0  0  0  0  0  0  0  0  0  0  0  0
   14.9627   20.1250  -44.2250 H   0  0  0  0  0  0  0  0  0  0  0  0
   16.5908   21.9590  -43.7739 H   0  0  0  0  0  0  0  0  0  0  0  0
   16.2233   23.5080  -41.8568 H   0  0  0  0  0  0  0  0  0  0  0  0
   14.2254   23.2336  -40.3932 H   0  0  0  0  0  0  0  0  0  0  0  0
   14.2230   19.7230  -40.4760 H   0  0  0  0  0  0  0  0  0  0  0  0
   15.5847   17.0228  -38.8600 H   0  0  0  0  0  0  0  0  0  0  0  0
   16.2636   19.9792  -39.4755 H   0  0  0  0  0  0  0  0  0  0  0  0
   18.4738   19.1668  -37.7853 H   0  0  0  0  0  0  0  0  0  0  0  0
   21.3472   16.7972  -39.9563 H   0  0  0  0  0  0  0  0  0  0  0  0
   19.6685   16.4072  -41.7546 H   0  0  0  0  0  0  0  0  0  0  0  0
   15.8799   15.7116  -41.3029 H   0  0  0  0  0  0  0  0  0  0  0  0
    8.7389   18.1106  -37.0963 H   0  0  0  0  0  0  0  0  0  0  0  0
    6.7947   16.9239  -36.0164 H   0  0  0  0  0  0  0  0  0  0  0  0
  1  2  1  0
  2  3  2  0
  3  4  1  0
  4  5  1  0
  5  6  2  0
  6  7  1  0
  7  8  1  0
  8  9  2  0
  9 10  1  0
 10 11  1  0
 11 12  1  0
 12 13  1  0
 13 14  1  0
 14 15  2  0
 15 16  1  0
 16 17  2  0
 17 18  1  0
 18 19  2  0
 12 20  1  0
 20 21  1  0
 21 22  2  0
 21 23  1  0
 23 24  2  0
 24 25  1  0
 25 26  2  0
 26 27  1  0
 27 28  1  0
 27 29  2  0
 29 30  1  0
 30 31  2  0
 31 32  1  0
 32 33  1  0
 33 34  2  0
 34 35  1  0
 35 36  2  0
 11 37  2  0
  7 38  2  0
 38 39  1  0
 39 40  2  0
 40  2  1  0
 40  5  1  0
 37  8  1  0
 19 14  1  0
 31 25  1  0
 36 32  1  0
  1 41  1  0
  1 42  1  0
  3 43  1  0
  4 44  1  0
  6 45  1  0
  9 46  1  0
 10 47  1  0
 12 48  1  1
 13 49  1  0
 13 50  1  0
 15 51  1  0
 16 52  1  0
 17 53  1  0
 18 54  1  0
 19 55  1  0
 20 56  1  0
 23 57  1  0
 24 58  1  0
 26 59  1  0
 29 60  1  0
 30 61  1  0
 33 62  1  0
 38 63  1  0
 39 64  1  0
M  CHG  1   3   1
M  END
>  <meeko>  (1) 
{"is_sidechain": [false], "free_energy": -10.412, "intermolecular_energy": -15.586, "internal_energy": -1.299}

$$$$
4x6p_ligand
     RDKit          3D

 64 69  0  0  0  0  0  0  0  0999 V2000
    4.4620   14.4630  -36.1640 N   0  0  0  0  0  0  0  0  0  0  0  0
    5.2180   14.4600  -37.3080 C   0  0  0  0  0  0  0  0  0  0  0  0
    5.0550   13.5650  -38.3790 N   0  0  0  0  0  0  0  0  0  0  0  0
    6.0820   13.9060  -39.4240 N   0  0  0  0  0  0  0  0  0  0  0  0
    6.8200   14.9940  -38.9360 C   0  0  0  0  0  0  0  0  0  0  0  0
    7.8740   15.6920  -39.4990 C   0  0  0  0  0  0  0  0  0  0  0  0
    8.4300   16.7620  -38.7700 C   0  0  0  0  0  0  0  0  0  0  0  0
    9.5360   17.4910  -39.3810 C   0  0  0  0  0  0  0  0  0  0  0  0
   10.1410   17.2320  -40.5900 C   0  0  0  0  0  0  0  0  0  0  0  0
   11.1250   18.1760  -40.7130 N   0  0  0  0  0  0  0  0  0  0  0  0
   11.1030   18.9570  -39.5820 C   0  0  0  0  0  0  0  0  0  0  0  0
   12.0640   20.1020  -39.4130 C   0  0  2  0  0  0  0  0  0  0  0  0
   11.7780   21.2630  -40.3820 C   0  0  0  0  0  0  0  0  0  0  0  0
   10.3910   21.8410  -40.2180 C   0  0  0  0  0  0  0  0  0  0  0  0
    9.5080   21.8970  -41.3050 C   0  0  0  0  0  0  0  0  0  0  0  0
    8.2200   22.4110  -41.1440 C   0  0  0  0  0  0  0  0  0  0  0  0
    7.8030   22.8720  -39.8970 C   0  0  0  0  0  0  0  0  0  0  0  0
    8.6720   22.8190  -38.8100 C   0  0  0  0  0  0  0  0  0  0  0  0
    9.9600   22.3030  -38.9670 C   0  0  0  0  0  0  0  0  0  0  0  0
   13.4030   19.5620  -39.6220 N   0  0  0  0  0  0  0  0  0  0  0  0
   13.9430   18.6730  -38.7290 C   0  0  0  0  0  0  0  0  0  0  0  0
   13.4040   18.3440  -37.6790 O   0  0  0  0  0  0  0  0  0  0  0  0
   15.2440   18.1180  -39.1680 C   0  0  0  0  0  0  0  0  0  0  0  0
   16.3350   18.8990  -39.1400 C   0  0  0  0  0  0  0  0  0  0  0  0
   17.6440   18.3970  -39.5670 C   0  0  0  0  0  0  0  0  0  0  0  0
   18.6650   18.5090  -38.6020 C   0  0  0  0  0  0  0  0  0  0  0  0
   19.9340   17.9830  -38.8360 C   0  0  0  0  0  0  0  0  0  0  0  0
   21.1530   18.1250  -37.6320 Cl  0  0  0  0  0  0  0  0  0  0  0  0
   20.2100   17.3300  -40.0290 C   0  0  0  0  0  0  0  0  0  0  0  0
   19.2130   17.2140  -41.0000 C   0  0  0  0  0  0  0  0  0  0  0  0
   17.9250   17.7570  -40.7920 C   0  0  0  0  0  0  0  0  0  0  0  0
   16.9830   17.6230  -41.8520 N   0  0  0  0  0  0  0  0  0  0  0  0
   16.2260   16.5540  -42.2660 C   0  0  0  0  0  0  0  0  0  0  0  0
   15.5250   16.8930  -43.3240 N   0  0  0  0  0  0  0  0  0  0  0  0
   15.8170   18.2070  -43.5560 N   0  0  0  0  0  0  0  0  0  0  0  0
   16.6780   18.6670  -42.6620 N   0  0  0  0  0  0  0  0  0  0  0  0
   10.1290   18.5770  -38.7740 N   0  0  0  0  0  0  0  0  0  0  0  0
    7.9320   17.1200  -37.4880 C   0  0  0  0  0  0  0  0  0  0  0  0
    6.8670   16.4560  -36.8560 C   0  0  0  0  0  0  0  0  0  0  0  0
    6.3170   15.3910  -37.5940 C   0  0  0  0  0  0  0  0  0  0  0  0
    3.4670   14.2550  -36.0900 H   0  0  0  0  0  0  0  0  0  0  0  0
    4.8490   14.6870  -35.2470 H   0  0  0  0  0  0  0  0  0  0  0  0
    4.3690   12.8150  -38.4490 H   0  0  0  0  0  0  0  0  0  0  0  0
    6.1990   13.4230  -40.3140 H   0  0  0  0  0  0  0  0  0  0  0  0
    8.2673   15.4188  -40.4893 H   0  0  0  0  0  0  0  0  0  0  0  0
    9.8877   16.4357  -41.3054 H   0  0  0  0  0  0  0  0  0  0  0  0
   11.7430   18.3180  -41.5040 H   0  0  0  0  0  0  0  0  0  0  0  0
   11.9579   20.5309  -38.4056 H   0  0  0  0  0  0  0  0  0  0  0  0
   12.5137   22.0603  -40.2006 H   0  0  0  0  0  0  0  0  0  0  0  0
   11.8492   20.8635  -41.4044 H   0  0  0  0  0  0  0  0  0  0  0  0
    9.8319   21.5336  -42.2914 H   0  0  0  0  0  0  0  0  0  0  0  0
    7.5336   22.4521  -42.0026 H   0  0  0  0  0  0  0  0  0  0  0  0
    6.7882   23.2775  -39.7712 H   0  0  0  0  0  0  0  0  0  0  0  0
    8.3431   23.1843  -37.8259 H   0  0  0  0  0  0  0  0  0  0  0  0
   10.6403   22.2589  -38.1037 H   0  0  0  0  0  0  0  0  0  0  0  0
   13.7700   19.6050  -40.5630 H   0  0  0  0  0  0  0  0  0  0  0  0
   15.3153   17.0761  -39.5135 H   0  0  0  0  0  0  0  0  0  0  0  0
   16.2449   19.9377  -38.7892 H   0  0  0  0  0  0  0  0  0  0  0  0
   18.4571   19.0192  -37.6499 H   0  0  0  0  0  0  0  0  0  0  0  0
   21.2089   16.9060  -40.2089 H   0  0  0  0  0  0  0  0  0  0  0  0
   19.4339   16.6913  -41.9423 H   0  0  0  0  0  0  0  0  0  0  0  0
   16.2094   15.5649  -41.7849 H   0  0  0  0  0  0  0  0  0  0  0  0
    8.4057   17.9621  -36.9622 H   0  0  0  0  0  0  0  0  0  0  0  0
    6.4927   16.7456  -35.8630 H   0  0  0  0  0  0  0  0  0  0  0  0
  1  2  1  0
  2  3  2  0
  3  4  1  0
  4  5  1  0
  5  6  2  0
  6  7  1  0
  7  8  1  0
  8  9  2  0
  9 10  1  0
 10 11  1  0
 11 12  1  0
 12 13  1  0
 13 14  1  0
 14 15  2  0
 15 16  1  0
 16 17  2  0
 17 18  1  0
 18 19  2  0
 12 20  1  0
 20 21  1  0
 21 22  2  0
 21 23  1  0
 23 24  2  0
 24 25  1  0
 25 26  2  0
 26 27  1  0
 27 28  1  0
 27 29  2  0
 29 30  1  0
 30 31  2  0
 31 32  1  0
 32 33  1  0
 33 34  2  0
 34 35  1  0
 35 36  2  0
 11 37  2  0
  7 38  2  0
 38 39  1  0
 39 40  2  0
 40  2  1  0
 40  5  1  0
 37  8  1  0
 19 14  1  0
 31 25  1  0
 36 32  1  0
  1 41  1  0
  1 42  1  0
  3 43  1  0
  4 44  1  0
  6 45  1  0
  9 46  1  0
 10 47  1  0
 12 48  1  1
 13 49  1  0
 13 50  1  0
 15 51  1  0
 16 52  1  0
 17 53  1  0
 18 54  1  0
 19 55  1  0
 20 56  1  0
 23 57  1  0
 24 58  1  0
 26 59  1  0
 29 60  1  0
 30 61  1  0
 33 62  1  0
 38 63  1  0
 39 64  1  0
M  CHG  1   3   1
M  END
>  <meeko>  (2) 
{"is_sidechain": [false], "free_energy": -9.923, "intermolecular_energy": -14.934, "internal_energy": -1.217}

$$$$
4x6p_ligand
     RDKit          3D

 64 69  0  0  0  0  0  0  0  0999 V2000
   21.1720   18.1180  -38.0050 N   0  0  0  0  0  0  0  0  0  0  0  0
   20.3470   17.5740  -38.9570 C   0  0  0  0  0  0  0  0  0  0  0  0
   20.7390   16.6200  -39.9110 N   0  0  0  0  0  0  0  0  0  0  0  0
   19.5370   16.2960  -40.7560 N   0  0  0  0  0  0  0  0  0  0  0  0
   18.4730   17.0710  -40.2740 C   0  0  0  0  0  0  0  0  0  0  0  0
   17.1570   17.1520  -40.6920 C   0  0  0  0  0  0  0  0  0  0  0  0
   16.2920   18.0300  -40.0070 C   0  0  0  0  0  0  0  0  0  0  0  0
   14.9070   18.0990  -40.4570 C   0  0  0  0  0  0  0  0  0  0  0  0
   14.4360   17.9390  -41.7400 C   0  0  0  0  0  0  0  0  0  0  0  0
   13.0800   18.1050  -41.6530 N   0  0  0  0  0  0  0  0  0  0  0  0
   12.7730   18.3770  -40.3420 C   0  0  0  0  0  0  0  0  0  0  0  0
   11.3490   18.6030  -39.9100 C   0  0  2  0  0  0  0  0  0  0  0  0
   10.3800   17.5620  -40.5010 C   0  0  0  0  0  0  0  0  0  0  0  0
    9.3830   17.0430  -39.4900 C   0  0  0  0  0  0  0  0  0  0  0  0
    8.7880   15.7850  -39.6560 C   0  0  0  0  0  0  0  0  0  0  0  0
    7.8840   15.3000  -38.7100 C   0  0  0  0  0  0  0  0  0  0  0  0
    7.5690   16.0650  -37.5890 C   0  0  0  0  0  0  0  0  0  0  0  0
    8.1570   17.3150  -37.4120 C   0  0  0  0  0  0  0  0  0  0  0  0
    9.0630   17.8020  -38.3570 C   0  0  0  0  0  0  0  0  0  0  0  0
   10.9900   19.9520  -40.3320 N   0  0  0  0  0  0  0  0  0  0  0  0
   10.8700   20.9600  -39.4110 C   0  0  0  0  0  0  0  0  0  0  0  0
   10.9610   20.7970  -38.2000 O   0  0  0  0  0  0  0  0  0  0  0  0
   10.6430   22.2900  -40.0230 C   0  0  0  0  0  0  0  0  0  0  0  0
   11.1060   22.5330  -41.2590 C   0  0  0  0  0  0  0  0  0  0  0  0
   10.9090   23.8330  -41.9060 C   0  0  0  0  0  0  0  0  0  0  0  0
   12.0890   24.5680  -42.1300 C   0  0  0  0  0  0  0  0  0  0  0  0
   12.0610   25.7760  -42.8240 C   0  0  0  0  0  0  0  0  0  0  0  0
   13.5220   26.6420  -43.0910 Cl  0  0  0  0  0  0  0  0  0  0  0  0
   10.8620   26.2720  -43.3150 C   0  0  0  0  0  0  0  0  0  0  0  0
    9.6790   25.5600  -43.0980 C   0  0  0  0  0  0  0  0  0  0  0  0
    9.6820   24.3430  -42.3800 C   0  0  0  0  0  0  0  0  0  0  0  0
    8.4250   23.7050  -42.1770 N   0  0  0  0  0  0  0  0  0  0  0  0
    7.6920   22.8630  -42.9760 C   0  0  0  0  0  0  0  0  0  0  0  0
    6.5630   22.5570  -42.3790 N   0  0  0  0  0  0  0  0  0  0  0  0
    6.6030   23.1860  -41.1670 N   0  0  0  0  0  0  0  0  0  0  0  0
    7.7300   23.8650  -41.0220 N   0  0  0  0  0  0  0  0  0  0  0  0
   13.8620   18.3500  -39.5940 N   0  0  0  0  0  0  0  0  0  0  0  0
   16.7520   18.8180  -38.9170 C   0  0  0  0  0  0  0  0  0  0  0  0
   18.0740   18.7870  -38.4400 C   0  0  0  0  0  0  0  0  0  0  0  0
   18.9270   17.9050  -39.1290 C   0  0  0  0  0  0  0  0  0  0  0  0
   22.1810   18.0030  -37.9350 H   0  0  0  0  0  0  0  0  0  0  0  0
   20.8270   18.7100  -37.2490 H   0  0  0  0  0  0  0  0  0  0  0  0
   21.6650   16.2110  -40.0220 H   0  0  0  0  0  0  0  0  0  0  0  0
   19.5230   15.6320  -41.5290 H   0  0  0  0  0  0  0  0  0  0  0  0
   16.7947   16.5474  -41.5365 H   0  0  0  0  0  0  0  0  0  0  0  0
   15.0245   17.7234  -42.6440 H   0  0  0  0  0  0  0  0  0  0  0  0
   12.4010   18.0080  -42.4000 H   0  0  0  0  0  0  0  0  0  0  0  0
   11.2686   18.4905  -38.8187 H   0  0  0  0  0  0  0  0  0  0  0  0
    9.8279   18.0280  -41.3305 H   0  0  0  0  0  0  0  0  0  0  0  0
   10.9824   16.7059  -40.8388 H   0  0  0  0  0  0  0  0  0  0  0  0
    9.0352   15.1758  -40.5379 H   0  0  0  0  0  0  0  0  0  0  0  0
    7.4196   14.3126  -38.8495 H   0  0  0  0  0  0  0  0  0  0  0  0
    6.8561   15.6818  -36.8440 H   0  0  0  0  0  0  0  0  0  0  0  0
    7.9077   17.9193  -36.5273 H   0  0  0  0  0  0  0  0  0  0  0  0
    9.5282   18.7880  -38.2105 H   0  0  0  0  0  0  0  0  0  0  0  0
   11.1470   20.1830  -41.3040 H   0  0  0  0  0  0  0  0  0  0  0  0
   10.1003   23.0706  -39.4698 H   0  0  0  0  0  0  0  0  0  0  0  0
   11.6447   21.7396  -41.7978 H   0  0  0  0  0  0  0  0  0  0  0  0
   13.0473   24.1828  -41.7515 H   0  0  0  0  0  0  0  0  0  0  0  0
   10.8425   27.2204  -43.8720 H   0  0  0  0  0  0  0  0  0  0  0  0
    8.7305   25.9533  -43.4925 H   0  0  0  0  0  0  0  0  0  0  0  0
    8.0033   22.4996  -43.9665 H   0  0  0  0  0  0  0  0  0  0  0  0
   16.0350   19.4880  -38.4201 H   0  0  0  0  0  0  0  0  0  0  0  0
   18.4147   19.4034  -37.5950 H   0  0  0  0  0  0  0  0  0  0  0  0
  1  2  1  0
  2  3  2  0
  3  4  1  0
  4  5  1  0
  5  6  2  0
  6  7  1  0
  7  8  1  0
  8  9  2  0
  9 10  1  0
 10 11  1  0
 11 12  1  0
 12 13  1  0
 13 14  1  0
 14 15  2  0
 15 16  1  0
 16 17  2  0
 17 18  1  0
 18 19  2  0
 12 20  1  0
 20 21  1  0
 21 22  2  0
 21 23  1  0
 23 24  2  0
 24 25  1  0
 25 26  2  0
 26 27  1  0
 27 28  1  0
 27 29  2  0
 29 30  1  0
 30 31  2  0
 31 32  1  0
 32 33  1  0
 33 34  2  0
 34 35  1  0
 35 36  2  0
 11 37  2  0
  7 38  2  0
 38 39  1  0
 39 40  2  0
 40  2  1  0
 40  5  1  0
 37  8  1  0
 19 14  1  0
 31 25  1  0
 36 32  1  0
  1 41  1  0
  1 42  1  0
  3 43  1  0
  4 44  1  0
  6 45  1  0
  9 46  1  0
 10 47  1  0
 12 48  1  1
 13 49  1  0
 13 50  1  0
 15 51  1  0
 16 52  1  0
 17 53  1  0
 18 54  1  0
 19 55  1  0
 20 56  1  0
 23 57  1  0
 24 58  1  0
 26 59  1  0
 29 60  1  0
 30 61  1  0
 33 62  1  0
 38 63  1  0
 39 64  1  0
M  CHG  1   3   1
M  END
>  <meeko>  (3) 
{"is_sidechain": [false], "free_energy": -9.86, "intermolecular_energy": -14.577, "internal_energy": -1.482}

$$$$
4x6p_ligand
     RDKit          3D

 64 69  0  0  0  0  0  0  0  0999 V2000
   20.2470   15.9950  -41.0130 N   0  0  0  0  0  0  0  0  0  0  0  0
   19.6150   16.9430  -40.2500 C   0  0  0  0  0  0  0  0  0  0  0  0
   20.2150   17.6660  -39.2040 N   0  0  0  0  0  0  0  0  0  0  0  0
   19.1790   18.5960  -38.6350 N   0  0  0  0  0  0  0  0  0  0  0  0
   17.9980   18.3920  -39.3630 C   0  0  0  0  0  0  0  0  0  0  0  0
   16.7550   18.9890  -39.2470 C   0  0  0  0  0  0  0  0  0  0  0  0
   15.7360   18.5830  -40.1330 C   0  0  0  0  0  0  0  0  0  0  0  0
   14.4330   19.2260  -40.0010 C   0  0  0  0  0  0  0  0  0  0  0  0
   14.1770   20.5290  -39.6370 C   0  0  0  0  0  0  0  0  0  0  0  0
   12.8130   20.6470  -39.6450 N   0  0  0  0  0  0  0  0  0  0  0  0
   12.2870   19.4260  -39.9900 C   0  0  0  0  0  0  0  0  0  0  0  0
   10.8000   19.2250  -40.0990 C   0  0  2  0  0  0  0  0  0  0  0  0
   10.4200   17.7630  -40.3920 C   0  0  0  0  0  0  0  0  0  0  0  0
    9.3800   17.2200  -39.4390 C   0  0  0  0  0  0  0  0  0  0  0  0
    8.7660   18.0570  -38.4990 C   0  0  0  0  0  0  0  0  0  0  0  0
    7.7900   17.5570  -37.6360 C   0  0  0  0  0  0  0  0  0  0  0  0
    7.4170   16.2160  -37.7070 C   0  0  0  0  0  0  0  0  0  0  0  0
    8.0190   15.3750  -38.6390 C   0  0  0  0  0  0  0  0  0  0  0  0
    8.9940   15.8740  -39.5050 C   0  0  0  0  0  0  0  0  0  0  0  0
   10.3330   20.1110  -41.1590 N   0  0  0  0  0  0  0  0  0  0  0  0
    9.9520   21.3970  -40.8760 C   0  0  0  0  0  0  0  0  0  0  0  0
    9.8880   21.8580  -39.7430 O   0  0  0  0  0  0  0  0  0  0  0  0
    9.6450   22.1970  -42.0830 C   0  0  0  0  0  0  0  0  0  0  0  0
   10.4980   23.1570  -42.4710 C   0  0  0  0  0  0  0  0  0  0  0  0
   10.2370   23.9780  -43.6570 C   0  0  0  0  0  0  0  0  0  0  0  0
    9.0880   23.6150  -44.3870 C   0  0  0  0  0  0  0  0  0  0  0  0
    8.6650   24.3690  -45.4800 C   0  0  0  0  0  0  0  0  0  0  0  0
    7.2510   23.9050  -46.3410 Cl  0  0  0  0  0  0  0  0  0  0  0  0
    9.3700   25.5000  -45.8630 C   0  0  0  0  0  0  0  0  0  0  0  0
   10.5150   25.8740  -45.1540 C   0  0  0  0  0  0  0  0  0  0  0  0
   10.9730   25.1130  -44.0550 C   0  0  0  0  0  0  0  0  0  0  0  0
   12.1690   25.5490  -43.4160 N   0  0  0  0  0  0  0  0  0  0  0  0
   12.4250   26.6250  -42.6030 C   0  0  0  0  0  0  0  0  0  0  0  0
   13.6990   26.6430  -42.2820 N   0  0  0  0  0  0  0  0  0  0  0  0
   14.2460   25.5390  -42.8730 N   0  0  0  0  0  0  0  0  0  0  0  0
   13.3290   24.8560  -43.5420 N   0  0  0  0  0  0  0  0  0  0  0  0
   13.2520   18.5570  -40.2370 N   0  0  0  0  0  0  0  0  0  0  0  0
   15.9670   17.5860  -41.1180 C   0  0  0  0  0  0  0  0  0  0  0  0
   17.2020   16.9380  -41.2920 C   0  0  0  0  0  0  0  0  0  0  0  0
   18.2140   17.3530  -40.4050 C   0  0  0  0  0  0  0  0  0  0  0  0
   21.2330   15.7420  -40.9790 H   0  0  0  0  0  0  0  0  0  0  0  0
   19.7600   15.4380  -41.7150 H   0  0  0  0  0  0  0  0  0  0  0  0
   21.1770   17.5850  -38.8790 H   0  0  0  0  0  0  0  0  0  0  0  0
   19.3300   19.2450  -37.8640 H   0  0  0  0  0  0  0  0  0  0  0  0
   16.5670   19.7592  -38.4845 H   0  0  0  0  0  0  0  0  0  0  0  0
   14.9123   21.3095  -39.3918 H   0  0  0  0  0  0  0  0  0  0  0  0
   12.2690   21.4850  -39.4730 H   0  0  0  0  0  0  0  0  0  0  0  0
   10.3208   19.4628  -39.1378 H   0  0  0  0  0  0  0  0  0  0  0  0
   10.0225   17.7027  -41.4159 H   0  0  0  0  0  0  0  0  0  0  0  0
   11.3288   17.1559  -40.2675 H   0  0  0  0  0  0  0  0  0  0  0  0
    9.0553   19.1167  -38.4405 H   0  0  0  0  0  0  0  0  0  0  0  0
    7.3148   18.2215  -36.8994 H   0  0  0  0  0  0  0  0  0  0  0  0
    6.6473   15.8222  -37.0269 H   0  0  0  0  0  0  0  0  0  0  0  0
    7.7262   14.3161  -38.6932 H   0  0  0  0  0  0  0  0  0  0  0  0
    9.4621   15.2067  -40.2437 H   0  0  0  0  0  0  0  0  0  0  0  0
   10.5970   19.8690  -42.1050 H   0  0  0  0  0  0  0  0  0  0  0  0
    8.7259   22.0061  -42.6565 H   0  0  0  0  0  0  0  0  0  0  0  0
   11.4132   23.3319  -41.8864 H   0  0  0  0  0  0  0  0  0  0  0  0
    8.5164   22.7234  -44.0899 H   0  0  0  0  0  0  0  0  0  0  0  0
    9.0300   26.0996  -46.7202 H   0  0  0  0  0  0  0  0  0  0  0  0
   11.0685   26.7752  -45.4564 H   0  0  0  0  0  0  0  0  0  0  0  0
   11.6773   27.3603  -42.2708 H   0  0  0  0  0  0  0  0  0  0  0  0
   15.1345   17.3060  -41.7803 H   0  0  0  0  0  0  0  0  0  0  0  0
   17.3651   16.1677  -42.0602 H   0  0  0  0  0  0  0  0  0  0  0  0
  1  2  1  0
  2  3  2  0
  3  4  1  0
  4  5  1  0
  5  6  2  0
  6  7  1  0
  7  8  1  0
  8  9  2  0
  9 10  1  0
 10 11  1  0
 11 12  1  0
 12 13  1  0
 13 14  1  0
 14 15  2  0
 15 16  1  0
 16 17  2  0
 17 18  1  0
 18 19  2  0
 12 20  1  0
 20 21  1  0
 21 22  2  0
 21 23  1  0
 23 24  2  0
 24 25  1  0
 25 26  2  0
 26 27  1  0
 27 28  1  0
 27 29  2  0
 29 30  1  0
 30 31  2  0
 31 32  1  0
 32 33  1  0
 33 34  2  0
 34 35  1  0
 35 36  2  0
 11 37  2  0
  7 38  2  0
 38 39  1  0
 39 40  2  0
 40  2  1  0
 40  5  1  0
 37  8  1  0
 19 14  1  0
 31 25  1  0
 36 32  1  0
  1 41  1  0
  1 42  1  0
  3 43  1  0
  4 44  1  0
  6 45  1  0
  9 46  1  0
 10 47  1  0
 12 48  1  1
 13 49  1  0
 13 50  1  0
 15 51  1  0
 16 52  1  0
 17 53  1  0
 18 54  1  0
 19 55  1  0
 20 56  1  0
 23 57  1  0
 24 58  1  0
 26 59  1  0
 29 60  1  0
 30 61  1  0
 33 62  1  0
 38 63  1  0
 39 64  1  0
M  CHG  1   3   1
M  END
>  <meeko>  (4) 
{"is_sidechain": [false], "free_energy": -9.741, "intermolecular_energy": -14.493, "internal_energy": -1.387}

$$$$
4x6p_ligand
     RDKit          3D

 64 69  0  0  0  0  0  0  0  0999 V2000
    6.3100   13.6260  -38.9080 N   0  0  0  0  0  0  0  0  0  0  0  0
    6.4960   14.8570  -38.3320 C   0  0  0  0  0  0  0  0  0  0  0  0
    5.7360   15.3720  -37.2680 N   0  0  0  0  0  0  0  0  0  0  0  0
    6.2670   16.7420  -36.9450 N   0  0  0  0  0  0  0  0  0  0  0  0
    7.3250   16.9940  -37.8300 C   0  0  0  0  0  0  0  0  0  0  0  0
    8.1490   18.0970  -37.9580 C   0  0  0  0  0  0  0  0  0  0  0  0
    9.1490   18.0720  -38.9520 C   0  0  0  0  0  0  0  0  0  0  0  0
   10.0120   19.2420  -39.0680 C   0  0  0  0  0  0  0  0  0  0  0  0
   10.4930   20.0310  -38.0480 C   0  0  0  0  0  0  0  0  0  0  0  0
   11.2410   21.0010  -38.6610 N   0  0  0  0  0  0  0  0  0  0  0  0
   11.1770   20.7870  -40.0170 C   0  0  0  0  0  0  0  0  0  0  0  0
   11.9100   21.6840  -40.9780 C   0  0  2  0  0  0  0  0  0  0  0  0
   11.1220   21.9260  -42.2780 C   0  0  0  0  0  0  0  0  0  0  0  0
   10.8780   23.3910  -42.5580 C   0  0  0  0  0  0  0  0  0  0  0  0
   11.2050   24.3640  -41.6040 C   0  0  0  0  0  0  0  0  0  0  0  0
   10.9990   25.7170  -41.8750 C   0  0  0  0  0  0  0  0  0  0  0  0
   10.4670   26.1110  -43.1020 C   0  0  0  0  0  0  0  0  0  0  0  0
   10.1410   25.1520  -44.0580 C   0  0  0  0  0  0  0  0  0  0  0  0
   10.3480   23.7980  -43.7900 C   0  0  0  0  0  0  0  0  0  0  0  0
   13.1930   21.0480  -41.2520 N   0  0  0  0  0  0  0  0  0  0  0  0
   14.3520   21.7800  -41.2300 C   0  0  0  0  0  0  0  0  0  0  0  0
   14.3920   22.9940  -41.0760 O   0  0  0  0  0  0  0  0  0  0  0  0
   15.5710   20.9530  -41.3880 C   0  0  0  0  0  0  0  0  0  0  0  0
   15.5870   19.7050  -40.8960 C   0  0  0  0  0  0  0  0  0  0  0  0
   16.7700   18.8490  -41.0240 C   0  0  0  0  0  0  0  0  0  0  0  0
   17.5780   18.7790  -39.8720 C   0  0  0  0  0  0  0  0  0  0  0  0
   18.6800   17.9280  -39.8200 C   0  0  0  0  0  0  0  0  0  0  0  0
   19.6370   17.8570  -38.3930 Cl  0  0  0  0  0  0  0  0  0  0  0  0
   18.9950   17.1260  -40.9060 C   0  0  0  0  0  0  0  0  0  0  0  0
   18.2090   17.1850  -42.0600 C   0  0  0  0  0  0  0  0  0  0  0  0
   17.0990   18.0550  -42.1430 C   0  0  0  0  0  0  0  0  0  0  0  0
   16.3770   18.0750  -43.3700 N   0  0  0  0  0  0  0  0  0  0  0  0
   15.3990   17.2480  -43.8630 C   0  0  0  0  0  0  0  0  0  0  0  0
   15.0560   17.6380  -45.0700 N   0  0  0  0  0  0  0  0  0  0  0  0
   15.8060   18.7510  -45.3250 N   0  0  0  0  0  0  0  0  0  0  0  0
   16.5910   19.0400  -44.3000 N   0  0  0  0  0  0  0  0  0  0  0  0
   10.4610   19.7090  -40.2850 N   0  0  0  0  0  0  0  0  0  0  0  0
    9.3110   16.9490  -39.8070 C   0  0  0  0  0  0  0  0  0  0  0  0
    8.5110   15.7960  -39.7350 C   0  0  0  0  0  0  0  0  0  0  0  0
    7.5180   15.8300  -38.7370 C   0  0  0  0  0  0  0  0  0  0  0  0
    5.4820   13.0370  -38.8330 H   0  0  0  0  0  0  0  0  0  0  0  0
    7.0180   13.1750  -39.4860 H   0  0  0  0  0  0  0  0  0  0  0  0
    4.9630   14.9120  -36.7910 H   0  0  0  0  0  0  0  0  0  0  0  0
    5.9090   17.3550  -36.2130 H   0  0  0  0  0  0  0  0  0  0  0  0
    8.0276   18.9713  -37.3015 H   0  0  0  0  0  0  0  0  0  0  0  0
   10.3146   19.9086  -36.9695 H   0  0  0  0  0  0  0  0  0  0  0  0
   11.7860   21.7290  -38.2130 H   0  0  0  0  0  0  0  0  0  0  0  0
   12.0453   22.6794  -40.5298 H   0  0  0  0  0  0  0  0  0  0  0  0
   11.6908   21.4990  -43.1171 H   0  0  0  0  0  0  0  0  0  0  0  0
   10.1393   21.4458  -42.1607 H   0  0  0  0  0  0  0  0  0  0  0  0
   11.6269   24.0590  -40.6350 H   0  0  0  0  0  0  0  0  0  0  0  0
   11.2567   26.4739  -41.1196 H   0  0  0  0  0  0  0  0  0  0  0  0
   10.3049   27.1780  -43.3148 H   0  0  0  0  0  0  0  0  0  0  0  0
    9.7198   25.4622  -45.0257 H   0  0  0  0  0  0  0  0  0  0  0  0
   10.0935   23.0453  -44.5507 H   0  0  0  0  0  0  0  0  0  0  0  0
   13.2380   20.0440  -41.1400 H   0  0  0  0  0  0  0  0  0  0  0  0
   16.4542   21.3582  -41.9036 H   0  0  0  0  0  0  0  0  0  0  0  0
   14.6935   19.3159  -40.3858 H   0  0  0  0  0  0  0  0  0  0  0  0
   17.3353   19.4053  -39.0009 H   0  0  0  0  0  0  0  0  0  0  0  0
   19.8590   16.4468  -40.8596 H   0  0  0  0  0  0  0  0  0  0  0  0
   18.4587   16.5434  -42.9179 H   0  0  0  0  0  0  0  0  0  0  0  0
   14.9676   16.3887  -43.3286 H   0  0  0  0  0  0  0  0  0  0  0  0
   10.1058   16.9840  -40.5666 H   0  0  0  0  0  0  0  0  0  0  0  0
    8.6495   14.9349  -40.4053 H   0  0  0  0  0  0  0  0  0  0  0  0
  1  2  1  0
  2  3  2  0
  3  4  1  0
  4  5  1  0
  5  6  2  0
  6  7  1  0
  7  8  1  0
  8  9  2  0
  9 10  1  0
 10 11  1  0
 11 12  1  0
 12 13  1  0
 13 14  1  0
 14 15  2  0
 15 16  1  0
 16 17  2  0
 17 18  1  0
 18 19  2  0
 12 20  1  0
 20 21  1  0
 21 22  2  0
 21 23  1  0
 23 24  2  0
 24 25  1  0
 25 26  2  0
 26 27  1  0
 27 28  1  0
 27 29  2  0
 29 30  1  0
 30 31  2  0
 31 32  1  0
 32 33  1  0
 33 34  2  0
 34 35  1  0
 35 36  2  0
 11 37  2  0
  7 38  2  0
 38 39  1  0
 39 40  2  0
 40  2  1  0
 40  5  1  0
 37  8  1  0
 19 14  1  0
 31 25  1  0
 36 32  1  0
  1 41  1  0
  1 42  1  0
  3 43  1  0
  4 44  1  0
  6 45  1  0
  9 46  1  0
 10 47  1  0
 12 48  1  1
 13 49  1  0
 13 50  1  0
 15 51  1  0
 16 52  1  0
 17 53  1  0
 18 54  1  0
 19 55  1  0
 20 56  1  0
 23 57  1  0
 24 58  1  0
 26 59  1  0
 29 60  1  0
 30 61  1  0
 33 62  1  0
 38 63  1  0
 39 64  1  0
M  CHG  1   3   1
M  END
>  <meeko>  (5) 
{"is_sidechain": [false], "free_energy": -9.543, "intermolecular_energy": -13.961, "internal_energy": -1.622}

$$$$
4x6p_ligand
     RDKit          3D

 64 69  0  0  0  0  0  0  0  0999 V2000
    5.9600   14.9540  -37.7650 N   0  0  0  0  0  0  0  0  0  0  0  0
    6.5420   16.1940  -37.8390 C   0  0  0  0  0  0  0  0  0  0  0  0
    6.2550   17.2710  -36.9830 N   0  0  0  0  0  0  0  0  0  0  0  0
    7.1070   18.4350  -37.4080 N   0  0  0  0  0  0  0  0  0  0  0  0
    7.8710   18.0090  -38.5040 C   0  0  0  0  0  0  0  0  0  0  0  0
    8.8090   18.6830  -39.2650 C   0  0  0  0  0  0  0  0  0  0  0  0
    9.4340   17.9910  -40.3220 C   0  0  0  0  0  0  0  0  0  0  0  0
   10.4240   18.7150  -41.1100 C   0  0  0  0  0  0  0  0  0  0  0  0
   10.9290   18.3680  -42.3420 C   0  0  0  0  0  0  0  0  0  0  0  0
   11.8300   19.3490  -42.6560 N   0  0  0  0  0  0  0  0  0  0  0  0
   11.8610   20.2410  -41.6110 C   0  0  0  0  0  0  0  0  0  0  0  0
   12.7530   21.4530  -41.6530 C   0  0  2  0  0  0  0  0  0  0  0  0
   12.5270   22.3110  -42.9100 C   0  0  0  0  0  0  0  0  0  0  0  0
   11.9700   23.6810  -42.5990 C   0  0  0  0  0  0  0  0  0  0  0  0
   12.7120   24.8350  -42.8850 C   0  0  0  0  0  0  0  0  0  0  0  0
   12.1860   26.0990  -42.6160 C   0  0  0  0  0  0  0  0  0  0  0  0
   10.9130   26.2220  -42.0610 C   0  0  0  0  0  0  0  0  0  0  0  0
   10.1660   25.0820  -41.7750 C   0  0  0  0  0  0  0  0  0  0  0  0
   10.6900   23.8160  -42.0450 C   0  0  0  0  0  0  0  0  0  0  0  0
   14.1270   20.9660  -41.5910 N   0  0  0  0  0  0  0  0  0  0  0  0
   14.6440   20.4890  -40.4140 C   0  0  0  0  0  0  0  0  0  0  0  0
   14.0490   20.5180  -39.3430 O   0  0  0  0  0  0  0  0  0  0  0  0
   15.9970   19.9050  -40.5620 C   0  0  0  0  0  0  0  0  0  0  0  0
   16.4450   19.0400  -39.6380 C   0  0  0  0  0  0  0  0  0  0  0  0
   17.7770   18.4380  -39.7390 C   0  0  0  0  0  0  0  0  0  0  0  0
   18.6700   18.8010  -38.7120 C   0  0  0  0  0  0  0  0  0  0  0  0
   19.9380   18.2280  -38.6290 C   0  0  0  0  0  0  0  0  0  0  0  0
   20.9990   18.6840  -37.3550 Cl  0  0  0  0  0  0  0  0  0  0  0  0
   20.3380   17.2790  -39.5570 C   0  0  0  0  0  0  0  0  0  0  0  0
   19.4680   16.9090  -40.5860 C   0  0  0  0  0  0  0  0  0  0  0  0
   18.1860   17.4920  -40.7020 C   0  0  0  0  0  0  0  0  0  0  0  0
   17.3810   17.0810  -41.8030 N   0  0  0  0  0  0  0  0  0  0  0  0
   17.5620   17.2070  -43.1580 C   0  0  0  0  0  0  0  0  0  0  0  0
   16.5240   16.7100  -43.7910 N   0  0  0  0  0  0  0  0  0  0  0  0
   15.6930   16.2290  -42.8180 N   0  0  0  0  0  0  0  0  0  0  0  0
   16.2080   16.4270  -41.6150 N   0  0  0  0  0  0  0  0  0  0  0  0
   10.9960   19.8920  -40.6760 N   0  0  0  0  0  0  0  0  0  0  0  0
    9.1120   16.6370  -40.6090 C   0  0  0  0  0  0  0  0  0  0  0  0
    8.1700   15.8910  -39.8800 C   0  0  0  0  0  0  0  0  0  0  0  0
    7.5550   16.5910  -38.8250 C   0  0  0  0  0  0  0  0  0  0  0  0
    6.4330   14.0540  -37.8230 H   0  0  0  0  0  0  0  0  0  0  0  0
    4.9560   14.8230  -37.6420 H   0  0  0  0  0  0  0  0  0  0  0  0
    5.5920   17.2760  -36.2100 H   0  0  0  0  0  0  0  0  0  0  0  0
    7.1120   19.3540  -36.9660 H   0  0  0  0  0  0  0  0  0  0  0  0
    9.0607   19.7322  -39.0508 H   0  0  0  0  0  0  0  0  0  0  0  0
   10.6644   17.4880  -42.9467 H   0  0  0  0  0  0  0  0  0  0  0  0
   12.3590   19.4440  -43.5160 H   0  0  0  0  0  0  0  0  0  0  0  0
   12.5230   22.1138  -40.8042 H   0  0  0  0  0  0  0  0  0  0  0  0
   13.4895   22.4336  -43.4282 H   0  0  0  0  0  0  0  0  0  0  0  0
   11.7870   21.7896  -43.5349 H   0  0  0  0  0  0  0  0  0  0  0  0
   13.7162   24.7436  -43.3247 H   0  0  0  0  0  0  0  0  0  0  0  0
   12.7762   26.9993  -42.8420 H   0  0  0  0  0  0  0  0  0  0  0  0
   10.4989   27.2188  -41.8492 H   0  0  0  0  0  0  0  0  0  0  0  0
    9.1621   25.1789  -41.3359 H   0  0  0  0  0  0  0  0  0  0  0  0
   10.0940   22.9189  -41.8213 H   0  0  0  0  0  0  0  0  0  0  0  0
   14.5560   20.6980  -42.4660 H   0  0  0  0  0  0  0  0  0  0  0  0
   16.6286   20.1772  -41.4205 H   0  0  0  0  0  0  0  0  0  0  0  0
   15.7986   18.7778  -38.7875 H   0  0  0  0  0  0  0  0  0  0  0  0
   18.3624   19.5473  -37.9648 H   0  0  0  0  0  0  0  0  0  0  0  0
   21.3348   16.8197  -39.4837 H   0  0  0  0  0  0  0  0  0  0  0  0
   19.7862   16.1517  -41.3176 H   0  0  0  0  0  0  0  0  0  0  0  0
   18.4427   17.6561  -43.6404 H   0  0  0  0  0  0  0  0  0  0  0  0
    9.6281   16.1461  -41.4473 H   0  0  0  0  0  0  0  0  0  0  0  0
    7.9322   14.8431  -40.1153 H   0  0  0  0  0  0  0  0  0  0  0  0
  1  2  1  0
  2  3  2  0
  3  4  1  0
  4  5  1  0
  5  6  2  0
  6  7  1  0
  7  8  1  0
  8  9  2  0
  9 10  1  0
 10 11  1  0
 11 12  1  0
 12 13  1  0
 13 14  1  0
 14 15  2  0
 15 16  1  0
 16 17  2  0
 17 18  1  0
 18 19  2  0
 12 20  1  0
 20 21  1  0
 21 22  2  0
 21 23  1  0
 23 24  2  0
 24 25  1  0
 25 26  2  0
 26 27  1  0
 27 28  1  0
 27 29  2  0
 29 30  1  0
 30 31  2  0
 31 32  1  0
 32 33  1  0
 33 34  2  0
 34 35  1  0
 35 36  2  0
 11 37  2  0
  7 38  2  0
 38 39  1  0
 39 40  2  0
 40  2  1  0
 40  5  1  0
 37  8  1  0
 19 14  1  0
 31 25  1  0
 36 32  1  0
  1 41  1  0
  1 42  1  0
  3 43  1  0
  4 44  1  0
  6 45  1  0
  9 46  1  0
 10 47  1  0
 12 48  1  1
 13 49  1  0
 13 50  1  0
 15 51  1  0
 16 52  1  0
 17 53  1  0
 18 54  1  0
 19 55  1  0
 20 56  1  0
 23 57  1  0
 24 58  1  0
 26 59  1  0
 29 60  1  0
 30 61  1  0
 33 62  1  0
 38 63  1  0
 39 64  1  0
M  CHG  1   3   1
M  END
>  <meeko>  (6) 
{"is_sidechain": [false], "free_energy": -9.541, "intermolecular_energy": -14.398, "internal_energy": -1.183}

$$$$
4x6p_ligand
     RDKit          3D

 64 69  0  0  0  0  0  0  0  0999 V2000
   21.0090   17.3580  -38.0910 N   0  0  0  0  0  0  0  0  0  0  0  0
   20.3350   17.2320  -39.2780 C   0  0  0  0  0  0  0  0  0  0  0  0
   20.7750   16.4740  -40.3770 N   0  0  0  0  0  0  0  0  0  0  0  0
   19.7460   16.6050  -41.4670 N   0  0  0  0  0  0  0  0  0  0  0  0
   18.7300   17.4380  -40.9770 C   0  0  0  0  0  0  0  0  0  0  0  0
   17.5600   17.8760  -41.5700 C   0  0  0  0  0  0  0  0  0  0  0  0
   16.7090   18.7180  -40.8260 C   0  0  0  0  0  0  0  0  0  0  0  0
   15.4760   19.1650  -41.4650 C   0  0  0  0  0  0  0  0  0  0  0  0
   14.6990   18.4670  -42.3610 C   0  0  0  0  0  0  0  0  0  0  0  0
   13.6660   19.3090  -42.6790 N   0  0  0  0  0  0  0  0  0  0  0  0
   13.8540   20.4830  -41.9900 C   0  0  0  0  0  0  0  0  0  0  0  0
   12.8760   21.6190  -42.1150 C   0  0  2  0  0  0  0  0  0  0  0  0
   13.3780   22.9090  -41.4420 C   0  0  0  0  0  0  0  0  0  0  0  0
   12.6770   24.1500  -41.9440 C   0  0  0  0  0  0  0  0  0  0  0  0
   11.3180   24.3610  -41.6760 C   0  0  0  0  0  0  0  0  0  0  0  0
   10.6800   25.5190  -42.1220 C   0  0  0  0  0  0  0  0  0  0  0  0
   11.3940   26.4770  -42.8390 C   0  0  0  0  0  0  0  0  0  0  0  0
   12.7460   26.2790  -43.1090 C   0  0  0  0  0  0  0  0  0  0  0  0
   13.3870   25.1230  -42.6620 C   0  0  0  0  0  0  0  0  0  0  0  0
   11.6260   21.1670  -41.5140 N   0  0  0  0  0  0  0  0  0  0  0  0
   10.6620   20.5660  -42.2810 C   0  0  0  0  0  0  0  0  0  0  0  0
   10.7300   20.4490  -43.4990 O   0  0  0  0  0  0  0  0  0  0  0  0
    9.5250   20.0410  -41.4890 C   0  0  0  0  0  0  0  0  0  0  0  0
    9.7710   19.3150  -40.3880 C   0  0  0  0  0  0  0  0  0  0  0  0
    8.6800   18.7720  -39.5740 C   0  0  0  0  0  0  0  0  0  0  0  0
    8.5970   17.3650  -39.5570 C   0  0  0  0  0  0  0  0  0  0  0  0
    7.6710   16.7110  -38.7480 C   0  0  0  0  0  0  0  0  0  0  0  0
    7.6050   14.9930  -38.7410 Cl  0  0  0  0  0  0  0  0  0  0  0  0
    6.8150   17.4400  -37.9350 C   0  0  0  0  0  0  0  0  0  0  0  0
    6.8780   18.8360  -37.9420 C   0  0  0  0  0  0  0  0  0  0  0  0
    7.7960   19.5210  -38.7690 C   0  0  0  0  0  0  0  0  0  0  0  0
    7.7650   20.9440  -38.7370 N   0  0  0  0  0  0  0  0  0  0  0  0
    6.9570   21.8510  -39.3790 C   0  0  0  0  0  0  0  0  0  0  0  0
    7.3310   23.0720  -39.0710 N   0  0  0  0  0  0  0  0  0  0  0  0
    8.3670   22.9310  -38.1920 N   0  0  0  0  0  0  0  0  0  0  0  0
    8.6250   21.6530  -37.9630 N   0  0  0  0  0  0  0  0  0  0  0  0
   14.9300   20.4070  -41.2260 N   0  0  0  0  0  0  0  0  0  0  0  0
   17.0370   19.1160  -39.5020 C   0  0  0  0  0  0  0  0  0  0  0  0
   18.2080   18.7110  -38.8370 C   0  0  0  0  0  0  0  0  0  0  0  0
   19.0490   17.8680  -39.5880 C   0  0  0  0  0  0  0  0  0  0  0  0
   20.7690   16.9210  -37.2030 H   0  0  0  0  0  0  0  0  0  0  0  0
   21.8480   17.9300  -37.9910 H   0  0  0  0  0  0  0  0  0  0  0  0
   21.6330   15.9290  -40.4390 H   0  0  0  0  0  0  0  0  0  0  0  0
   19.7990   16.1610  -42.3830 H   0  0  0  0  0  0  0  0  0  0  0  0
   17.3002   17.5751  -42.5957 H   0  0  0  0  0  0  0  0  0  0  0  0
   14.8708   17.4492  -42.7412 H   0  0  0  0  0  0  0  0  0  0  0  0
   12.8730   19.1080  -43.2770 H   0  0  0  0  0  0  0  0  0  0  0  0
   12.7401   21.8772  -43.1756 H   0  0  0  0  0  0  0  0  0  0  0  0
   13.2106   22.8265  -40.3580 H   0  0  0  0  0  0  0  0  0  0  0  0
   14.4454   23.0131  -41.6867 H   0  0  0  0  0  0  0  0  0  0  0  0
   10.7499   23.6082  -41.1098 H   0  0  0  0  0  0  0  0  0  0  0  0
    9.6126   25.6758  -41.9074 H   0  0  0  0  0  0  0  0  0  0  0  0
   10.8902   27.3891  -43.1916 H   0  0  0  0  0  0  0  0  0  0  0  0
   13.3093   27.0351  -43.6755 H   0  0  0  0  0  0  0  0  0  0  0  0
   14.4560   24.9740  -42.8742 H   0  0  0  0  0  0  0  0  0  0  0  0
   11.6290   21.0180  -40.5140 H   0  0  0  0  0  0  0  0  0  0  0  0
    8.4899   20.2445  -41.8006 H   0  0  0  0  0  0  0  0  0  0  0  0
   10.8125   19.1235  -40.0903 H   0  0  0  0  0  0  0  0  0  0  0  0
    9.2738   16.7747  -40.1922 H   0  0  0  0  0  0  0  0  0  0  0  0
    6.0910   16.9221  -37.2887 H   0  0  0  0  0  0  0  0  0  0  0  0
    6.2015   19.4111  -37.2927 H   0  0  0  0  0  0  0  0  0  0  0  0
    6.1235   21.5938  -40.0492 H   0  0  0  0  0  0  0  0  0  0  0  0
   16.3374   19.7763  -38.9686 H   0  0  0  0  0  0  0  0  0  0  0  0
   18.4479   19.0278  -37.8113 H   0  0  0  0  0  0  0  0  0  0  0  0
  1  2  1  0
  2  3  2  0
  3  4  1  0
  4  5  1  0
  5  6  2  0
  6  7  1  0
  7  8  1  0
  8  9  2  0
  9 10  1  0
 10 11  1  0
 11 12  1  0
 12 13  1  0
 13 14  1  0
 14 15  2  0
 15 16  1  0
 16 17  2  0
 17 18  1  0
 18 19  2  0
 12 20  1  0
 20 21  1  0
 21 22  2  0
 21 23  1  0
 23 24  2  0
 24 25  1  0
 25 26  2  0
 26 27  1  0
 27 28  1  0
 27 29  2  0
 29 30  1  0
 30 31  2  0
 31 32  1  0
 32 33  1  0
 33 34  2  0
 34 35  1  0
 35 36  2  0
 11 37  2  0
  7 38  2  0
 38 39  1  0
 39 40  2  0
 40  2  1  0
 40  5  1  0
 37  8  1  0
 19 14  1  0
 31 25  1  0
 36 32  1  0
  1 41  1  0
  1 42  1  0
  3 43  1  0
  4 44  1  0
  6 45  1  0
  9 46  1  0
 10 47  1  0
 12 48  1  6
 13 49  1  0
 13 50  1  0
 15 51  1  0
 16 52  1  0
 17 53  1  0
 18 54  1  0
 19 55  1  0
 20 56  1  0
 23 57  1  0
 24 58  1  0
 26 59  1  0
 29 60  1  0
 30 61  1  0
 33 62  1  0
 38 63  1  0
 39 64  1  0
M  CHG  1   3   1
M  END
>  <meeko>  (7) 
{"is_sidechain": [false], "free_energy": -9.478, "intermolecular_energy": -14.145, "internal_energy": -1.342}

$$$$
4x6p_ligand
     RDKit          3D

 64 69  0  0  0  0  0  0  0  0999 V2000
   20.2240   18.2720  -37.8940 N   0  0  0  0  0  0  0  0  0  0  0  0
   19.8880   17.6630  -39.0760 C   0  0  0  0  0  0  0  0  0  0  0  0
   20.6370   16.6520  -39.7030 N   0  0  0  0  0  0  0  0  0  0  0  0
   19.9200   16.2660  -40.9680 N   0  0  0  0  0  0  0  0  0  0  0  0
   18.7690   17.0620  -41.0490 C   0  0  0  0  0  0  0  0  0  0  0  0
   17.7710   17.1080  -42.0060 C   0  0  0  0  0  0  0  0  0  0  0  0
   16.7130   18.0210  -41.8230 C   0  0  0  0  0  0  0  0  0  0  0  0
   15.6660   18.0510  -42.8380 C   0  0  0  0  0  0  0  0  0  0  0  0
   15.5820   17.2800  -43.9750 C   0  0  0  0  0  0  0  0  0  0  0  0
   14.4360   17.6850  -44.6050 N   0  0  0  0  0  0  0  0  0  0  0  0
   13.8750   18.6900  -43.8540 C   0  0  0  0  0  0  0  0  0  0  0  0
   12.5880   19.3460  -44.2740 C   0  0  2  0  0  0  0  0  0  0  0  0
   12.7770   20.8240  -44.6610 C   0  0  0  0  0  0  0  0  0  0  0  0
   13.4300   21.6420  -43.5710 C   0  0  0  0  0  0  0  0  0  0  0  0
   12.7410   21.9350  -42.3870 C   0  0  0  0  0  0  0  0  0  0  0  0
   13.3550   22.6710  -41.3740 C   0  0  0  0  0  0  0  0  0  0  0  0
   14.6650   23.1200  -41.5340 C   0  0  0  0  0  0  0  0  0  0  0  0
   15.3610   22.8320  -42.7050 C   0  0  0  0  0  0  0  0  0  0  0  0
   14.7490   22.0940  -43.7190 C   0  0  0  0  0  0  0  0  0  0  0  0
   11.6620   19.2120  -43.1550 N   0  0  0  0  0  0  0  0  0  0  0  0
   10.5090   18.4840  -43.2880 C   0  0  0  0  0  0  0  0  0  0  0  0
   10.1320   17.9850  -44.3420 O   0  0  0  0  0  0  0  0  0  0  0  0
    9.7600   18.3320  -42.0190 C   0  0  0  0  0  0  0  0  0  0  0  0
    9.9160   17.2150  -41.2930 C   0  0  0  0  0  0  0  0  0  0  0  0
    9.1960   17.0160  -40.0320 C   0  0  0  0  0  0  0  0  0  0  0  0
    8.3110   15.9200  -40.0220 C   0  0  0  0  0  0  0  0  0  0  0  0
    7.6350   15.5560  -38.8590 C   0  0  0  0  0  0  0  0  0  0  0  0
    6.5720   14.2040  -38.8770 Cl  0  0  0  0  0  0  0  0  0  0  0  0
    7.8290   16.2690  -37.6850 C   0  0  0  0  0  0  0  0  0  0  0  0
    8.6990   17.3630  -37.6770 C   0  0  0  0  0  0  0  0  0  0  0  0
    9.3800   17.7620  -38.8490 C   0  0  0  0  0  0  0  0  0  0  0  0
   10.2170   18.9100  -38.7560 N   0  0  0  0  0  0  0  0  0  0  0  0
    9.9210   20.2420  -38.6100 C   0  0  0  0  0  0  0  0  0  0  0  0
   11.0300   20.9460  -38.6140 N   0  0  0  0  0  0  0  0  0  0  0  0
   12.0440   20.0370  -38.7260 N   0  0  0  0  0  0  0  0  0  0  0  0
   11.5700   18.8020  -38.7900 N   0  0  0  0  0  0  0  0  0  0  0  0
   14.5890   18.9080  -42.7630 N   0  0  0  0  0  0  0  0  0  0  0  0
   16.6660   18.8800  -40.6920 C   0  0  0  0  0  0  0  0  0  0  0  0
   17.6440   18.8900  -39.6830 C   0  0  0  0  0  0  0  0  0  0  0  0
   18.6940   17.9710  -39.8730 C   0  0  0  0  0  0  0  0  0  0  0  0
   20.0840   17.9010  -36.9560 H   0  0  0  0  0  0  0  0  0  0  0  0
   20.6600   19.1930  -37.8530 H   0  0  0  0  0  0  0  0  0  0  0  0
   21.5090   16.2440  -39.3720 H   0  0  0  0  0  0  0  0  0  0  0  0
   20.2310   15.5540  -41.6270 H   0  0  0  0  0  0  0  0  0  0  0  0
   17.8024   16.4494  -42.8865 H   0  0  0  0  0  0  0  0  0  0  0  0
   16.2863   16.5031  -44.3071 H   0  0  0  0  0  0  0  0  0  0  0  0
   14.0320   17.3000  -45.4520 H   0  0  0  0  0  0  0  0  0  0  0  0
   12.1977   18.8548  -45.1775 H   0  0  0  0  0  0  0  0  0  0  0  0
   13.4076   20.8726  -45.5610 H   0  0  0  0  0  0  0  0  0  0  0  0
   11.7773   21.2482  -44.8360 H   0  0  0  0  0  0  0  0  0  0  0  0
   11.7076   21.5818  -42.2553 H   0  0  0  0  0  0  0  0  0  0  0  0
   12.8054   22.8973  -40.4484 H   0  0  0  0  0  0  0  0  0  0  0  0
   15.1487   23.7016  -40.7354 H   0  0  0  0  0  0  0  0  0  0  0  0
   16.3946   23.1867  -42.8310 H   0  0  0  0  0  0  0  0  0  0  0  0
   15.3049   21.8654  -44.6403 H   0  0  0  0  0  0  0  0  0  0  0  0
   12.0350   19.3860  -42.2310 H   0  0  0  0  0  0  0  0  0  0  0  0
    9.0824   19.1275  -41.6754 H   0  0  0  0  0  0  0  0  0  0  0  0
   10.5992   16.4312  -41.6519 H   0  0  0  0  0  0  0  0  0  0  0  0
    8.1513   15.3435  -40.9451 H   0  0  0  0  0  0  0  0  0  0  0  0
    7.3012   15.9752  -36.7657 H   0  0  0  0  0  0  0  0  0  0  0  0
    8.8561   17.9225  -36.7430 H   0  0  0  0  0  0  0  0  0  0  0  0
    8.9079   20.6575  -38.5054 H   0  0  0  0  0  0  0  0  0  0  0  0
   15.8180   19.5748  -40.6014 H   0  0  0  0  0  0  0  0  0  0  0  0
   17.5934   19.5623  -38.8138 H   0  0  0  0  0  0  0  0  0  0  0  0
  1  2  1  0
  2  3  2  0
  3  4  1  0
  4  5  1  0
  5  6  2  0
  6  7  1  0
  7  8  1  0
  8  9  2  0
  9 10  1  0
 10 11  1  0
 11 12  1  0
 12 13  1  0
 13 14  1  0
 14 15  2  0
 15 16  1  0
 16 17  2  0
 17 18  1  0
 18 19  2  0
 12 20  1  0
 20 21  1  0
 21 22  2  0
 21 23  1  0
 23 24  2  0
 24 25  1  0
 25 26  2  0
 26 27  1  0
 27 28  1  0
 27 29  2  0
 29 30  1  0
 30 31  2  0
 31 32  1  0
 32 33  1  0
 33 34  2  0
 34 35  1  0
 35 36  2  0
 11 37  2  0
  7 38  2  0
 38 39  1  0
 39 40  2  0
 40  2  1  0
 40  5  1  0
 37  8  1  0
 19 14  1  0
 31 25  1  0
 36 32  1  0
  1 41  1  0
  1 42  1  0
  3 43  1  0
  4 44  1  0
  6 45  1  0
  9 46  1  0
 10 47  1  0
 12 48  1  6
 13 49  1  0
 13 50  1  0
 15 51  1  0
 16 52  1  0
 17 53  1  0
 18 54  1  0
 19 55  1  0
 20 56  1  0
 23 57  1  0
 24 58  1  0
 26 59  1  0
 29 60  1  0
 30 61  1  0
 33 62  1  0
 38 63  1  0
 39 64  1  0
M  CHG  1   3   1
M  END
>  <meeko>  (8) 
{"is_sidechain": [false], "free_energy": -9.426, "intermolecular_energy": -14.278, "internal_energy": -1.131}

$$$$
4x6p_ligand
     RDKit          3D

 64 69  0  0  0  0  0  0  0  0999 V2000
   20.9430   16.9290  -39.1710 N   0  0  0  0  0  0  0  0  0  0  0  0
   19.9250   17.0950  -40.0760 C   0  0  0  0  0  0  0  0  0  0  0  0
   19.9130   16.5670  -41.3790 N   0  0  0  0  0  0  0  0  0  0  0  0
   18.6210   16.9830  -42.0300 N   0  0  0  0  0  0  0  0  0  0  0  0
   17.9120   17.7440  -41.0900 C   0  0  0  0  0  0  0  0  0  0  0  0
   16.6760   18.3600  -41.1780 C   0  0  0  0  0  0  0  0  0  0  0  0
   16.2020   19.0680  -40.0550 C   0  0  0  0  0  0  0  0  0  0  0  0
   14.8950   19.7060  -40.1630 C   0  0  0  0  0  0  0  0  0  0  0  0
   13.7780   19.4570  -39.3990 C   0  0  0  0  0  0  0  0  0  0  0  0
   12.8090   20.2910  -39.8890 N   0  0  0  0  0  0  0  0  0  0  0  0
   13.3530   20.9980  -40.9350 C   0  0  0  0  0  0  0  0  0  0  0  0
   12.5400   22.0170  -41.6870 C   0  0  2  0  0  0  0  0  0  0  0  0
   13.1450   23.4300  -41.6100 C   0  0  0  0  0  0  0  0  0  0  0  0
   12.3670   24.4510  -42.4090 C   0  0  0  0  0  0  0  0  0  0  0  0
   12.5120   24.5300  -43.8000 C   0  0  0  0  0  0  0  0  0  0  0  0
   11.7760   25.4590  -44.5360 C   0  0  0  0  0  0  0  0  0  0  0  0
   10.8860   26.3150  -43.8900 C   0  0  0  0  0  0  0  0  0  0  0  0
   10.7320   26.2430  -42.5070 C   0  0  0  0  0  0  0  0  0  0  0  0
   11.4660   25.3130  -41.7690 C   0  0  0  0  0  0  0  0  0  0  0  0
   11.1980   21.9890  -41.1160 N   0  0  0  0  0  0  0  0  0  0  0  0
   10.1440   21.4930  -41.8390 C   0  0  0  0  0  0  0  0  0  0  0  0
   10.2230   21.1330  -43.0070 O   0  0  0  0  0  0  0  0  0  0  0  0
    8.8870   21.4070  -41.0590 C   0  0  0  0  0  0  0  0  0  0  0  0
    8.3820   20.2010  -40.7560 C   0  0  0  0  0  0  0  0  0  0  0  0
    7.1410   20.0650  -39.9900 C   0  0  0  0  0  0  0  0  0  0  0  0
    6.3250   21.2130  -39.9730 C   0  0  0  0  0  0  0  0  0  0  0  0
    5.0710   21.1940  -39.3660 C   0  0  0  0  0  0  0  0  0  0  0  0
    4.0960   22.6090  -39.3750 Cl  0  0  0  0  0  0  0  0  0  0  0  0
    4.6010   20.0320  -38.7710 C   0  0  0  0  0  0  0  0  0  0  0  0
    5.3970   18.8840  -38.7720 C   0  0  0  0  0  0  0  0  0  0  0  0
    6.6800   18.8870  -39.3650 C   0  0  0  0  0  0  0  0  0  0  0  0
    7.4360   17.6820  -39.2870 N   0  0  0  0  0  0  0  0  0  0  0  0
    8.5250   17.3390  -38.5240 C   0  0  0  0  0  0  0  0  0  0  0  0
    8.9100   16.1200  -38.8260 N   0  0  0  0  0  0  0  0  0  0  0  0
    8.0260   15.6750  -39.7680 N   0  0  0  0  0  0  0  0  0  0  0  0
    7.1170   16.5980  -40.0390 N   0  0  0  0  0  0  0  0  0  0  0  0
   14.6240   20.6790  -41.1010 N   0  0  0  0  0  0  0  0  0  0  0  0
   16.9670   19.1560  -38.8610 C   0  0  0  0  0  0  0  0  0  0  0  0
   18.2290   18.5570  -38.7010 C   0  0  0  0  0  0  0  0  0  0  0  0
   18.6910   17.8500  -39.8270 C   0  0  0  0  0  0  0  0  0  0  0  0
   21.8890   17.2980  -39.2430 H   0  0  0  0  0  0  0  0  0  0  0  0
   20.8320   16.3950  -38.3090 H   0  0  0  0  0  0  0  0  0  0  0  0
   20.6390   16.0030  -41.8170 H   0  0  0  0  0  0  0  0  0  0  0  0
   18.3360   16.7420  -42.9790 H   0  0  0  0  0  0  0  0  0  0  0  0
   16.0791   18.2988  -42.1000 H   0  0  0  0  0  0  0  0  0  0  0  0
   13.6836   18.7399  -38.5702 H   0  0  0  0  0  0  0  0  0  0  0  0
   11.8670   20.4130  -39.5340 H   0  0  0  0  0  0  0  0  0  0  0  0
   12.5248   21.7647  -42.7576 H   0  0  0  0  0  0  0  0  0  0  0  0
   13.1610   23.7474  -40.5569 H   0  0  0  0  0  0  0  0  0  0  0  0
   14.1565   23.3783  -42.0391 H   0  0  0  0  0  0  0  0  0  0  0  0
   13.2109   23.8550  -44.3156 H   0  0  0  0  0  0  0  0  0  0  0  0
   11.8984   25.5159  -45.6277 H   0  0  0  0  0  0  0  0  0  0  0  0
   10.3057   27.0467  -44.4713 H   0  0  0  0  0  0  0  0  0  0  0  0
   10.0312   26.9198  -41.9963 H   0  0  0  0  0  0  0  0  0  0  0  0
   11.3365   25.2562  -40.6781 H   0  0  0  0  0  0  0  0  0  0  0  0
   11.1300   22.0380  -40.1090 H   0  0  0  0  0  0  0  0  0  0  0  0
    8.3728   22.3226  -40.7315 H   0  0  0  0  0  0  0  0  0  0  0  0
    8.9110   19.2961  -41.0898 H   0  0  0  0  0  0  0  0  0  0  0  0
    6.6834   22.1390  -40.4463 H   0  0  0  0  0  0  0  0  0  0  0  0
    3.6067   20.0148  -38.3009 H   0  0  0  0  0  0  0  0  0  0  0  0
    5.0193   17.9631  -38.3038 H   0  0  0  0  0  0  0  0  0  0  0  0
    9.0024   17.9867  -37.7739 H   0  0  0  0  0  0  0  0  0  0  0  0
   16.5495   19.7234  -38.0162 H   0  0  0  0  0  0  0  0  0  0  0  0
   18.8092   18.6347  -37.7697 H   0  0  0  0  0  0  0  0  0  0  0  0
  1  2  1  0
  2  3  2  0
  3  4  1  0
  4  5  1  0
  5  6  2  0
  6  7  1  0
  7  8  1  0
  8  9  2  0
  9 10  1  0
 10 11  1  0
 11 12  1  0
 12 13  1  0
 13 14  1  0
 14 15  2  0
 15 16  1  0
 16 17  2  0
 17 18  1  0
 18 19  2  0
 12 20  1  0
 20 21  1  0
 21 22  2  0
 21 23  1  0
 23 24  2  0
 24 25  1  0
 25 26  2  0
 26 27  1  0
 27 28  1  0
 27 29  2  0
 29 30  1  0
 30 31  2  0
 31 32  1  0
 32 33  1  0
 33 34  2  0
 34 35  1  0
 35 36  2  0
 11 37  2  0
  7 38  2  0
 38 39  1  0
 39 40  2  0
 40  2  1  0
 40  5  1  0
 37  8  1  0
 19 14  1  0
 31 25  1  0
 36 32  1  0
  1 41  1  0
  1 42  1  0
  3 43  1  0
  4 44  1  0
  6 45  1  0
  9 46  1  0
 10 47  1  0
 12 48  1  6
 13 49  1  0
 13 50  1  0
 15 51  1  0
 16 52  1  0
 17 53  1  0
 18 54  1  0
 19 55  1  0
 20 56  1  0
 23 57  1  0
 24 58  1  0
 26 59  1  0
 29 60  1  0
 30 61  1  0
 33 62  1  0
 38 63  1  0
 39 64  1  0
M  CHG  1   3   1
M  END
>  <meeko>  (9) 
{"is_sidechain": [false], "free_energy": -9.095, "intermolecular_energy": -13.507, "internal_energy": -1.407}

$$$$
