3oe4_ligand
     RDKit          3D

 51 54  0  0  0  0  0  0  0  0999 V2000
   18.5030  -16.3730   -0.7400 O   0  0  0  0  0  0  0  0  0  0  0  0
   18.7440  -16.7440    0.4040 C   0  0  0  0  0  0  0  0  0  0  0  0
   17.7850  -16.8090    1.3850 N   0  0  0  0  0  0  0  0  0  0  0  0
   16.3950  -16.5970    1.0840 C   0  0  0  0  0  0  0  0  0  0  0  0
   16.1600  -15.1220    1.0280 C   0  0  0  0  0  0  0  0  0  0  0  0
   14.9540  -14.5400    1.1550 C   0  0  0  0  0  0  0  0  0  0  0  0
   14.6600  -13.0660    1.1060 C   0  0  1  0  0  0  0  0  0  0  0  0
   13.3690  -12.8100    0.5250 O   0  0  0  0  0  0  0  0  0  0  0  0
   12.7990  -11.6620    1.1930 C   0  0  1  0  0  0  0  0  0  0  0  0
   11.5170  -12.0170    1.7690 N   0  0  0  0  0  0  0  0  0  0  0  0
   11.0350  -13.2600    2.0760 C   0  0  0  0  0  0  0  0  0  0  0  0
    9.8280  -13.2040    2.6000 N   0  0  0  0  0  0  0  0  0  0  0  0
    9.5120  -11.8670    2.6200 C   0  0  0  0  0  0  0  0  0  0  0  0
    8.3910  -11.1630    3.0470 C   0  0  0  0  0  0  0  0  0  0  0  0
    8.3770   -9.8080    2.9420 N   0  0  0  0  0  0  0  0  0  0  0  0
    9.4670   -9.2010    2.4250 C   0  0  0  0  0  0  0  0  0  0  0  0
   10.6100   -9.7710    1.9820 N   0  0  0  0  0  0  0  0  0  0  0  0
   10.5520  -11.1080    2.1070 C   0  0  0  0  0  0  0  0  0  0  0  0
   13.8090  -11.1740    2.2380 C   0  0  2  0  0  0  0  0  0  0  0  0
   14.6810  -10.1590    1.6970 O   0  0  0  0  0  0  0  0  0  0  0  0
   14.6330  -12.4230    2.4950 C   0  0  2  0  0  0  0  0  0  0  0  0
   15.9280  -12.1060    2.9930 O   0  0  0  0  0  0  0  0  0  0  0  0
   20.1320  -17.1530    0.7760 C   0  0  0  0  0  0  0  0  0  0  0  0
   20.7040  -18.2190    0.0580 C   0  0  0  0  0  0  0  0  0  0  0  0
   22.0050  -18.6540    0.3550 C   0  0  0  0  0  0  0  0  0  0  0  0
   22.5930  -19.7670   -0.4040 N   0  0  0  0  0  0  0  0  0  0  0  0
   23.4010  -19.4950   -1.3000 O   0  0  0  0  0  0  0  0  0  0  0  0
   22.2400  -20.9140   -0.0980 O   0  0  0  0  0  0  0  0  0  0  0  0
   22.7570  -18.0440    1.3680 C   0  0  0  0  0  0  0  0  0  0  0  0
   22.1830  -16.9960    2.0750 C   0  0  0  0  0  0  0  0  0  0  0  0
   22.8570  -16.3550    3.0810 O   0  0  0  0  0  0  0  0  0  0  0  0
   20.8880  -16.5500    1.7900 C   0  0  0  0  0  0  0  0  0  0  0  0
   20.3980  -15.5150    2.5480 O   0  0  0  0  0  0  0  0  0  0  0  0
   18.0320  -17.2850    2.2490 H   0  0  0  0  0  0  0  0  0  0  0  0
   16.1485  -17.0524    0.1135 H   0  0  0  0  0  0  0  0  0  0  0  0
   15.7600  -17.0585    1.8546 H   0  0  0  0  0  0  0  0  0  0  0  0
   17.0314  -14.4689    0.8726 H   0  0  0  0  0  0  0  0  0  0  0  0
   14.0957  -15.2102    1.3105 H   0  0  0  0  0  0  0  0  0  0  0  0
   15.4715  -12.6349    0.5014 H   0  0  0  0  0  0  0  0  0  0  0  0
   12.6063  -10.8391    0.4889 H   0  0  0  0  0  0  0  0  0  0  0  0
   11.5894  -14.1947    1.9055 H   0  0  0  0  0  0  0  0  0  0  0  0
    7.5251  -11.6971    3.4652 H   0  0  0  0  0  0  0  0  0  0  0  0
    9.4187   -8.1043    2.3556 H   0  0  0  0  0  0  0  0  0  0  0  0
   13.3223  -10.7375    3.1226 H   0  0  0  0  0  0  0  0  0  0  0  0
   15.3370  -10.6200    1.1400 H   0  0  0  0  0  0  0  0  0  0  0  0
   14.2233  -13.0889    3.2688 H   0  0  0  0  0  0  0  0  0  0  0  0
   16.4090  -12.9580    3.0360 H   0  0  0  0  0  0  0  0  0  0  0  0
   20.1295  -18.7135   -0.7392 H   0  0  0  0  0  0  0  0  0  0  0  0
   23.7767  -18.3870    1.5973 H   0  0  0  0  0  0  0  0  0  0  0  0
   23.6880  -16.8300    3.2620 H   0  0  0  0  0  0  0  0  0  0  0  0
   20.8530  -14.7140    2.2070 H   0  0  0  0  0  0  0  0  0  0  0  0
  1  2  2  0
  2  3  1  0
  3  4  1  0
  4  5  1  0
  5  6  2  0
  6  7  1  0
  7  8  1  0
  8  9  1  0
  9 10  1  0
 10 11  1  0
 11 12  2  0
 12 13  1  0
 13 14  2  0
 14 15  1  0
 15 16  2  0
 16 17  1  0
 17 18  2  0
  9 19  1  0
 19 20  1  0
 19 21  1  0
 21 22  1  0
  2 23  1  0
 23 24  2  0
 24 25  1  0
 25 26  1  0
 26 27  2  0
 26 28  1  0
 25 29  2  0
 29 30  1  0
 30 31  1  0
 30 32  2  0
 32 33  1  0
 21  7  1  0
 32 23  1  0
 18 10  1  0
 18 13  1  0
  3 34  1  0
  4 35  1  0
  4 36  1  0
  5 37  1  0
  6 38  1  0
  7 39  1  6
  9 40  1  6
 11 41  1  0
 14 42  1  0
 16 43  1  0
 19 44  1  1
 20 45  1  0
 21 46  1  1
 22 47  1  0
 24 48  1  0
 29 49  1  0
 31 50  1  0
 33 51  1  0
M  CHG  2  26   1  28  -1
M  END
>  <meeko>  (1) 
{"is_sidechain": [false], "free_energy": -9.531, "intermolecular_energy": -13.989, "internal_energy": -0.914}

$$$$
3oe4_ligand
     RDKit          3D

 51 54  0  0  0  0  0  0  0  0999 V2000
   14.3270  -18.2610   -1.5610 O   0  0  0  0  0  0  0  0  0  0  0  0
   14.5650  -17.2910   -0.8510 C   0  0  0  0  0  0  0  0  0  0  0  0
   15.8410  -16.8760   -0.5570 N   0  0  0  0  0  0  0  0  0  0  0  0
   16.9830  -17.4630   -1.2030 C   0  0  0  0  0  0  0  0  0  0  0  0
   17.9150  -17.9400   -0.1370 C   0  0  0  0  0  0  0  0  0  0  0  0
   19.1280  -17.4100    0.1030 C   0  0  0  0  0  0  0  0  0  0  0  0
   20.1050  -17.8490    1.1600 C   0  0  1  0  0  0  0  0  0  0  0  0
   20.7390  -19.0900    0.8010 O   0  0  0  0  0  0  0  0  0  0  0  0
   22.0990  -19.0530    1.2870 C   0  0  1  0  0  0  0  0  0  0  0  0
   23.0200  -19.2550    0.1860 N   0  0  0  0  0  0  0  0  0  0  0  0
   23.3760  -18.3760   -0.7990 C   0  0  0  0  0  0  0  0  0  0  0  0
   24.2520  -18.9000   -1.6330 N   0  0  0  0  0  0  0  0  0  0  0  0
   24.4600  -20.1770   -1.1710 C   0  0  0  0  0  0  0  0  0  0  0  0
   25.2610  -21.2260   -1.6100 C   0  0  0  0  0  0  0  0  0  0  0  0
   25.2580  -22.3980   -0.9230 N   0  0  0  0  0  0  0  0  0  0  0  0
   24.4700  -22.4900    0.1700 C   0  0  0  0  0  0  0  0  0  0  0  0
   23.6560  -21.5470    0.6950 N   0  0  0  0  0  0  0  0  0  0  0  0
   23.7020  -20.4200   -0.0370 C   0  0  0  0  0  0  0  0  0  0  0  0
   22.3080  -17.7140    2.0030 C   0  0  2  0  0  0  0  0  0  0  0  0
   22.0310  -17.8200    3.4150 O   0  0  0  0  0  0  0  0  0  0  0  0
   21.2380  -16.8420    1.3710 C   0  0  2  0  0  0  0  0  0  0  0  0
   20.8750  -15.7570    2.2180 O   0  0  0  0  0  0  0  0  0  0  0  0
   13.4380  -16.5030   -0.2650 C   0  0  0  0  0  0  0  0  0  0  0  0
   13.6100  -15.1100   -0.1650 C   0  0  0  0  0  0  0  0  0  0  0  0
   12.5910  -14.3090    0.3750 C   0  0  0  0  0  0  0  0  0  0  0  0
   12.7820  -12.8560    0.4730 N   0  0  0  0  0  0  0  0  0  0  0  0
   12.8900  -12.2130   -0.5780 O   0  0  0  0  0  0  0  0  0  0  0  0
   12.8210  -12.3610    1.6080 O   0  0  0  0  0  0  0  0  0  0  0  0
   11.3900  -14.8740    0.8250 C   0  0  0  0  0  0  0  0  0  0  0  0
   11.2300  -16.2500    0.7260 C   0  0  0  0  0  0  0  0  0  0  0  0
   10.0860  -16.8720    1.1490 O   0  0  0  0  0  0  0  0  0  0  0  0
   12.2360  -17.0620    0.1890 C   0  0  0  0  0  0  0  0  0  0  0  0
   11.9950  -18.4120    0.1410 O   0  0  0  0  0  0  0  0  0  0  0  0
   15.9450  -15.9700   -0.1050 H   0  0  0  0  0  0  0  0  0  0  0  0
   16.6649  -18.3101   -1.8285 H   0  0  0  0  0  0  0  0  0  0  0  0
   17.4819  -16.7244   -1.8476 H   0  0  0  0  0  0  0  0  0  0  0  0
   17.5877  -18.7801    0.4932 H   0  0  0  0  0  0  0  0  0  0  0  0
   19.4368  -16.5711   -0.5381 H   0  0  0  0  0  0  0  0  0  0  0  0
   19.5059  -17.9474    2.0773 H   0  0  0  0  0  0  0  0  0  0  0  0
   22.2929  -19.8629    2.0057 H   0  0  0  0  0  0  0  0  0  0  0  0
   22.9789  -17.3538   -0.8851 H   0  0  0  0  0  0  0  0  0  0  0  0
   25.8905  -21.1078   -2.5043 H   0  0  0  0  0  0  0  0  0  0  0  0
   24.4935  -23.4537    0.6998 H   0  0  0  0  0  0  0  0  0  0  0  0
   23.3389  -17.3421    1.9080 H   0  0  0  0  0  0  0  0  0  0  0  0
   21.9460  -16.9080    3.7540 H   0  0  0  0  0  0  0  0  0  0  0  0
   21.5472  -16.3416    0.4415 H   0  0  0  0  0  0  0  0  0  0  0  0
   21.4770  -15.0230    1.9760 H   0  0  0  0  0  0  0  0  0  0  0  0
   14.5459  -14.6470   -0.5110 H   0  0  0  0  0  0  0  0  0  0  0  0
   10.5935  -14.2430    1.2463 H   0  0  0  0  0  0  0  0  0  0  0  0
    9.7280  -17.4120    0.4200 H   0  0  0  0  0  0  0  0  0  0  0  0
   12.3140  -18.7590    1.0020 H   0  0  0  0  0  0  0  0  0  0  0  0
  1  2  2  0
  2  3  1  0
  3  4  1  0
  4  5  1  0
  5  6  2  0
  6  7  1  0
  7  8  1  0
  8  9  1  0
  9 10  1  0
 10 11  1  0
 11 12  2  0
 12 13  1  0
 13 14  2  0
 14 15  1  0
 15 16  2  0
 16 17  1  0
 17 18  2  0
  9 19  1  0
 19 20  1  0
 19 21  1  0
 21 22  1  0
  2 23  1  0
 23 24  2  0
 24 25  1  0
 25 26  1  0
 26 27  2  0
 26 28  1  0
 25 29  2  0
 29 30  1  0
 30 31  1  0
 30 32  2  0
 32 33  1  0
 21  7  1  0
 32 23  1  0
 18 10  1  0
 18 13  1  0
  3 34  1  0
  4 35  1  0
  4 36  1  0
  5 37  1  0
  6 38  1  0
  7 39  1  1
  9 40  1  1
 11 41  1  0
 14 42  1  0
 16 43  1  0
 19 44  1  1
 20 45  1  0
 21 46  1  6
 22 47  1  0
 24 48  1  0
 29 49  1  0
 31 50  1  0
 33 51  1  0
M  CHG  2  26   1  28  -1
M  END
>  <meeko>  (2) 
{"is_sidechain": [false], "free_energy": -9.373, "intermolecular_energy": -13.78, "internal_energy": -0.891}

$$$$
3oe4_ligand
     RDKit          3D

 51 54  0  0  0  0  0  0  0  0999 V2000
   11.0800  -18.3450   -0.0170 O   0  0  0  0  0  0  0  0  0  0  0  0
   11.8590  -17.4440    0.2710 C   0  0  0  0  0  0  0  0  0  0  0  0
   11.4710  -16.3010    0.9260 N   0  0  0  0  0  0  0  0  0  0  0  0
   10.1440  -16.1640    1.4620 C   0  0  0  0  0  0  0  0  0  0  0  0
    9.8790  -14.7060    1.6590 C   0  0  0  0  0  0  0  0  0  0  0  0
    8.6590  -14.1440    1.6130 C   0  0  0  0  0  0  0  0  0  0  0  0
    8.3350  -12.6870    1.8030 C   0  0  1  0  0  0  0  0  0  0  0  0
    9.4950  -11.9450    2.2210 O   0  0  0  0  0  0  0  0  0  0  0  0
    9.4220  -10.6300    1.6270 C   0  0  1  0  0  0  0  0  0  0  0  0
   10.6110  -10.3830    0.8350 N   0  0  0  0  0  0  0  0  0  0  0  0
   10.6970  -10.0140   -0.4790 C   0  0  0  0  0  0  0  0  0  0  0  0
   11.9480   -9.8660   -0.8670 N   0  0  0  0  0  0  0  0  0  0  0  0
   12.7010  -10.1660    0.2430 C   0  0  0  0  0  0  0  0  0  0  0  0
   14.0710  -10.1970    0.4800 C   0  0  0  0  0  0  0  0  0  0  0  0
   14.5250  -10.5340    1.7160 N   0  0  0  0  0  0  0  0  0  0  0  0
   13.6120  -10.8230    2.6690 C   0  0  0  0  0  0  0  0  0  0  0  0
   12.2650  -10.8240    2.5630 N   0  0  0  0  0  0  0  0  0  0  0  0
   11.8870  -10.4900    1.3160 C   0  0  0  0  0  0  0  0  0  0  0  0
    8.1300  -10.5540    0.8060 C   0  0  2  0  0  0  0  0  0  0  0  0
    7.0360  -10.0290    1.5870 O   0  0  0  0  0  0  0  0  0  0  0  0
    7.8490  -12.0180    0.5150 C   0  0  2  0  0  0  0  0  0  0  0  0
    6.4700  -12.2460    0.2500 O   0  0  0  0  0  0  0  0  0  0  0  0
   13.3040  -17.5660   -0.0920 C   0  0  0  0  0  0  0  0  0  0  0  0
   13.6290  -17.5390   -1.4610 C   0  0  0  0  0  0  0  0  0  0  0  0
   14.9660  -17.6480   -1.8730 C   0  0  0  0  0  0  0  0  0  0  0  0
   15.2920  -17.6160   -3.3050 N   0  0  0  0  0  0  0  0  0  0  0  0
   16.4860  -17.6090   -3.6280 O   0  0  0  0  0  0  0  0  0  0  0  0
   14.3450  -17.6000   -4.1040 O   0  0  0  0  0  0  0  0  0  0  0  0
   16.0000  -17.7880   -0.9380 C   0  0  0  0  0  0  0  0  0  0  0  0
   15.6710  -17.8180    0.4110 C   0  0  0  0  0  0  0  0  0  0  0  0
   16.6280  -17.9560    1.3810 O   0  0  0  0  0  0  0  0  0  0  0  0
   14.3430  -17.7100    0.8370 C   0  0  0  0  0  0  0  0  0  0  0  0
   14.1110  -17.7600    2.1900 O   0  0  0  0  0  0  0  0  0  0  0  0
   12.2060  -15.6890    1.2730 H   0  0  0  0  0  0  0  0  0  0  0  0
    9.4110  -16.5859    0.7587 H   0  0  0  0  0  0  0  0  0  0  0  0
   10.0579  -16.7027    2.4172 H   0  0  0  0  0  0  0  0  0  0  0  0
   10.7397  -14.0495    1.8546 H   0  0  0  0  0  0  0  0  0  0  0  0
    7.8116  -14.8173    1.4166 H   0  0  0  0  0  0  0  0  0  0  0  0
    7.5425  -12.6694    2.5656 H   0  0  0  0  0  0  0  0  0  0  0  0
    9.3904   -9.8415    2.3933 H   0  0  0  0  0  0  0  0  0  0  0  0
    9.8266   -9.8593   -1.1336 H   0  0  0  0  0  0  0  0  0  0  0  0
   14.7798   -9.9513   -0.3245 H   0  0  0  0  0  0  0  0  0  0  0  0
   14.0164  -11.0914    3.6561 H   0  0  0  0  0  0  0  0  0  0  0  0
    8.2299   -9.9059   -0.0772 H   0  0  0  0  0  0  0  0  0  0  0  0
    6.2610  -10.5930    1.4010 H   0  0  0  0  0  0  0  0  0  0  0  0
    8.3456  -12.4079   -0.3858 H   0  0  0  0  0  0  0  0  0  0  0  0
    6.0570  -12.4070    1.1240 H   0  0  0  0  0  0  0  0  0  0  0  0
   12.8317  -17.4320   -2.2112 H   0  0  0  0  0  0  0  0  0  0  0  0
   17.0471  -17.8721   -1.2644 H   0  0  0  0  0  0  0  0  0  0  0  0
   16.8430  -17.0770    1.7450 H   0  0  0  0  0  0  0  0  0  0  0  0
   14.1310  -18.7150    2.4150 H   0  0  0  0  0  0  0  0  0  0  0  0
  1  2  2  0
  2  3  1  0
  3  4  1  0
  4  5  1  0
  5  6  2  0
  6  7  1  0
  7  8  1  0
  8  9  1  0
  9 10  1  0
 10 11  1  0
 11 12  2  0
 12 13  1  0
 13 14  2  0
 14 15  1  0
 15 16  2  0
 16 17  1  0
 17 18  2  0
  9 19  1  0
 19 20  1  0
 19 21  1  0
 21 22  1  0
  2 23  1  0
 23 24  2  0
 24 25  1  0
 25 26  1  0
 26 27  2  0
 26 28  1  0
 25 29  2  0
 29 30  1  0
 30 31  1  0
 30 32  2  0
 32 33  1  0
 21  7  1  0
 32 23  1  0
 18 10  1  0
 18 13  1  0
  3 34  1  0
  4 35  1  0
  4 36  1  0
  5 37  1  0
  6 38  1  0
  7 39  1  1
  9 40  1  1
 11 41  1  0
 14 42  1  0
 16 43  1  0
 19 44  1  6
 20 45  1  0
 21 46  1  6
 22 47  1  0
 24 48  1  0
 29 49  1  0
 31 50  1  0
 33 51  1  0
M  CHG  2  26   1  28  -1
M  END
>  <meeko>  (3) 
{"is_sidechain": [false], "free_energy": -9.265, "intermolecular_energy": -13.505, "internal_energy": -1.007}

$$$$
3oe4_ligand
     RDKit          3D

 51 54  0  0  0  0  0  0  0  0999 V2000
   13.5020  -18.5810    1.7630 O   0  0  0  0  0  0  0  0  0  0  0  0
   13.5350  -18.1090    0.6320 C   0  0  0  0  0  0  0  0  0  0  0  0
   12.4030  -17.8140   -0.0870 N   0  0  0  0  0  0  0  0  0  0  0  0
   11.0980  -17.8900    0.5130 C   0  0  0  0  0  0  0  0  0  0  0  0
   10.7560  -16.5320    1.0340 C   0  0  0  0  0  0  0  0  0  0  0  0
    9.5380  -16.1750    1.4790 C   0  0  0  0  0  0  0  0  0  0  0  0
    9.1390  -14.8260    2.0130 C   0  0  1  0  0  0  0  0  0  0  0  0
   10.2650  -14.1370    2.5860 O   0  0  0  0  0  0  0  0  0  0  0  0
   10.1060  -12.7250    2.3220 C   0  0  1  0  0  0  0  0  0  0  0  0
   11.2610  -12.2280    1.6010 N   0  0  0  0  0  0  0  0  0  0  0  0
   12.4060  -12.8950    1.2630 C   0  0  0  0  0  0  0  0  0  0  0  0
   13.2430  -12.1270    0.5940 N   0  0  0  0  0  0  0  0  0  0  0  0
   12.6140  -10.9080    0.5090 C   0  0  0  0  0  0  0  0  0  0  0  0
   12.9730   -9.6930   -0.0650 C   0  0  0  0  0  0  0  0  0  0  0  0
   12.1150   -8.6420    0.0100 N   0  0  0  0  0  0  0  0  0  0  0  0
   10.9370   -8.8300    0.6450 C   0  0  0  0  0  0  0  0  0  0  0  0
   10.4760   -9.9550    1.2350 N   0  0  0  0  0  0  0  0  0  0  0  0
   11.3760  -10.9480    1.1300 C   0  0  0  0  0  0  0  0  0  0  0  0
    8.7930  -12.5340    1.5540 C   0  0  2  0  0  0  0  0  0  0  0  0
    7.6900  -12.2750    2.4470 O   0  0  0  0  0  0  0  0  0  0  0  0
    8.5870  -13.9000    0.9250 C   0  0  2  0  0  0  0  0  0  0  0  0
    7.2170  -14.1410    0.6260 O   0  0  0  0  0  0  0  0  0  0  0  0
   14.8510  -17.8300   -0.0200 C   0  0  0  0  0  0  0  0  0  0  0  0
   15.9150  -17.4470    0.8170 C   0  0  0  0  0  0  0  0  0  0  0  0
   17.1790  -17.1710    0.2710 C   0  0  0  0  0  0  0  0  0  0  0  0
   18.2830  -16.7750    1.1550 N   0  0  0  0  0  0  0  0  0  0  0  0
   18.2250  -17.1130    2.3430 O   0  0  0  0  0  0  0  0  0  0  0  0
   19.2100  -16.1250    0.6520 O   0  0  0  0  0  0  0  0  0  0  0  0
   17.4060  -17.2660   -1.1080 C   0  0  0  0  0  0  0  0  0  0  0  0
   16.3480  -17.6390   -1.9270 C   0  0  0  0  0  0  0  0  0  0  0  0
   16.4960  -17.7490   -3.2840 O   0  0  0  0  0  0  0  0  0  0  0  0
   15.0840  -17.9190   -1.3980 C   0  0  0  0  0  0  0  0  0  0  0  0
   14.0960  -18.2710   -2.2850 O   0  0  0  0  0  0  0  0  0  0  0  0
   12.5190  -17.2730   -0.9400 H   0  0  0  0  0  0  0  0  0  0  0  0
   10.3576  -18.1998   -0.2392 H   0  0  0  0  0  0  0  0  0  0  0  0
   11.0922  -18.6277    1.3290 H   0  0  0  0  0  0  0  0  0  0  0  0
   11.5530  -15.7742    1.0550 H   0  0  0  0  0  0  0  0  0  0  0  0
    8.7548  -16.9468    1.4496 H   0  0  0  0  0  0  0  0  0  0  0  0
    8.3643  -15.0366    2.7650 H   0  0  0  0  0  0  0  0  0  0  0  0
   10.0484  -12.1431    3.2537 H   0  0  0  0  0  0  0  0  0  0  0  0
   12.6048  -13.9462    1.5187 H   0  0  0  0  0  0  0  0  0  0  0  0
   13.9418   -9.5840   -0.5745 H   0  0  0  0  0  0  0  0  0  0  0  0
   10.2690   -7.9571    0.6869 H   0  0  0  0  0  0  0  0  0  0  0  0
    8.8368  -11.6903    0.8495 H   0  0  0  0  0  0  0  0  0  0  0  0
    7.1230  -11.6110    2.0090 H   0  0  0  0  0  0  0  0  0  0  0  0
    9.0833  -14.0339   -0.0475 H   0  0  0  0  0  0  0  0  0  0  0  0
    6.8160  -14.4540    1.4630 H   0  0  0  0  0  0  0  0  0  0  0  0
   15.7563  -17.3635    1.9023 H   0  0  0  0  0  0  0  0  0  0  0  0
   18.3979  -17.0505   -1.5319 H   0  0  0  0  0  0  0  0  0  0  0  0
   16.4730  -18.6920   -3.5330 H   0  0  0  0  0  0  0  0  0  0  0  0
   14.0820  -19.2520   -2.2730 H   0  0  0  0  0  0  0  0  0  0  0  0
  1  2  2  0
  2  3  1  0
  3  4  1  0
  4  5  1  0
  5  6  2  0
  6  7  1  0
  7  8  1  0
  8  9  1  0
  9 10  1  0
 10 11  1  0
 11 12  2  0
 12 13  1  0
 13 14  2  0
 14 15  1  0
 15 16  2  0
 16 17  1  0
 17 18  2  0
  9 19  1  0
 19 20  1  0
 19 21  1  0
 21 22  1  0
  2 23  1  0
 23 24  2  0
 24 25  1  0
 25 26  1  0
 26 27  2  0
 26 28  1  0
 25 29  2  0
 29 30  1  0
 30 31  1  0
 30 32  2  0
 32 33  1  0
 21  7  1  0
 32 23  1  0
 18 10  1  0
 18 13  1  0
  3 34  1  0
  4 35  1  0
  4 36  1  0
  5 37  1  0
  6 38  1  0
  7 39  1  1
  9 40  1  1
 11 41  1  0
 14 42  1  0
 16 43  1  0
 19 44  1  6
 20 45  1  0
 21 46  1  6
 22 47  1  0
 24 48  1  0
 29 49  1  0
 31 50  1  0
 33 51  1  0
M  CHG  2  26   1  28  -1
M  END
>  <meeko>  (4) 
{"is_sidechain": [false], "free_energy": -9.191, "intermolecular_energy": -13.339, "internal_energy": -1.066}

$$$$
3oe4_ligand
     RDKit          3D

 51 54  0  0  0  0  0  0  0  0999 V2000
   18.5890  -16.0620   -0.3790 O   0  0  0  0  0  0  0  0  0  0  0  0
   18.6750  -16.5760    0.7310 C   0  0  0  0  0  0  0  0  0  0  0  0
   17.5790  -16.8750    1.5030 N   0  0  0  0  0  0  0  0  0  0  0  0
   16.2450  -16.7510    0.9820 C   0  0  0  0  0  0  0  0  0  0  0  0
   15.9750  -15.2980    0.7600 C   0  0  0  0  0  0  0  0  0  0  0  0
   14.9670  -14.6170    1.3330 C   0  0  0  0  0  0  0  0  0  0  0  0
   14.6490  -13.1580    1.1450 C   0  0  1  0  0  0  0  0  0  0  0  0
   13.3540  -12.9800    0.5440 O   0  0  0  0  0  0  0  0  0  0  0  0
   12.7650  -11.7840    1.1020 C   0  0  1  0  0  0  0  0  0  0  0  0
   11.4890  -12.1030    1.7110 N   0  0  0  0  0  0  0  0  0  0  0  0
   11.0020  -13.3280    2.0770 C   0  0  0  0  0  0  0  0  0  0  0  0
    9.8030  -13.2400    2.6160 N   0  0  0  0  0  0  0  0  0  0  0  0
    9.4980  -11.9000    2.5850 C   0  0  0  0  0  0  0  0  0  0  0  0
    8.3890  -11.1690    2.9980 C   0  0  0  0  0  0  0  0  0  0  0  0
    8.3840   -9.8200    2.8360 N   0  0  0  0  0  0  0  0  0  0  0  0
    9.4710   -9.2440    2.2770 C   0  0  0  0  0  0  0  0  0  0  0  0
   10.6030   -9.8420    1.8420 N   0  0  0  0  0  0  0  0  0  0  0  0
   10.5360  -11.1720    2.0250 C   0  0  0  0  0  0  0  0  0  0  0  0
   13.7670  -11.1820    2.0940 C   0  0  2  0  0  0  0  0  0  0  0  0
   14.6220  -10.2090    1.4580 O   0  0  0  0  0  0  0  0  0  0  0  0
   14.6110  -12.3880    2.4670 C   0  0  2  0  0  0  0  0  0  0  0  0
   15.9010  -12.0040    2.9300 O   0  0  0  0  0  0  0  0  0  0  0  0
   20.0200  -16.9050    1.2970 C   0  0  0  0  0  0  0  0  0  0  0  0
   20.2740  -16.5120    2.6240 C   0  0  0  0  0  0  0  0  0  0  0  0
   21.5150  -16.7900    3.2170 C   0  0  0  0  0  0  0  0  0  0  0  0
   21.7670  -16.3770    4.6050 N   0  0  0  0  0  0  0  0  0  0  0  0
   22.2190  -17.2200    5.3880 O   0  0  0  0  0  0  0  0  0  0  0  0
   21.5110  -15.2020    4.9050 O   0  0  0  0  0  0  0  0  0  0  0  0
   22.5210  -17.4570    2.5080 C   0  0  0  0  0  0  0  0  0  0  0  0
   22.2640  -17.8370    1.1970 C   0  0  0  0  0  0  0  0  0  0  0  0
   23.2020  -18.4890    0.4410 O   0  0  0  0  0  0  0  0  0  0  0  0
   21.0320  -17.5680    0.5910 C   0  0  0  0  0  0  0  0  0  0  0  0
   20.8710  -17.9720   -0.7110 O   0  0  0  0  0  0  0  0  0  0  0  0
   17.7320  -17.4500    2.3280 H   0  0  0  0  0  0  0  0  0  0  0  0
   16.1626  -17.2967    0.0304 H   0  0  0  0  0  0  0  0  0  0  0  0
   15.5156  -17.1740    1.6884 H   0  0  0  0  0  0  0  0  0  0  0  0
   16.6456  -14.7489    0.0826 H   0  0  0  0  0  0  0  0  0  0  0  0
   14.3081  -15.1836    2.0074 H   0  0  0  0  0  0  0  0  0  0  0  0
   15.4533  -12.7720    0.5015 H   0  0  0  0  0  0  0  0  0  0  0  0
   12.5583  -11.0351    0.3232 H   0  0  0  0  0  0  0  0  0  0  0  0
   11.5465  -14.2736    1.9379 H   0  0  0  0  0  0  0  0  0  0  0  0
    7.5252  -11.6777    3.4509 H   0  0  0  0  0  0  0  0  0  0  0  0
    9.4298   -8.1509    2.1612 H   0  0  0  0  0  0  0  0  0  0  0  0
   13.2736  -10.6709    2.9338 H   0  0  0  0  0  0  0  0  0  0  0  0
   15.5300  -10.3870    1.7690 H   0  0  0  0  0  0  0  0  0  0  0  0
   14.2119  -12.9843    3.3008 H   0  0  0  0  0  0  0  0  0  0  0  0
   15.7930  -11.0980    3.2870 H   0  0  0  0  0  0  0  0  0  0  0  0
   19.4975  -15.9853    3.1982 H   0  0  0  0  0  0  0  0  0  0  0  0
   23.4915  -17.6749    2.9777 H   0  0  0  0  0  0  0  0  0  0  0  0
   23.9800  -17.9120    0.3290 H   0  0  0  0  0  0  0  0  0  0  0  0
   20.6420  -17.1540   -1.2040 H   0  0  0  0  0  0  0  0  0  0  0  0
  1  2  2  0
  2  3  1  0
  3  4  1  0
  4  5  1  0
  5  6  2  0
  6  7  1  0
  7  8  1  0
  8  9  1  0
  9 10  1  0
 10 11  1  0
 11 12  2  0
 12 13  1  0
 13 14  2  0
 14 15  1  0
 15 16  2  0
 16 17  1  0
 17 18  2  0
  9 19  1  0
 19 20  1  0
 19 21  1  0
 21 22  1  0
  2 23  1  0
 23 24  2  0
 24 25  1  0
 25 26  1  0
 26 27  2  0
 26 28  1  0
 25 29  2  0
 29 30  1  0
 30 31  1  0
 30 32  2  0
 32 33  1  0
 21  7  1  0
 32 23  1  0
 18 10  1  0
 18 13  1  0
  3 34  1  0
  4 35  1  0
  4 36  1  0
  5 37  1  0
  6 38  1  0
  7 39  1  6
  9 40  1  6
 11 41  1  0
 14 42  1  0
 16 43  1  0
 19 44  1  1
 20 45  1  0
 21 46  1  1
 22 47  1  0
 24 48  1  0
 29 49  1  0
 31 50  1  0
 33 51  1  0
M  CHG  2  26   1  28  -1
M  END
>  <meeko>  (5) 
{"is_sidechain": [false], "free_energy": -9.178, "intermolecular_energy": -13.651, "internal_energy": -0.734}

$$$$
3oe4_ligand
     RDKit          3D

 51 54  0  0  0  0  0  0  0  0999 V2000
   18.8280  -15.9960   -0.5200 O   0  0  0  0  0  0  0  0  0  0  0  0
   19.0210  -17.1790   -0.2620 C   0  0  0  0  0  0  0  0  0  0  0  0
   18.1410  -18.1740   -0.6130 N   0  0  0  0  0  0  0  0  0  0  0  0
   17.0090  -17.9030   -1.4570 C   0  0  0  0  0  0  0  0  0  0  0  0
   15.8260  -17.6740   -0.5730 C   0  0  0  0  0  0  0  0  0  0  0  0
   15.1880  -16.4970   -0.4490 C   0  0  0  0  0  0  0  0  0  0  0  0
   13.9950  -16.2110    0.4240 C   0  0  1  0  0  0  0  0  0  0  0  0
   14.1800  -15.0000    1.1780 O   0  0  0  0  0  0  0  0  0  0  0  0
   12.8940  -14.3530    1.3040 C   0  0  1  0  0  0  0  0  0  0  0  0
   12.9660  -13.0100    0.7620 N   0  0  0  0  0  0  0  0  0  0  0  0
   12.4160  -12.5270   -0.3940 C   0  0  0  0  0  0  0  0  0  0  0  0
   12.6770  -11.2470   -0.5650 N   0  0  0  0  0  0  0  0  0  0  0  0
   13.4390  -10.8920    0.5220 C   0  0  0  0  0  0  0  0  0  0  0  0
   14.0240   -9.6950    0.9200 C   0  0  0  0  0  0  0  0  0  0  0  0
   14.7320   -9.6550    2.0800 N   0  0  0  0  0  0  0  0  0  0  0  0
   14.8320  -10.7920    2.8020 C   0  0  0  0  0  0  0  0  0  0  0  0
   14.3080  -12.0070    2.5240 N   0  0  0  0  0  0  0  0  0  0  0  0
   13.6310  -11.9770    1.3630 C   0  0  0  0  0  0  0  0  0  0  0  0
   11.8530  -15.2290    0.5960 C   0  0  2  0  0  0  0  0  0  0  0  0
   11.2360  -16.1590    1.5090 O   0  0  0  0  0  0  0  0  0  0  0  0
   12.7080  -16.0150   -0.3810 C   0  0  2  0  0  0  0  0  0  0  0  0
   12.0880  -17.2400   -0.7560 O   0  0  0  0  0  0  0  0  0  0  0  0
   20.2600  -17.5880    0.4670 C   0  0  0  0  0  0  0  0  0  0  0  0
   20.8680  -18.7950    0.0750 C   0  0  0  0  0  0  0  0  0  0  0  0
   22.0350  -19.2390    0.7170 C   0  0  0  0  0  0  0  0  0  0  0  0
   22.6620  -20.5000    0.2970 N   0  0  0  0  0  0  0  0  0  0  0  0
   23.4720  -21.0300    1.0660 O   0  0  0  0  0  0  0  0  0  0  0  0
   22.3370  -20.9570   -0.8080 O   0  0  0  0  0  0  0  0  0  0  0  0
   22.6150  -18.4980    1.7550 C   0  0  0  0  0  0  0  0  0  0  0  0
   22.0060  -17.3110    2.1380 C   0  0  0  0  0  0  0  0  0  0  0  0
   22.5140  -16.5360    3.1470 O   0  0  0  0  0  0  0  0  0  0  0  0
   20.8430  -16.8540    1.5080 C   0  0  0  0  0  0  0  0  0  0  0  0
   20.3050  -15.6750    1.9600 O   0  0  0  0  0  0  0  0  0  0  0  0
   18.4580  -19.1350   -0.5120 H   0  0  0  0  0  0  0  0  0  0  0  0
   17.2013  -17.0066   -2.0649 H   0  0  0  0  0  0  0  0  0  0  0  0
   16.8241  -18.7486   -2.1358 H   0  0  0  0  0  0  0  0  0  0  0  0
   15.4524  -18.5250    0.0154 H   0  0  0  0  0  0  0  0  0  0  0  0
   15.5768  -15.6585   -1.0454 H   0  0  0  0  0  0  0  0  0  0  0  0
   13.9048  -17.0899    1.0793 H   0  0  0  0  0  0  0  0  0  0  0  0
   12.5961  -14.2471    2.3576 H   0  0  0  0  0  0  0  0  0  0  0  0
   11.8266  -13.1346   -1.0964 H   0  0  0  0  0  0  0  0  0  0  0  0
   13.9152   -8.7906    0.3033 H   0  0  0  0  0  0  0  0  0  0  0  0
   15.4128  -10.7206    3.7334 H   0  0  0  0  0  0  0  0  0  0  0  0
   11.0410  -14.6389    0.1462 H   0  0  0  0  0  0  0  0  0  0  0  0
   11.8030  -16.1930    2.3030 H   0  0  0  0  0  0  0  0  0  0  0  0
   12.8763  -15.5138   -1.3456 H   0  0  0  0  0  0  0  0  0  0  0  0
   12.2550  -17.8570   -0.0130 H   0  0  0  0  0  0  0  0  0  0  0  0
   20.4276  -19.3924   -0.7369 H   0  0  0  0  0  0  0  0  0  0  0  0
   23.5305  -18.8483    2.2542 H   0  0  0  0  0  0  0  0  0  0  0  0
   21.7790  -16.1950    3.6890 H   0  0  0  0  0  0  0  0  0  0  0  0
   19.8680  -15.2780    1.1760 H   0  0  0  0  0  0  0  0  0  0  0  0
  1  2  2  0
  2  3  1  0
  3  4  1  0
  4  5  1  0
  5  6  2  0
  6  7  1  0
  7  8  1  0
  8  9  1  0
  9 10  1  0
 10 11  1  0
 11 12  2  0
 12 13  1  0
 13 14  2  0
 14 15  1  0
 15 16  2  0
 16 17  1  0
 17 18  2  0
  9 19  1  0
 19 20  1  0
 19 21  1  0
 21 22  1  0
  2 23  1  0
 23 24  2  0
 24 25  1  0
 25 26  1  0
 26 27  2  0
 26 28  1  0
 25 29  2  0
 29 30  1  0
 30 31  1  0
 30 32  2  0
 32 33  1  0
 21  7  1  0
 32 23  1  0
 18 10  1  0
 18 13  1  0
  3 34  1  0
  4 35  1  0
  4 36  1  0
  5 37  1  0
  6 38  1  0
  7 39  1  1
  9 40  1  1
 11 41  1  0
 14 42  1  0
 16 43  1  0
 19 44  1  6
 20 45  1  0
 21 46  1  6
 22 47  1  0
 24 48  1  0
 29 49  1  0
 31 50  1  0
 33 51  1  0
M  CHG  2  26   1  28  -1
M  END
>  <meeko>  (6) 
{"is_sidechain": [false], "free_energy": -8.982, "intermolecular_energy": -13.0, "internal_energy": -1.097}

$$$$
3oe4_ligand
     RDKit          3D

 51 54  0  0  0  0  0  0  0  0999 V2000
   13.0890  -13.1450   -0.4230 O   0  0  0  0  0  0  0  0  0  0  0  0
   12.8020  -13.8940    0.5040 C   0  0  0  0  0  0  0  0  0  0  0  0
   12.6740  -13.4610    1.8020 N   0  0  0  0  0  0  0  0  0  0  0  0
   12.7090  -12.0610    2.1260 C   0  0  0  0  0  0  0  0  0  0  0  0
   11.3000  -11.5640    2.1560 C   0  0  0  0  0  0  0  0  0  0  0  0
   10.7660  -10.7410    1.2360 C   0  0  0  0  0  0  0  0  0  0  0  0
    9.3580  -10.2110    1.2170 C   0  0  1  0  0  0  0  0  0  0  0  0
    8.4910  -11.0590    0.4430 O   0  0  0  0  0  0  0  0  0  0  0  0
    7.1870  -11.0530    1.0660 C   0  0  1  0  0  0  0  0  0  0  0  0
    6.7970  -12.4080    1.4000 N   0  0  0  0  0  0  0  0  0  0  0  0
    7.5730  -13.5330    1.4400 C   0  0  0  0  0  0  0  0  0  0  0  0
    6.8810  -14.5960    1.7980 N   0  0  0  0  0  0  0  0  0  0  0  0
    5.5990  -14.1370    1.9850 C   0  0  0  0  0  0  0  0  0  0  0  0
    4.4140  -14.7600    2.3610 C   0  0  0  0  0  0  0  0  0  0  0  0
    3.2790  -14.0200    2.4690 N   0  0  0  0  0  0  0  0  0  0  0  0
    3.3570  -12.6980    2.2050 C   0  0  0  0  0  0  0  0  0  0  0  0
    4.4420  -11.9810    1.8370 N   0  0  0  0  0  0  0  0  0  0  0  0
    5.5240  -12.7750    1.7430 C   0  0  0  0  0  0  0  0  0  0  0  0
    7.2530  -10.1300    2.2890 C   0  0  2  0  0  0  0  0  0  0  0  0
    6.8670   -8.7810    1.9560 O   0  0  0  0  0  0  0  0  0  0  0  0
    8.7360  -10.1350    2.6140 C   0  0  2  0  0  0  0  0  0  0  0  0
    9.1200   -8.9710    3.3370 O   0  0  0  0  0  0  0  0  0  0  0  0
   12.5750  -15.3480    0.2440 C   0  0  0  0  0  0  0  0  0  0  0  0
   13.5050  -16.0080   -0.5800 C   0  0  0  0  0  0  0  0  0  0  0  0
   13.3520  -17.3740   -0.8660 C   0  0  0  0  0  0  0  0  0  0  0  0
   14.3320  -18.0520   -1.7260 N   0  0  0  0  0  0  0  0  0  0  0  0
   15.1840  -18.7650   -1.1840 O   0  0  0  0  0  0  0  0  0  0  0  0
   14.2420  -17.8660   -2.9480 O   0  0  0  0  0  0  0  0  0  0  0  0
   12.2780  -18.1040   -0.3440 C   0  0  0  0  0  0  0  0  0  0  0  0
   11.3620  -17.4450    0.4650 C   0  0  0  0  0  0  0  0  0  0  0  0
   10.2850  -18.0940    1.0080 O   0  0  0  0  0  0  0  0  0  0  0  0
   11.5010  -16.0840    0.7600 C   0  0  0  0  0  0  0  0  0  0  0  0
   10.5410  -15.5130    1.5600 O   0  0  0  0  0  0  0  0  0  0  0  0
   12.2710  -14.1100    2.4730 H   0  0  0  0  0  0  0  0  0  0  0  0
   13.1779  -11.9163    3.1105 H   0  0  0  0  0  0  0  0  0  0  0  0
   13.2958  -11.5079    1.3778 H   0  0  0  0  0  0  0  0  0  0  0  0
   10.6569  -11.8931    2.9856 H   0  0  0  0  0  0  0  0  0  0  0  0
   11.4251  -10.4233    0.4146 H   0  0  0  0  0  0  0  0  0  0  0  0
    9.4404   -9.2047    0.7804 H   0  0  0  0  0  0  0  0  0  0  0  0
    6.4146  -10.6676    0.3842 H   0  0  0  0  0  0  0  0  0  0  0  0
    8.6468  -13.5490    1.2018 H   0  0  0  0  0  0  0  0  0  0  0  0
    4.3954  -15.8400    2.5688 H   0  0  0  0  0  0  0  0  0  0  0  0
    2.4182  -12.1329    2.3017 H   0  0  0  0  0  0  0  0  0  0  0  0
    6.5885  -10.4595    3.1013 H   0  0  0  0  0  0  0  0  0  0  0  0
    6.2700   -8.8410    1.1850 H   0  0  0  0  0  0  0  0  0  0  0  0
    9.0561  -10.9562    3.2722 H   0  0  0  0  0  0  0  0  0  0  0  0
    8.2960   -8.4580    3.4660 H   0  0  0  0  0  0  0  0  0  0  0  0
   14.3551  -15.4517   -1.0017 H   0  0  0  0  0  0  0  0  0  0  0  0
   12.1623  -19.1744   -0.5693 H   0  0  0  0  0  0  0  0  0  0  0  0
   10.4670  -18.2870    1.9460 H   0  0  0  0  0  0  0  0  0  0  0  0
   10.9690  -14.7160    1.9400 H   0  0  0  0  0  0  0  0  0  0  0  0
  1  2  2  0
  2  3  1  0
  3  4  1  0
  4  5  1  0
  5  6  2  0
  6  7  1  0
  7  8  1  0
  8  9  1  0
  9 10  1  0
 10 11  1  0
 11 12  2  0
 12 13  1  0
 13 14  2  0
 14 15  1  0
 15 16  2  0
 16 17  1  0
 17 18  2  0
  9 19  1  0
 19 20  1  0
 19 21  1  0
 21 22  1  0
  2 23  1  0
 23 24  2  0
 24 25  1  0
 25 26  1  0
 26 27  2  0
 26 28  1  0
 25 29  2  0
 29 30  1  0
 30 31  1  0
 30 32  2  0
 32 33  1  0
 21  7  1  0
 32 23  1  0
 18 10  1  0
 18 13  1  0
  3 34  1  0
  4 35  1  0
  4 36  1  0
  5 37  1  0
  6 38  1  0
  7 39  1  6
  9 40  1  6
 11 41  1  0
 14 42  1  0
 16 43  1  0
 19 44  1  1
 20 45  1  0
 21 46  1  1
 22 47  1  0
 24 48  1  0
 29 49  1  0
 31 50  1  0
 33 51  1  0
M  CHG  2  26   1  28  -1
M  END
>  <meeko>  (7) 
{"is_sidechain": [false], "free_energy": -8.815, "intermolecular_energy": -12.328, "internal_energy": -1.524}

$$$$
3oe4_ligand
     RDKit          3D

 51 54  0  0  0  0  0  0  0  0999 V2000
   18.7670  -16.3010   -0.4100 O   0  0  0  0  0  0  0  0  0  0  0  0
   18.8210  -16.6980    0.7500 C   0  0  0  0  0  0  0  0  0  0  0  0
   17.7030  -16.9140    1.5180 N   0  0  0  0  0  0  0  0  0  0  0  0
   16.3840  -16.8450    0.9500 C   0  0  0  0  0  0  0  0  0  0  0  0
   16.0640  -15.4030    0.7180 C   0  0  0  0  0  0  0  0  0  0  0  0
   15.0420  -14.7500    1.2990 C   0  0  0  0  0  0  0  0  0  0  0  0
   14.6730  -13.3050    1.1010 C   0  0  1  0  0  0  0  0  0  0  0  0
   13.3930  -13.1760    0.4570 O   0  0  0  0  0  0  0  0  0  0  0  0
   12.7390  -12.0050    0.9940 C   0  0  1  0  0  0  0  0  0  0  0  0
   11.4570  -12.3750    1.5590 N   0  0  0  0  0  0  0  0  0  0  0  0
   10.5730  -11.5940    2.2510 C   0  0  0  0  0  0  0  0  0  0  0  0
    9.4960  -12.2650    2.6060 N   0  0  0  0  0  0  0  0  0  0  0  0
    9.7000  -13.5390    2.1320 C   0  0  0  0  0  0  0  0  0  0  0  0
    8.9420  -14.7040    2.1840 C   0  0  0  0  0  0  0  0  0  0  0  0
    9.4220  -15.8350    1.6030 N   0  0  0  0  0  0  0  0  0  0  0  0
   10.6250  -15.7740    0.9930 C   0  0  0  0  0  0  0  0  0  0  0  0
   11.4480  -14.7090    0.8740 N   0  0  0  0  0  0  0  0  0  0  0  0
   10.9170  -13.6300    1.4750 C   0  0  0  0  0  0  0  0  0  0  0  0
   13.6830  -11.3660    2.0200 C   0  0  2  0  0  0  0  0  0  0  0  0
   14.5200  -10.3590    1.4150 O   0  0  0  0  0  0  0  0  0  0  0  0
   14.5600  -12.5380    2.4210 C   0  0  2  0  0  0  0  0  0  0  0  0
   15.8170  -12.1050    2.9290 O   0  0  0  0  0  0  0  0  0  0  0  0
   20.1480  -16.9670    1.3820 C   0  0  0  0  0  0  0  0  0  0  0  0
   20.3340  -16.5200    2.7040 C   0  0  0  0  0  0  0  0  0  0  0  0
   21.5560  -16.7410    3.3590 C   0  0  0  0  0  0  0  0  0  0  0  0
   21.7370  -16.2710    4.7390 N   0  0  0  0  0  0  0  0  0  0  0  0
   22.2220  -17.0580    5.5610 O   0  0  0  0  0  0  0  0  0  0  0  0
   21.3900  -15.1100    4.9960 O   0  0  0  0  0  0  0  0  0  0  0  0
   22.6100  -17.4030    2.7170 C   0  0  0  0  0  0  0  0  0  0  0  0
   22.4200  -17.8360    1.4110 C   0  0  0  0  0  0  0  0  0  0  0  0
   23.4070  -18.4870    0.7200 O   0  0  0  0  0  0  0  0  0  0  0  0
   21.2080  -17.6250    0.7450 C   0  0  0  0  0  0  0  0  0  0  0  0
   21.1140  -18.0790   -0.5470 O   0  0  0  0  0  0  0  0  0  0  0  0
   17.8310  -17.4010    2.4020 H   0  0  0  0  0  0  0  0  0  0  0  0
   16.3576  -17.3928   -0.0035 H   0  0  0  0  0  0  0  0  0  0  0  0
   15.6476  -17.2986    1.6296 H   0  0  0  0  0  0  0  0  0  0  0  0
   16.7071  -14.8390    0.0264 H   0  0  0  0  0  0  0  0  0  0  0  0
   14.4122  -15.3311    1.9887 H   0  0  0  0  0  0  0  0  0  0  0  0
   15.4832  -12.8879    0.4848 H   0  0  0  0  0  0  0  0  0  0  0  0
   12.5295  -11.2634    0.2090 H   0  0  0  0  0  0  0  0  0  0  0  0
   10.7411  -10.5321    2.4836 H   0  0  0  0  0  0  0  0  0  0  0  0
    7.9651  -14.7099    2.6896 H   0  0  0  0  0  0  0  0  0  0  0  0
   10.9798  -16.7092    0.5352 H   0  0  0  0  0  0  0  0  0  0  0  0
   13.1414  -10.8762    2.8427 H   0  0  0  0  0  0  0  0  0  0  0  0
   14.1360  -10.1630    0.5390 H   0  0  0  0  0  0  0  0  0  0  0  0
   14.1562  -13.1507    3.2405 H   0  0  0  0  0  0  0  0  0  0  0  0
   15.6690  -11.9280    3.8810 H   0  0  0  0  0  0  0  0  0  0  0  0
   19.5194  -15.9960    3.2253 H   0  0  0  0  0  0  0  0  0  0  0  0
   23.5652  -17.5759    3.2345 H   0  0  0  0  0  0  0  0  0  0  0  0
   23.0600  -18.7640   -0.1480 H   0  0  0  0  0  0  0  0  0  0  0  0
   20.7670  -18.9940   -0.4700 H   0  0  0  0  0  0  0  0  0  0  0  0
  1  2  2  0
  2  3  1  0
  3  4  1  0
  4  5  1  0
  5  6  2  0
  6  7  1  0
  7  8  1  0
  8  9  1  0
  9 10  1  0
 10 11  1  0
 11 12  2  0
 12 13  1  0
 13 14  2  0
 14 15  1  0
 15 16  2  0
 16 17  1  0
 17 18  2  0
  9 19  1  0
 19 20  1  0
 19 21  1  0
 21 22  1  0
  2 23  1  0
 23 24  2  0
 24 25  1  0
 25 26  1  0
 26 27  2  0
 26 28  1  0
 25 29  2  0
 29 30  1  0
 30 31  1  0
 30 32  2  0
 32 33  1  0
 21  7  1  0
 32 23  1  0
 18 10  1  0
 18 13  1  0
  3 34  1  0
  4 35  1  0
  4 36  1  0
  5 37  1  0
  6 38  1  0
  7 39  1  6
  9 40  1  6
 11 41  1  0
 14 42  1  0
 16 43  1  0
 19 44  1  1
 20 45  1  0
 21 46  1  1
 22 47  1  0
 24 48  1  0
 29 49  1  0
 31 50  1  0
 33 51  1  0
M  CHG  2  26   1  28  -1
M  END
>  <meeko>  (8) 
{"is_sidechain": [false], "free_energy": -8.797, "intermolecular_energy": -13.638, "internal_energy": -0.187}

$$$$
3oe4_ligand
     RDKit          3D

 51 54  0  0  0  0  0  0  0  0999 V2000
   12.6710  -10.8190    2.4980 O   0  0  0  0  0  0  0  0  0  0  0  0
   12.2110  -11.9120    2.1870 C   0  0  0  0  0  0  0  0  0  0  0  0
   12.9920  -13.0290    2.0140 N   0  0  0  0  0  0  0  0  0  0  0  0
   14.3900  -13.0190    2.3490 C   0  0  0  0  0  0  0  0  0  0  0  0
   15.1050  -13.8720    1.3510 C   0  0  0  0  0  0  0  0  0  0  0  0
   15.2550  -15.2040    1.4610 C   0  0  0  0  0  0  0  0  0  0  0  0
   15.9630  -16.1090    0.4890 C   0  0  1  0  0  0  0  0  0  0  0  0
   17.2570  -15.5890    0.1390 O   0  0  0  0  0  0  0  0  0  0  0  0
   18.1530  -16.7080   -0.0460 C   0  0  1  0  0  0  0  0  0  0  0  0
   19.2910  -16.5780    0.8420 N   0  0  0  0  0  0  0  0  0  0  0  0
   19.4650  -15.7070    1.8820 C   0  0  0  0  0  0  0  0  0  0  0  0
   20.6250  -15.8820    2.4820 N   0  0  0  0  0  0  0  0  0  0  0  0
   21.2310  -16.9030    1.7900 C   0  0  0  0  0  0  0  0  0  0  0  0
   22.4570  -17.5450    1.9260 C   0  0  0  0  0  0  0  0  0  0  0  0
   22.7800  -18.5510    1.0700 N   0  0  0  0  0  0  0  0  0  0  0  0
   21.8820  -18.8850    0.1180 C   0  0  0  0  0  0  0  0  0  0  0  0
   20.6660  -18.3430   -0.1120 N   0  0  0  0  0  0  0  0  0  0  0  0
   20.4160  -17.3530    0.7630 C   0  0  0  0  0  0  0  0  0  0  0  0
   17.3550  -17.9950    0.1880 C   0  0  2  0  0  0  0  0  0  0  0  0
   16.8020  -18.5070   -1.0420 O   0  0  0  0  0  0  0  0  0  0  0  0
   16.2110  -17.5080    1.0600 C   0  0  2  0  0  0  0  0  0  0  0  0
   15.0760  -18.3620    0.9640 O   0  0  0  0  0  0  0  0  0  0  0  0
   10.7390  -12.0700    1.9820 C   0  0  0  0  0  0  0  0  0  0  0  0
   10.0230  -10.9340    1.5620 C   0  0  0  0  0  0  0  0  0  0  0  0
    8.6370  -11.0110    1.3490 C   0  0  0  0  0  0  0  0  0  0  0  0
    7.9010   -9.8190    0.9080 N   0  0  0  0  0  0  0  0  0  0  0  0
    8.2400   -9.2880   -0.1560 O   0  0  0  0  0  0  0  0  0  0  0  0
    6.9800   -9.4170    1.6330 O   0  0  0  0  0  0  0  0  0  0  0  0
    7.9420  -12.2100    1.5510 C   0  0  0  0  0  0  0  0  0  0  0  0
    8.6560  -13.3250    1.9690 C   0  0  0  0  0  0  0  0  0  0  0  0
    8.0420  -14.5290    2.1910 O   0  0  0  0  0  0  0  0  0  0  0  0
   10.0370  -13.2640    2.1850 C   0  0  0  0  0  0  0  0  0  0  0  0
   10.6580  -14.4140    2.6090 O   0  0  0  0  0  0  0  0  0  0  0  0
   12.5160  -13.9230    1.9250 H   0  0  0  0  0  0  0  0  0  0  0  0
   14.7773  -11.9903    2.3078 H   0  0  0  0  0  0  0  0  0  0  0  0
   14.5441  -13.4070    3.3667 H   0  0  0  0  0  0  0  0  0  0  0  0
   15.5369  -13.3776    0.4684 H   0  0  0  0  0  0  0  0  0  0  0  0
   14.8162  -15.6796    2.3505 H   0  0  0  0  0  0  0  0  0  0  0  0
   15.2966  -16.1646   -0.3844 H   0  0  0  0  0  0  0  0  0  0  0  0
   18.5595  -16.7354   -1.0677 H   0  0  0  0  0  0  0  0  0  0  0  0
   18.7248  -14.9506    2.1818 H   0  0  0  0  0  0  0  0  0  0  0  0
   23.1581  -17.2422    2.7177 H   0  0  0  0  0  0  0  0  0  0  0  0
   22.1784  -19.7024   -0.5558 H   0  0  0  0  0  0  0  0  0  0  0  0
   17.9698  -18.7992    0.6184 H   0  0  0  0  0  0  0  0  0  0  0  0
   16.9380  -17.8180   -1.7200 H   0  0  0  0  0  0  0  0  0  0  0  0
   16.4298  -17.5006    2.1380 H   0  0  0  0  0  0  0  0  0  0  0  0
   15.4340  -19.2740    0.9510 H   0  0  0  0  0  0  0  0  0  0  0  0
   10.5505   -9.9824    1.3999 H   0  0  0  0  0  0  0  0  0  0  0  0
    6.8565  -12.2670    1.3825 H   0  0  0  0  0  0  0  0  0  0  0  0
    7.2580  -14.3900    2.7540 H   0  0  0  0  0  0  0  0  0  0  0  0
   10.8590  -14.9110    1.7870 H   0  0  0  0  0  0  0  0  0  0  0  0
  1  2  2  0
  2  3  1  0
  3  4  1  0
  4  5  1  0
  5  6  2  0
  6  7  1  0
  7  8  1  0
  8  9  1  0
  9 10  1  0
 10 11  1  0
 11 12  2  0
 12 13  1  0
 13 14  2  0
 14 15  1  0
 15 16  2  0
 16 17  1  0
 17 18  2  0
  9 19  1  0
 19 20  1  0
 19 21  1  0
 21 22  1  0
  2 23  1  0
 23 24  2  0
 24 25  1  0
 25 26  1  0
 26 27  2  0
 26 28  1  0
 25 29  2  0
 29 30  1  0
 30 31  1  0
 30 32  2  0
 32 33  1  0
 21  7  1  0
 32 23  1  0
 18 10  1  0
 18 13  1  0
  3 34  1  0
  4 35  1  0
  4 36  1  0
  5 37  1  0
  6 38  1  0
  7 39  1  6
  9 40  1  6
 11 41  1  0
 14 42  1  0
 16 43  1  0
 19 44  1  1
 20 45  1  0
 21 46  1  1
 22 47  1  0
 24 48  1  0
 29 49  1  0
 31 50  1  0
 33 51  1  0
M  CHG  2  26   1  28  -1
M  END
>  <meeko>  (9) 
{"is_sidechain": [false], "free_energy": -8.467, "intermolecular_energy": -12.429, "internal_energy": -0.912}

$$$$
