4gid_ligand
     RDKit          3D

 95 97  0  0  0  0  0  0  0  0999 V2000
   45.5650    3.7610   12.3980 C   0  0  0  0  0  0  0  0  0  0  0  0
   45.5650    2.2330   12.4780 C   0  0  0  0  0  0  0  0  0  0  0  0
   46.8800    1.6860   11.9200 C   0  0  0  0  0  0  0  0  0  0  0  0
   44.3360    1.6780   11.7410 C   0  0  0  0  0  0  0  0  0  0  0  0
   44.2930    0.2230   11.7100 N   0  0  0  0  0  0  0  0  0  0  0  0
   44.7210   -0.4890   10.6110 C   0  0  0  0  0  0  0  0  0  0  0  0
   45.0760    0.0470    9.5630 O   0  0  0  0  0  0  0  0  0  0  0  0
   44.6160   -2.0170   10.7230 C   0  0  1  0  0  0  0  0  0  0  0  0
   44.1900   -2.7000    9.4170 N   0  0  0  0  0  0  0  0  0  0  0  0
   42.8260   -3.3260    9.3400 C   0  0  0  0  0  0  0  0  0  0  0  0
   42.7490   -4.6360   10.1750 C   0  0  2  0  0  0  0  0  0  0  0  0
   42.8640   -5.8930    9.2810 C   0  0  0  0  0  0  0  0  0  0  0  0
   41.8570   -6.9760    9.5930 C   0  0  0  0  0  0  0  0  0  0  0  0
   41.8920   -7.6300   10.8350 C   0  0  0  0  0  0  0  0  0  0  0  0
   40.9320   -8.5870   11.1600 C   0  0  0  0  0  0  0  0  0  0  0  0
   39.9320   -8.9080   10.2460 C   0  0  0  0  0  0  0  0  0  0  0  0
   39.9020   -8.2850    9.0000 C   0  0  0  0  0  0  0  0  0  0  0  0
   40.8630   -7.3280    8.6700 C   0  0  0  0  0  0  0  0  0  0  0  0
   41.5420   -4.6830   11.0240 N   0  0  0  0  0  0  0  0  0  0  0  0
   41.3610   -3.8190   12.0790 C   0  0  0  0  0  0  0  0  0  0  0  0
   42.2320   -2.9960   12.3580 O   0  0  0  0  0  0  0  0  0  0  0  0
   40.0240   -3.7540   12.7220 C   0  0  0  0  0  0  0  0  0  0  0  0
   38.9340   -4.5360   12.3280 C   0  0  0  0  0  0  0  0  0  0  0  0
   37.6690   -4.2700   12.8690 C   0  0  0  0  0  0  0  0  0  0  0  0
   36.4630   -5.0480   12.4830 C   0  0  0  0  0  0  0  0  0  0  0  0
   35.6820   -5.4090   13.3550 O   0  0  0  0  0  0  0  0  0  0  0  0
   36.2790   -5.2840   11.1400 N   0  0  0  0  0  0  0  0  0  0  0  0
   35.0800   -5.9580   10.6500 C   0  0  2  0  0  0  0  0  0  0  0  0
   35.3470   -7.4580   10.4850 C   0  0  0  0  0  0  0  0  0  0  0  0
   34.5890   -5.2450    9.4000 C   0  0  0  0  0  0  0  0  0  0  0  0
   33.2780   -4.7700    9.2450 C   0  0  0  0  0  0  0  0  0  0  0  0
   32.8860   -4.1250    8.0680 C   0  0  0  0  0  0  0  0  0  0  0  0
   33.7930   -3.9520    7.0270 C   0  0  0  0  0  0  0  0  0  0  0  0
   35.0950   -4.4240    7.1570 C   0  0  0  0  0  0  0  0  0  0  0  0
   35.4900   -5.0630    8.3340 C   0  0  0  0  0  0  0  0  0  0  0  0
   37.5030   -3.2390   13.8060 C   0  0  0  0  0  0  0  0  0  0  0  0
   38.6020   -2.4990   14.2420 C   0  0  0  0  0  0  0  0  0  0  0  0
   38.4680   -1.3370   15.0930 N   0  0  0  0  0  0  0  0  0  0  0  0
   39.3960   -1.2720   16.2510 C   0  0  0  0  0  0  0  0  0  0  0  0
   36.8300   -0.9450   15.4400 S   0  0  0  0  0  0  0  0  0  0  0  0
   36.3260   -2.3050   16.4770 C   0  0  0  0  0  0  0  0  0  0  0  0
   36.0840   -0.9900   14.2010 O   0  0  0  0  0  0  0  0  0  0  0  0
   36.8080    0.2600   16.2580 O   0  0  0  0  0  0  0  0  0  0  0  0
   39.8580   -2.7710   13.7060 C   0  0  0  0  0  0  0  0  0  0  0  0
   45.9620   -2.6640   11.1260 C   0  0  1  0  0  0  0  0  0  0  0  0
   46.9580   -2.6670    9.9760 C   0  0  0  0  0  0  0  0  0  0  0  0
   46.4960   -1.8980   12.2270 O   0  0  0  0  0  0  0  0  0  0  0  0
   46.6021    4.1272   12.3788 H   0  0  0  0  0  0  0  0  0  0  0  0
   45.0465    4.0802   11.4819 H   0  0  0  0  0  0  0  0  0  0  0  0
   45.0465    4.1741   13.2757 H   0  0  0  0  0  0  0  0  0  0  0  0
   45.4949    1.9059   13.5259 H   0  0  0  0  0  0  0  0  0  0  0  0
   47.5445    1.4096   12.7519 H   0  0  0  0  0  0  0  0  0  0  0  0
   46.6756    0.7983   11.3034 H   0  0  0  0  0  0  0  0  0  0  0  0
   47.3655    2.4568   11.3034 H   0  0  0  0  0  0  0  0  0  0  0  0
   43.4304    2.0436   12.2473 H   0  0  0  0  0  0  0  0  0  0  0  0
   44.3962    2.0250   10.6989 H   0  0  0  0  0  0  0  0  0  0  0  0
   44.2250   -0.2260   12.6280 H   0  0  0  0  0  0  0  0  0  0  0  0
   43.8474   -2.1700   11.4949 H   0  0  0  0  0  0  0  0  0  0  0  0
   44.2500   -1.9430    8.7130 H   0  0  0  0  0  0  0  0  0  0  0  0
   44.9230   -3.3740    9.1250 H   0  0  0  0  0  0  0  0  0  0  0  0
   42.0834   -2.6123    9.7263 H   0  0  0  0  0  0  0  0  0  0  0  0
   42.6211   -3.5758    8.2885 H   0  0  0  0  0  0  0  0  0  0  0  0
   43.6171   -4.6332   10.8505 H   0  0  0  0  0  0  0  0  0  0  0  0
   42.7243   -5.5846    8.2344 H   0  0  0  0  0  0  0  0  0  0  0  0
   43.8577   -6.3241    9.4723 H   0  0  0  0  0  0  0  0  0  0  0  0
   42.6840   -7.3850   11.5580 H   0  0  0  0  0  0  0  0  0  0  0  0
   40.9645   -9.0885   12.1385 H   0  0  0  0  0  0  0  0  0  0  0  0
   39.1661   -9.6530   10.5074 H   0  0  0  0  0  0  0  0  0  0  0  0
   39.1185   -8.5482    8.2741 H   0  0  0  0  0  0  0  0  0  0  0  0
   40.8400   -6.8478    7.6806 H   0  0  0  0  0  0  0  0  0  0  0  0
   40.7270   -5.1400   10.6270 H   0  0  0  0  0  0  0  0  0  0  0  0
   39.0680   -5.3510   11.6014 H   0  0  0  0  0  0  0  0  0  0  0  0
   36.8550   -4.8280   10.4480 H   0  0  0  0  0  0  0  0  0  0  0  0
   34.2569   -5.8989   11.3773 H   0  0  0  0  0  0  0  0  0  0  0  0
   35.4305   -7.9268   11.4766 H   0  0  0  0  0  0  0  0  0  0  0  0
   34.5169   -7.9193    9.9300 H   0  0  0  0  0  0  0  0  0  0  0  0
   36.2853   -7.6045    9.9300 H   0  0  0  0  0  0  0  0  0  0  0  0
   32.5504   -4.9065   10.0586 H   0  0  0  0  0  0  0  0  0  0  0  0
   31.8561   -3.7527    7.9645 H   0  0  0  0  0  0  0  0  0  0  0  0
   33.4810   -3.4430    6.1031 H   0  0  0  0  0  0  0  0  0  0  0  0
   35.8126   -4.2940    6.3335 H   0  0  0  0  0  0  0  0  0  0  0  0
   36.5224   -5.4303    8.4298 H   0  0  0  0  0  0  0  0  0  0  0  0
   36.5007   -3.0130   14.1989 H   0  0  0  0  0  0  0  0  0  0  0  0
   38.8185   -1.3124   17.1864 H   0  0  0  0  0  0  0  0  0  0  0  0
   40.0911   -2.1237   16.2121 H   0  0  0  0  0  0  0  0  0  0  0  0
   39.9656   -0.3318   16.2121 H   0  0  0  0  0  0  0  0  0  0  0  0
   36.4320   -2.0191   17.5339 H   0  0  0  0  0  0  0  0  0  0  0  0
   35.2754   -2.5554   16.2684 H   0  0  0  0  0  0  0  0  0  0  0  0
   36.9597   -3.1796   16.2684 H   0  0  0  0  0  0  0  0  0  0  0  0
   40.7326   -2.2057   14.0604 H   0  0  0  0  0  0  0  0  0  0  0  0
   45.7908   -3.7136   11.4073 H   0  0  0  0  0  0  0  0  0  0  0  0
   47.9820   -2.6701   10.3778 H   0  0  0  0  0  0  0  0  0  0  0  0
   46.8034   -3.5647    9.3594 H   0  0  0  0  0  0  0  0  0  0  0  0
   46.8088   -1.7684    9.3594 H   0  0  0  0  0  0  0  0  0  0  0  0
   47.4390   -2.1470   12.3250 H   0  0  0  0  0  0  0  0  0  0  0  0
  1  2  1  0
  2  3  1  0
  2  4  1  0
  4  5  1  0
  5  6  1  0
  6  7  2  0
  6  8  1  0
  8  9  1  0
  9 10  1  0
 10 11  1  0
 11 12  1  0
 12 13  1  0
 13 14  2  0
 14 15  1  0
 15 16  2  0
 16 17  1  0
 17 18  2  0
 11 19  1  0
 19 20  1  0
 20 21  2  0
 20 22  1  0
 22 23  2  0
 23 24  1  0
 24 25  1  0
 25 26  2  0
 25 27  1  0
 27 28  1  0
 28 29  1  0
 28 30  1  0
 30 31  2  0
 31 32  1  0
 32 33  2  0
 33 34  1  0
 34 35  2  0
 24 36  2  0
 36 37  1  0
 37 38  1  0
 38 39  1  0
 38 40  1  0
 40 41  1  0
 40 42  2  0
 40 43  2  0
 37 44  2  0
  8 45  1  0
 45 46  1  0
 45 47  1  0
 18 13  1  0
 44 22  1  0
 35 30  1  0
  1 48  1  0
  1 49  1  0
  1 50  1  0
  2 51  1  0
  3 52  1  0
  3 53  1  0
  3 54  1  0
  4 55  1  0
  4 56  1  0
  5 57  1  0
  8 58  1  1
  9 59  1  0
  9 60  1  0
 10 61  1  0
 10 62  1  0
 11 63  1  1
 12 64  1  0
 12 65  1  0
 14 66  1  0
 15 67  1  0
 16 68  1  0
 17 69  1  0
 18 70  1  0
 19 71  1  0
 23 72  1  0
 27 73  1  0
 28 74  1  1
 29 75  1  0
 29 76  1  0
 29 77  1  0
 31 78  1  0
 32 79  1  0
 33 80  1  0
 34 81  1  0
 35 82  1  0
 36 83  1  0
 39 84  1  0
 39 85  1  0
 39 86  1  0
 41 87  1  0
 41 88  1  0
 41 89  1  0
 44 90  1  0
 45 91  1  1
 46 92  1  0
 46 93  1  0
 46 94  1  0
 47 95  1  0
M  CHG  1   9   1
M  END
>  <meeko>  (1) 
{"is_sidechain": [false], "free_energy": -10.898, "intermolecular_energy": -21.409, "internal_energy": -0.718}

$$$$
4gid_ligand
     RDKit          3D

 95 97  0  0  0  0  0  0  0  0999 V2000
   47.9960   -1.4560   15.8220 C   0  0  0  0  0  0  0  0  0  0  0  0
   48.4530   -0.7430   14.5470 C   0  0  0  0  0  0  0  0  0  0  0  0
   47.7850    0.6300   14.4550 C   0  0  0  0  0  0  0  0  0  0  0  0
   48.1530   -1.6270   13.3270 C   0  0  0  0  0  0  0  0  0  0  0  0
   46.8940   -1.2960   12.6730 N   0  0  0  0  0  0  0  0  0  0  0  0
   46.7890   -1.2250   11.3020 C   0  0  0  0  0  0  0  0  0  0  0  0
   47.7540   -1.3420   10.5500 O   0  0  0  0  0  0  0  0  0  0  0  0
   45.3990   -0.8660   10.7560 C   0  0  1  0  0  0  0  0  0  0  0  0
   44.2470   -1.4910   11.5530 N   0  0  0  0  0  0  0  0  0  0  0  0
   43.1240   -2.1520   10.8040 C   0  0  0  0  0  0  0  0  0  0  0  0
   43.0300   -3.6690   11.1340 C   0  0  2  0  0  0  0  0  0  0  0  0
   43.2270   -4.5430    9.8740 C   0  0  0  0  0  0  0  0  0  0  0  0
   42.2800   -5.7170    9.7710 C   0  0  0  0  0  0  0  0  0  0  0  0
   42.2040   -6.6500   10.8180 C   0  0  0  0  0  0  0  0  0  0  0  0
   41.2910   -7.7020   10.7640 C   0  0  0  0  0  0  0  0  0  0  0  0
   40.4500   -7.8390    9.6630 C   0  0  0  0  0  0  0  0  0  0  0  0
   40.5350   -6.9340    8.6070 C   0  0  0  0  0  0  0  0  0  0  0  0
   41.4490   -5.8820    8.6550 C   0  0  0  0  0  0  0  0  0  0  0  0
   41.7760   -4.0070   11.8360 N   0  0  0  0  0  0  0  0  0  0  0  0
   41.0890   -3.0780   12.5830 C   0  0  0  0  0  0  0  0  0  0  0  0
   41.5310   -1.9370   12.7070 O   0  0  0  0  0  0  0  0  0  0  0  0
   39.7180   -3.4130   13.0450 C   0  0  0  0  0  0  0  0  0  0  0  0
   38.8930   -4.3500   12.4140 C   0  0  0  0  0  0  0  0  0  0  0  0
   37.5530   -4.4590   12.8110 C   0  0  0  0  0  0  0  0  0  0  0  0
   36.6150   -5.4190   12.1740 C   0  0  0  0  0  0  0  0  0  0  0  0
   35.7730   -5.9780   12.8650 O   0  0  0  0  0  0  0  0  0  0  0  0
   36.7320   -5.5930   10.8140 N   0  0  0  0  0  0  0  0  0  0  0  0
   35.7990   -6.4440   10.0790 C   0  0  2  0  0  0  0  0  0  0  0  0
   36.5520   -7.5960    9.4050 C   0  0  0  0  0  0  0  0  0  0  0  0
   34.9710   -5.5750    9.1450 C   0  0  0  0  0  0  0  0  0  0  0  0
   35.4390   -5.0990    7.9120 C   0  0  0  0  0  0  0  0  0  0  0  0
   34.6300   -4.2990    7.1000 C   0  0  0  0  0  0  0  0  0  0  0  0
   33.3440   -3.9570    7.5110 C   0  0  0  0  0  0  0  0  0  0  0  0
   32.8640   -4.4120    8.7340 C   0  0  0  0  0  0  0  0  0  0  0  0
   33.6690   -5.2150    9.5440 C   0  0  0  0  0  0  0  0  0  0  0  0
   37.0500   -3.6460   13.8380 C   0  0  0  0  0  0  0  0  0  0  0  0
   37.8890   -2.7550   14.5050 C   0  0  0  0  0  0  0  0  0  0  0  0
   37.3950   -1.7950   15.4680 N   0  0  0  0  0  0  0  0  0  0  0  0
   36.8860   -0.5170   14.9070 C   0  0  0  0  0  0  0  0  0  0  0  0
   38.4150   -1.6400   16.8440 S   0  0  0  0  0  0  0  0  0  0  0  0
   37.3870   -0.7230   17.9750 C   0  0  0  0  0  0  0  0  0  0  0  0
   39.5530   -0.8310   16.4710 O   0  0  0  0  0  0  0  0  0  0  0  0
   38.6200   -2.9640   17.4170 O   0  0  0  0  0  0  0  0  0  0  0  0
   39.2220   -2.6540   14.1120 C   0  0  0  0  0  0  0  0  0  0  0  0
   45.1480    0.6600   10.7650 C   0  0  1  0  0  0  0  0  0  0  0  0
   44.0170    1.0450   11.7080 C   0  0  0  0  0  0  0  0  0  0  0  0
   46.3720    1.2960   11.1930 O   0  0  0  0  0  0  0  0  0  0  0  0
   48.3527   -0.8995   16.7012 H   0  0  0  0  0  0  0  0  0  0  0  0
   46.8973   -1.5058   15.8405 H   0  0  0  0  0  0  0  0  0  0  0  0
   48.4096   -2.4751   15.8405 H   0  0  0  0  0  0  0  0  0  0  0  0
   49.5398   -0.5752   14.5719 H   0  0  0  0  0  0  0  0  0  0  0  0
   47.5976    1.0152   15.4682 H   0  0  0  0  0  0  0  0  0  0  0  0
   48.4462    1.3240   13.9153 H   0  0  0  0  0  0  0  0  0  0  0  0
   46.8309    0.5381   13.9153 H   0  0  0  0  0  0  0  0  0  0  0  0
   48.9679   -1.5051   12.5983 H   0  0  0  0  0  0  0  0  0  0  0  0
   48.0714   -2.6633   13.6868 H   0  0  0  0  0  0  0  0  0  0  0  0
   46.0610   -1.4240   13.2550 H   0  0  0  0  0  0  0  0  0  0  0  0
   45.4087   -1.2677    9.7320 H   0  0  0  0  0  0  0  0  0  0  0  0
   44.7140   -2.1990   12.1470 H   0  0  0  0  0  0  0  0  0  0  0  0
   43.8800   -0.7960   12.2310 H   0  0  0  0  0  0  0  0  0  0  0  0
   42.1763   -1.6671   11.0809 H   0  0  0  0  0  0  0  0  0  0  0  0
   43.3198   -2.0459    9.7268 H   0  0  0  0  0  0  0  0  0  0  0  0
   43.8567   -3.8953   11.8234 H   0  0  0  0  0  0  0  0  0  0  0  0
   43.0829   -3.9066    8.9884 H   0  0  0  0  0  0  0  0  0  0  0  0
   44.2411   -4.9640    9.9407 H   0  0  0  0  0  0  0  0  0  0  0  0
   42.8702   -6.5498   11.6876 H   0  0  0  0  0  0  0  0  0  0  0  0
   41.2350   -8.4243   11.5917 H   0  0  0  0  0  0  0  0  0  0  0  0
   39.7194   -8.6606    9.6268 H   0  0  0  0  0  0  0  0  0  0  0  0
   39.8785   -7.0499    7.7320 H   0  0  0  0  0  0  0  0  0  0  0  0
   41.5180   -5.1781    7.8125 H   0  0  0  0  0  0  0  0  0  0  0  0
   41.2770   -4.8260   11.5030 H   0  0  0  0  0  0  0  0  0  0  0  0
   39.2910   -4.9937   11.6157 H   0  0  0  0  0  0  0  0  0  0  0  0
   37.3250   -4.9920   10.2610 H   0  0  0  0  0  0  0  0  0  0  0  0
   35.0825   -6.9360   10.7532 H   0  0  0  0  0  0  0  0  0  0  0  0
   36.9817   -8.2534   10.1751 H   0  0  0  0  0  0  0  0  0  0  0  0
   35.8556   -8.1721    8.7780 H   0  0  0  0  0  0  0  0  0  0  0  0
   37.3592   -7.1893    8.7780 H   0  0  0  0  0  0  0  0  0  0  0  0
   36.4550   -5.3582    7.5797 H   0  0  0  0  0  0  0  0  0  0  0  0
   35.0104   -3.9383    6.1330 H   0  0  0  0  0  0  0  0  0  0  0  0
   32.7093   -3.3282    6.8693 H   0  0  0  0  0  0  0  0  0  0  0  0
   31.8504   -4.1394    9.0632 H   0  0  0  0  0  0  0  0  0  0  0  0
   33.2804   -5.5722   10.5091 H   0  0  0  0  0  0  0  0  0  0  0  0
   35.9883   -3.7121   14.1181 H   0  0  0  0  0  0  0  0  0  0  0  0
   36.6155    0.1622   15.7288 H   0  0  0  0  0  0  0  0  0  0  0  0
   37.6672   -0.0512   14.2884 H   0  0  0  0  0  0  0  0  0  0  0  0
   35.9984   -0.7158   14.2884 H   0  0  0  0  0  0  0  0  0  0  0  0
   37.6666   -0.9724   19.0092 H   0  0  0  0  0  0  0  0  0  0  0  0
   37.5278    0.3549   17.8069 H   0  0  0  0  0  0  0  0  0  0  0  0
   36.3321   -0.9856   17.8069 H   0  0  0  0  0  0  0  0  0  0  0  0
   39.8945   -1.9680   14.6478 H   0  0  0  0  0  0  0  0  0  0  0  0
   44.8525    0.9851    9.7566 H   0  0  0  0  0  0  0  0  0  0  0  0
   44.3528    0.9307   12.7492 H   0  0  0  0  0  0  0  0  0  0  0  0
   43.7298    2.0915   11.5281 H   0  0  0  0  0  0  0  0  0  0  0  0
   43.1510    0.3910   11.5281 H   0  0  0  0  0  0  0  0  0  0  0  0
   46.6510    1.9030   10.4760 H   0  0  0  0  0  0  0  0  0  0  0  0
  1  2  1  0
  2  3  1  0
  2  4  1  0
  4  5  1  0
  5  6  1  0
  6  7  2  0
  6  8  1  0
  8  9  1  0
  9 10  1  0
 10 11  1  0
 11 12  1  0
 12 13  1  0
 13 14  2  0
 14 15  1  0
 15 16  2  0
 16 17  1  0
 17 18  2  0
 11 19  1  0
 19 20  1  0
 20 21  2  0
 20 22  1  0
 22 23  2  0
 23 24  1  0
 24 25  1  0
 25 26  2  0
 25 27  1  0
 27 28  1  0
 28 29  1  0
 28 30  1  0
 30 31  2  0
 31 32  1  0
 32 33  2  0
 33 34  1  0
 34 35  2  0
 24 36  2  0
 36 37  1  0
 37 38  1  0
 38 39  1  0
 38 40  1  0
 40 41  1  0
 40 42  2  0
 40 43  2  0
 37 44  2  0
  8 45  1  0
 45 46  1  0
 45 47  1  0
 18 13  1  0
 44 22  1  0
 35 30  1  0
  1 48  1  0
  1 49  1  0
  1 50  1  0
  2 51  1  0
  3 52  1  0
  3 53  1  0
  3 54  1  0
  4 55  1  0
  4 56  1  0
  5 57  1  0
  8 58  1  6
  9 59  1  0
  9 60  1  0
 10 61  1  0
 10 62  1  0
 11 63  1  1
 12 64  1  0
 12 65  1  0
 14 66  1  0
 15 67  1  0
 16 68  1  0
 17 69  1  0
 18 70  1  0
 19 71  1  0
 23 72  1  0
 27 73  1  0
 28 74  1  1
 29 75  1  0
 29 76  1  0
 29 77  1  0
 31 78  1  0
 32 79  1  0
 33 80  1  0
 34 81  1  0
 35 82  1  0
 36 83  1  0
 39 84  1  0
 39 85  1  0
 39 86  1  0
 41 87  1  0
 41 88  1  0
 41 89  1  0
 44 90  1  0
 45 91  1  6
 46 92  1  0
 46 93  1  0
 46 94  1  0
 47 95  1  0
M  CHG  1   9   1
M  END
>  <meeko>  (2) 
{"is_sidechain": [false], "free_energy": -10.79, "intermolecular_energy": -20.559, "internal_energy": -1.357}

$$$$
4gid_ligand
     RDKit          3D

 95 97  0  0  0  0  0  0  0  0999 V2000
   48.4610   -0.3870   17.3280 C   0  0  0  0  0  0  0  0  0  0  0  0
   47.7550   -0.5730   15.9830 C   0  0  0  0  0  0  0  0  0  0  0  0
   48.1790   -1.9030   15.3570 C   0  0  0  0  0  0  0  0  0  0  0  0
   48.0540    0.6280   15.0730 C   0  0  0  0  0  0  0  0  0  0  0  0
   46.9690    0.9360   14.1520 N   0  0  0  0  0  0  0  0  0  0  0  0
   47.1870    1.0800   12.8000 C   0  0  0  0  0  0  0  0  0  0  0  0
   48.3080    1.0510   12.2960 O   0  0  0  0  0  0  0  0  0  0  0  0
   45.9470    1.4040   11.9540 C   0  0  1  0  0  0  0  0  0  0  0  0
   44.7340    0.5240   12.2810 N   0  0  0  0  0  0  0  0  0  0  0  0
   44.0410   -0.1980   11.1600 C   0  0  0  0  0  0  0  0  0  0  0  0
   43.8540   -1.7080   11.4810 C   0  0  2  0  0  0  0  0  0  0  0  0
   44.4280   -2.6080   10.3600 C   0  0  0  0  0  0  0  0  0  0  0  0
   45.9340   -2.7330   10.3680 C   0  0  0  0  0  0  0  0  0  0  0  0
   46.6540   -2.4640   11.5430 C   0  0  0  0  0  0  0  0  0  0  0  0
   48.0370   -2.6360   11.5820 C   0  0  0  0  0  0  0  0  0  0  0  0
   48.7170   -3.0700   10.4460 C   0  0  0  0  0  0  0  0  0  0  0  0
   48.0160   -3.3150    9.2680 C   0  0  0  0  0  0  0  0  0  0  0  0
   46.6330   -3.1410    9.2240 C   0  0  0  0  0  0  0  0  0  0  0  0
   42.4460   -2.0440   11.7760 N   0  0  0  0  0  0  0  0  0  0  0  0
   42.0750   -3.2930   12.2160 C   0  0  0  0  0  0  0  0  0  0  0  0
   42.9190   -4.1780   12.3460 O   0  0  0  0  0  0  0  0  0  0  0  0
   40.6950   -3.4810   12.7330 C   0  0  0  0  0  0  0  0  0  0  0  0
   39.7950   -4.4190   12.2170 C   0  0  0  0  0  0  0  0  0  0  0  0
   38.4600   -4.3920   12.6440 C   0  0  0  0  0  0  0  0  0  0  0  0
   37.4450   -5.3460   12.1260 C   0  0  0  0  0  0  0  0  0  0  0  0
   36.4380   -5.5630   12.7880 O   0  0  0  0  0  0  0  0  0  0  0  0
   37.6890   -5.9060   10.8930 N   0  0  0  0  0  0  0  0  0  0  0  0
   36.7110   -6.7840   10.2560 C   0  0  2  0  0  0  0  0  0  0  0  0
   37.4250   -7.9070    9.4950 C   0  0  0  0  0  0  0  0  0  0  0  0
   35.7590   -5.9390    9.4240 C   0  0  0  0  0  0  0  0  0  0  0  0
   34.4860   -5.5500    9.8640 C   0  0  0  0  0  0  0  0  0  0  0  0
   33.6530   -4.7760    9.0500 C   0  0  0  0  0  0  0  0  0  0  0  0
   34.0770   -4.3870    7.7820 C   0  0  0  0  0  0  0  0  0  0  0  0
   35.3320   -4.7710    7.3230 C   0  0  0  0  0  0  0  0  0  0  0  0
   36.1670   -5.5390    8.1370 C   0  0  0  0  0  0  0  0  0  0  0  0
   38.0370   -3.4440   13.5870 C   0  0  0  0  0  0  0  0  0  0  0  0
   38.9490   -2.5480   14.1430 C   0  0  0  0  0  0  0  0  0  0  0  0
   38.5430   -1.4610   15.0060 N   0  0  0  0  0  0  0  0  0  0  0  0
   39.4350   -1.1820   16.1610 C   0  0  0  0  0  0  0  0  0  0  0  0
   36.8610   -1.4830   15.3660 S   0  0  0  0  0  0  0  0  0  0  0  0
   36.7440   -0.3100   16.7020 C   0  0  0  0  0  0  0  0  0  0  0  0
   36.5230   -2.8000   15.8570 O   0  0  0  0  0  0  0  0  0  0  0  0
   36.1390   -0.9250   14.2290 O   0  0  0  0  0  0  0  0  0  0  0  0
   40.2760   -2.5820   13.7210 C   0  0  0  0  0  0  0  0  0  0  0  0
   45.4800    2.8660   12.1430 C   0  0  1  0  0  0  0  0  0  0  0  0
   44.2420    2.9580   13.0230 C   0  0  0  0  0  0  0  0  0  0  0  0
   46.5670    3.5900   12.7600 O   0  0  0  0  0  0  0  0  0  0  0  0
   47.7488   -0.5746   18.1450 H   0  0  0  0  0  0  0  0  0  0  0  0
   49.2997   -1.0948   17.4029 H   0  0  0  0  0  0  0  0  0  0  0  0
   48.8420    0.6422   17.4029 H   0  0  0  0  0  0  0  0  0  0  0  0
   46.6651   -0.6127   16.1263 H   0  0  0  0  0  0  0  0  0  0  0  0
   48.4095   -2.6261   16.1533 H   0  0  0  0  0  0  0  0  0  0  0  0
   47.3605   -2.2924   14.7338 H   0  0  0  0  0  0  0  0  0  0  0  0
   49.0719   -1.7468   14.7338 H   0  0  0  0  0  0  0  0  0  0  0  0
   48.2356    1.5091   15.7059 H   0  0  0  0  0  0  0  0  0  0  0  0
   48.9330    0.3662   14.4656 H   0  0  0  0  0  0  0  0  0  0  0  0
   46.0310    0.7360   14.5110 H   0  0  0  0  0  0  0  0  0  0  0  0
   46.2792    1.2169   10.9222 H   0  0  0  0  0  0  0  0  0  0  0  0
   45.1090   -0.1750   12.9470 H   0  0  0  0  0  0  0  0  0  0  0  0
   44.0550    1.0690   12.8450 H   0  0  0  0  0  0  0  0  0  0  0  0
   43.0529    0.2577   10.9987 H   0  0  0  0  0  0  0  0  0  0  0  0
   44.6648   -0.1126   10.2580 H   0  0  0  0  0  0  0  0  0  0  0  0
   44.4317   -1.9108   12.3949 H   0  0  0  0  0  0  0  0  0  0  0  0
   43.9988   -3.6144   10.4735 H   0  0  0  0  0  0  0  0  0  0  0  0
   44.1581   -2.1312    9.4062 H   0  0  0  0  0  0  0  0  0  0  0  0
   46.1224   -2.1146   12.4404 H   0  0  0  0  0  0  0  0  0  0  0  0
   48.5912   -2.4291   12.5094 H   0  0  0  0  0  0  0  0  0  0  0  0
   49.8064   -3.2189   10.4796 H   0  0  0  0  0  0  0  0  0  0  0  0
   48.5552   -3.6471    8.3686 H   0  0  0  0  0  0  0  0  0  0  0  0
   46.0880   -3.3250    8.2864 H   0  0  0  0  0  0  0  0  0  0  0  0
   41.8220   -1.2630   11.9490 H   0  0  0  0  0  0  0  0  0  0  0  0
   40.1305   -5.1686   11.4852 H   0  0  0  0  0  0  0  0  0  0  0  0
   38.4440   -5.5740   10.3110 H   0  0  0  0  0  0  0  0  0  0  0  0
   36.0878   -7.3031   10.9991 H   0  0  0  0  0  0  0  0  0  0  0  0
   37.8720   -8.6101   10.2133 H   0  0  0  0  0  0  0  0  0  0  0  0
   36.6997   -8.4403    8.8628 H   0  0  0  0  0  0  0  0  0  0  0  0
   38.2156   -7.4765    8.8628 H   0  0  0  0  0  0  0  0  0  0  0  0
   34.1383   -5.8573   10.8613 H   0  0  0  0  0  0  0  0  0  0  0  0
   32.6595   -4.4735    9.4126 H   0  0  0  0  0  0  0  0  0  0  0  0
   33.4202   -3.7769    7.1445 H   0  0  0  0  0  0  0  0  0  0  0  0
   35.6668   -4.4700    6.3194 H   0  0  0  0  0  0  0  0  0  0  0  0
   37.1593   -5.8363    7.7670 H   0  0  0  0  0  0  0  0  0  0  0  0
   36.9801   -3.4072   13.8895 H   0  0  0  0  0  0  0  0  0  0  0  0
   38.8857   -1.3538   17.0984 H   0  0  0  0  0  0  0  0  0  0  0  0
   40.3080   -1.8500   16.1198 H   0  0  0  0  0  0  0  0  0  0  0  0
   39.7717   -0.1356   16.1198 H   0  0  0  0  0  0  0  0  0  0  0  0
   36.7971   -0.8424   17.6631 H   0  0  0  0  0  0  0  0  0  0  0  0
   37.5750    0.4074   16.6339 H   0  0  0  0  0  0  0  0  0  0  0  0
   35.7876    0.2292   16.6339 H   0  0  0  0  0  0  0  0  0  0  0  0
   41.0055   -1.8923   14.1707 H   0  0  0  0  0  0  0  0  0  0  0  0
   45.2130    3.2912   11.1643 H   0  0  0  0  0  0  0  0  0  0  0  0
   44.5418    2.9357   14.0811 H   0  0  0  0  0  0  0  0  0  0  0  0
   43.7112    3.8981   12.8120 H   0  0  0  0  0  0  0  0  0  0  0  0
   43.5781    2.1067   12.8120 H   0  0  0  0  0  0  0  0  0  0  0  0
   46.6200    4.4640   12.3230 H   0  0  0  0  0  0  0  0  0  0  0  0
  1  2  1  0
  2  3  1  0
  2  4  1  0
  4  5  1  0
  5  6  1  0
  6  7  2  0
  6  8  1  0
  8  9  1  0
  9 10  1  0
 10 11  1  0
 11 12  1  0
 12 13  1  0
 13 14  2  0
 14 15  1  0
 15 16  2  0
 16 17  1  0
 17 18  2  0
 11 19  1  0
 19 20  1  0
 20 21  2  0
 20 22  1  0
 22 23  2  0
 23 24  1  0
 24 25  1  0
 25 26  2  0
 25 27  1  0
 27 28  1  0
 28 29  1  0
 28 30  1  0
 30 31  2  0
 31 32  1  0
 32 33  2  0
 33 34  1  0
 34 35  2  0
 24 36  2  0
 36 37  1  0
 37 38  1  0
 38 39  1  0
 38 40  1  0
 40 41  1  0
 40 42  2  0
 40 43  2  0
 37 44  2  0
  8 45  1  0
 45 46  1  0
 45 47  1  0
 18 13  1  0
 44 22  1  0
 35 30  1  0
  1 48  1  0
  1 49  1  0
  1 50  1  0
  2 51  1  0
  3 52  1  0
  3 53  1  0
  3 54  1  0
  4 55  1  0
  4 56  1  0
  5 57  1  0
  8 58  1  6
  9 59  1  0
  9 60  1  0
 10 61  1  0
 10 62  1  0
 11 63  1  1
 12 64  1  0
 12 65  1  0
 14 66  1  0
 15 67  1  0
 16 68  1  0
 17 69  1  0
 18 70  1  0
 19 71  1  0
 23 72  1  0
 27 73  1  0
 28 74  1  1
 29 75  1  0
 29 76  1  0
 29 77  1  0
 31 78  1  0
 32 79  1  0
 33 80  1  0
 34 81  1  0
 35 82  1  0
 36 83  1  0
 39 84  1  0
 39 85  1  0
 39 86  1  0
 41 87  1  0
 41 88  1  0
 41 89  1  0
 44 90  1  0
 45 91  1  6
 46 92  1  0
 46 93  1  0
 46 94  1  0
 47 95  1  0
M  CHG  1   9   1
M  END
>  <meeko>  (3) 
{"is_sidechain": [false], "free_energy": -9.933, "intermolecular_energy": -18.396, "internal_energy": -1.835}

$$$$
4gid_ligand
     RDKit          3D

 95 97  0  0  0  0  0  0  0  0999 V2000
   32.2560   -5.5560   14.5940 C   0  0  0  0  0  0  0  0  0  0  0  0
   33.7300   -5.8190   14.9140 C   0  0  0  0  0  0  0  0  0  0  0  0
   34.0980   -7.2480   14.5120 C   0  0  0  0  0  0  0  0  0  0  0  0
   33.9930   -5.5390   16.4010 C   0  0  0  0  0  0  0  0  0  0  0  0
   35.0190   -4.5290   16.6230 N   0  0  0  0  0  0  0  0  0  0  0  0
   34.7140   -3.1880   16.6750 C   0  0  0  0  0  0  0  0  0  0  0  0
   33.5880   -2.7480   16.4490 O   0  0  0  0  0  0  0  0  0  0  0  0
   35.9000   -2.2420   16.9150 C   0  0  1  0  0  0  0  0  0  0  0  0
   36.1370   -1.2520   15.7670 N   0  0  0  0  0  0  0  0  0  0  0  0
   37.0620   -1.6480   14.6510 C   0  0  0  0  0  0  0  0  0  0  0  0
   38.3550   -2.3230   15.1900 C   0  0  2  0  0  0  0  0  0  0  0  0
   39.2370   -1.3250   15.9760 C   0  0  0  0  0  0  0  0  0  0  0  0
   39.5610   -1.7540   17.3890 C   0  0  0  0  0  0  0  0  0  0  0  0
   39.6060   -3.1190   17.7140 C   0  0  0  0  0  0  0  0  0  0  0  0
   39.9640   -3.5310   18.9970 C   0  0  0  0  0  0  0  0  0  0  0  0
   40.2730   -2.5840   19.9710 C   0  0  0  0  0  0  0  0  0  0  0  0
   40.2060   -1.2270   19.6670 C   0  0  0  0  0  0  0  0  0  0  0  0
   39.8450   -0.8110   18.3850 C   0  0  0  0  0  0  0  0  0  0  0  0
   39.1200   -2.9940   14.1190 N   0  0  0  0  0  0  0  0  0  0  0  0
   40.1590   -2.3690   13.4690 C   0  0  0  0  0  0  0  0  0  0  0  0
   40.4550   -1.2090   13.7520 O   0  0  0  0  0  0  0  0  0  0  0  0
   41.0380   -3.1830   12.5920 C   0  0  0  0  0  0  0  0  0  0  0  0
   42.2240   -2.7050   12.0230 C   0  0  0  0  0  0  0  0  0  0  0  0
   42.8840   -3.4830   11.0630 C   0  0  0  0  0  0  0  0  0  0  0  0
   44.1370   -3.0320   10.4050 C   0  0  0  0  0  0  0  0  0  0  0  0
   44.2590   -3.1710    9.1950 O   0  0  0  0  0  0  0  0  0  0  0  0
   45.0840   -2.4400   11.2090 N   0  0  0  0  0  0  0  0  0  0  0  0
   46.3100   -1.8800   10.6470 C   0  0  2  0  0  0  0  0  0  0  0  0
   47.4170   -2.9390   10.6330 C   0  0  0  0  0  0  0  0  0  0  0  0
   46.6490   -0.5950   11.3850 C   0  0  0  0  0  0  0  0  0  0  0  0
   47.5360   -0.5360   12.4690 C   0  0  0  0  0  0  0  0  0  0  0  0
   47.8040    0.6770   13.1100 C   0  0  0  0  0  0  0  0  0  0  0  0
   47.1830    1.8480   12.6830 C   0  0  0  0  0  0  0  0  0  0  0  0
   46.2920    1.8100   11.6150 C   0  0  0  0  0  0  0  0  0  0  0  0
   46.0290    0.6000   10.9710 C   0  0  0  0  0  0  0  0  0  0  0  0
   42.3670   -4.7330   10.6870 C   0  0  0  0  0  0  0  0  0  0  0  0
   41.2180   -5.2320   11.2970 C   0  0  0  0  0  0  0  0  0  0  0  0
   40.5640   -6.4420   10.8500 N   0  0  0  0  0  0  0  0  0  0  0  0
   40.2790   -7.4520   11.9010 C   0  0  0  0  0  0  0  0  0  0  0  0
   41.2320   -7.0660    9.3930 S   0  0  0  0  0  0  0  0  0  0  0  0
   40.1880   -8.4740    9.0700 C   0  0  0  0  0  0  0  0  0  0  0  0
   42.5750   -7.5230    9.6730 O   0  0  0  0  0  0  0  0  0  0  0  0
   41.0010   -6.0980    8.3290 O   0  0  0  0  0  0  0  0  0  0  0  0
   40.5680   -4.4590   12.2560 C   0  0  0  0  0  0  0  0  0  0  0  0
   35.7100   -1.3840   18.1880 C   0  0  1  0  0  0  0  0  0  0  0  0
   36.3860   -2.0090   19.4000 C   0  0  0  0  0  0  0  0  0  0  0  0
   36.2910   -0.0880   17.9260 O   0  0  0  0  0  0  0  0  0  0  0  0
   31.6896   -5.4549   15.5316 H   0  0  0  0  0  0  0  0  0  0  0  0
   32.1675   -4.6279   14.0103 H   0  0  0  0  0  0  0  0  0  0  0  0
   31.8519   -6.3962   14.0103 H   0  0  0  0  0  0  0  0  0  0  0  0
   34.3735   -5.1411   14.3341 H   0  0  0  0  0  0  0  0  0  0  0  0
   34.2542   -7.8546   15.4162 H   0  0  0  0  0  0  0  0  0  0  0  0
   33.2825   -7.6826   13.9153 H   0  0  0  0  0  0  0  0  0  0  0  0
   35.0220   -7.2346   13.9153 H   0  0  0  0  0  0  0  0  0  0  0  0
   33.0563   -5.1929   16.8624 H   0  0  0  0  0  0  0  0  0  0  0  0
   34.3542   -6.4757   16.8507 H   0  0  0  0  0  0  0  0  0  0  0  0
   35.8890   -4.8830   17.0320 H   0  0  0  0  0  0  0  0  0  0  0  0
   36.7605   -2.9206   17.0097 H   0  0  0  0  0  0  0  0  0  0  0  0
   35.1910   -1.0960   15.3770 H   0  0  0  0  0  0  0  0  0  0  0  0
   36.4040   -0.3290   16.1580 H   0  0  0  0  0  0  0  0  0  0  0  0
   36.5402   -2.3545   13.9888 H   0  0  0  0  0  0  0  0  0  0  0  0
   37.3514   -0.7378   14.1053 H   0  0  0  0  0  0  0  0  0  0  0  0
   38.0342   -3.1047   15.8943 H   0  0  0  0  0  0  0  0  0  0  0  0
   40.1833   -1.1984   15.4297 H   0  0  0  0  0  0  0  0  0  0  0  0
   38.6592   -0.3924   16.0565 H   0  0  0  0  0  0  0  0  0  0  0  0
   39.3567   -3.8700   16.9499 H   0  0  0  0  0  0  0  0  0  0  0  0
   40.0024   -4.6031   19.2400 H   0  0  0  0  0  0  0  0  0  0  0  0
   40.5697   -2.9082   20.9794 H   0  0  0  0  0  0  0  0  0  0  0  0
   40.4385   -0.4801   20.4403 H   0  0  0  0  0  0  0  0  0  0  0  0
   39.7831    0.2630   18.1554 H   0  0  0  0  0  0  0  0  0  0  0  0
   39.0730   -4.0070   14.0960 H   0  0  0  0  0  0  0  0  0  0  0  0
   42.6331   -1.7299   12.3260 H   0  0  0  0  0  0  0  0  0  0  0  0
   44.8740   -2.1960   12.1660 H   0  0  0  0  0  0  0  0  0  0  0  0
   46.1801   -1.5989    9.5915 H   0  0  0  0  0  0  0  0  0  0  0  0
   47.6888   -3.1990   11.6667 H   0  0  0  0  0  0  0  0  0  0  0  0
   47.0577   -3.8382   10.1111 H   0  0  0  0  0  0  0  0  0  0  0  0
   48.2994   -2.5402   10.1111 H   0  0  0  0  0  0  0  0  0  0  0  0
   48.0272   -1.4557   12.8195 H   0  0  0  0  0  0  0  0  0  0  0  0
   48.5080    0.7066   13.9547 H   0  0  0  0  0  0  0  0  0  0  0  0
   47.3964    2.8011   13.1890 H   0  0  0  0  0  0  0  0  0  0  0  0
   45.7956    2.7322   11.2787 H   0  0  0  0  0  0  0  0  0  0  0  0
   45.3255    0.5793   10.1256 H   0  0  0  0  0  0  0  0  0  0  0  0
   42.8717   -5.3215    9.9067 H   0  0  0  0  0  0  0  0  0  0  0  0
   40.4079   -6.9950   12.8933 H   0  0  0  0  0  0  0  0  0  0  0  0
   39.2446   -7.8106   11.7941 H   0  0  0  0  0  0  0  0  0  0  0  0
   40.9734   -8.2984   11.7941 H   0  0  0  0  0  0  0  0  0  0  0  0
   39.8613   -8.9146   10.0235 H   0  0  0  0  0  0  0  0  0  0  0  0
   39.3077   -8.1532    8.4936 H   0  0  0  0  0  0  0  0  0  0  0  0
   40.7507   -9.2231    8.4936 H   0  0  0  0  0  0  0  0  0  0  0  0
   39.6727   -4.8562   12.7567 H   0  0  0  0  0  0  0  0  0  0  0  0
   34.6370   -1.3088   18.4183 H   0  0  0  0  0  0  0  0  0  0  0  0
   35.9425   -1.5989   20.3193 H   0  0  0  0  0  0  0  0  0  0  0  0
   36.2423   -3.0994   19.3783 H   0  0  0  0  0  0  0  0  0  0  0  0
   37.4618   -1.7804   19.3783 H   0  0  0  0  0  0  0  0  0  0  0  0
   35.8820    0.2520   17.1030 H   0  0  0  0  0  0  0  0  0  0  0  0
  1  2  1  0
  2  3  1  0
  2  4  1  0
  4  5  1  0
  5  6  1  0
  6  7  2  0
  6  8  1  0
  8  9  1  0
  9 10  1  0
 10 11  1  0
 11 12  1  0
 12 13  1  0
 13 14  2  0
 14 15  1  0
 15 16  2  0
 16 17  1  0
 17 18  2  0
 11 19  1  0
 19 20  1  0
 20 21  2  0
 20 22  1  0
 22 23  2  0
 23 24  1  0
 24 25  1  0
 25 26  2  0
 25 27  1  0
 27 28  1  0
 28 29  1  0
 28 30  1  0
 30 31  2  0
 31 32  1  0
 32 33  2  0
 33 34  1  0
 34 35  2  0
 24 36  2  0
 36 37  1  0
 37 38  1  0
 38 39  1  0
 38 40  1  0
 40 41  1  0
 40 42  2  0
 40 43  2  0
 37 44  2  0
  8 45  1  0
 45 46  1  0
 45 47  1  0
 18 13  1  0
 44 22  1  0
 35 30  1  0
  1 48  1  0
  1 49  1  0
  1 50  1  0
  2 51  1  0
  3 52  1  0
  3 53  1  0
  3 54  1  0
  4 55  1  0
  4 56  1  0
  5 57  1  0
  8 58  1  1
  9 59  1  0
  9 60  1  0
 10 61  1  0
 10 62  1  0
 11 63  1  1
 12 64  1  0
 12 65  1  0
 14 66  1  0
 15 67  1  0
 16 68  1  0
 17 69  1  0
 18 70  1  0
 19 71  1  0
 23 72  1  0
 27 73  1  0
 28 74  1  6
 29 75  1  0
 29 76  1  0
 29 77  1  0
 31 78  1  0
 32 79  1  0
 33 80  1  0
 34 81  1  0
 35 82  1  0
 36 83  1  0
 39 84  1  0
 39 85  1  0
 39 86  1  0
 41 87  1  0
 41 88  1  0
 41 89  1  0
 44 90  1  0
 45 91  1  1
 46 92  1  0
 46 93  1  0
 46 94  1  0
 47 95  1  0
M  CHG  1   9   1
M  END
>  <meeko>  (4) 
{"is_sidechain": [false], "free_energy": -9.593, "intermolecular_energy": -18.125, "internal_energy": -1.438}

$$$$
4gid_ligand
     RDKit          3D

 95 97  0  0  0  0  0  0  0  0999 V2000
   33.5070   -4.9950    9.2710 C   0  0  0  0  0  0  0  0  0  0  0  0
   35.0200   -4.9460    9.0480 C   0  0  0  0  0  0  0  0  0  0  0  0
   35.3170   -4.6360    7.5810 C   0  0  0  0  0  0  0  0  0  0  0  0
   35.6520   -6.2670    9.5120 C   0  0  0  0  0  0  0  0  0  0  0  0
   37.0430   -6.1270    9.9210 N   0  0  0  0  0  0  0  0  0  0  0  0
   37.9050   -7.2000    9.9320 C   0  0  0  0  0  0  0  0  0  0  0  0
   37.5440   -8.3500    9.6910 O   0  0  0  0  0  0  0  0  0  0  0  0
   39.3400   -6.9000   10.3870 C   0  0  1  0  0  0  0  0  0  0  0  0
   39.4500   -6.5400   11.8740 N   0  0  0  0  0  0  0  0  0  0  0  0
   40.5800   -5.6570   12.3240 C   0  0  0  0  0  0  0  0  0  0  0  0
   40.1730   -4.1560   12.3150 C   0  0  2  0  0  0  0  0  0  0  0  0
   41.3980   -3.2290   12.4980 C   0  0  0  0  0  0  0  0  0  0  0  0
   42.3310   -3.1820   11.3090 C   0  0  0  0  0  0  0  0  0  0  0  0
   43.5510   -2.4950   11.4030 C   0  0  0  0  0  0  0  0  0  0  0  0
   44.4480   -2.4950   10.3360 C   0  0  0  0  0  0  0  0  0  0  0  0
   44.1330   -3.1730    9.1610 C   0  0  0  0  0  0  0  0  0  0  0  0
   42.9130   -3.8360    9.0470 C   0  0  0  0  0  0  0  0  0  0  0  0
   42.0110   -3.8360   10.1120 C   0  0  0  0  0  0  0  0  0  0  0  0
   39.1180   -3.8610   13.3060 N   0  0  0  0  0  0  0  0  0  0  0  0
   37.7850   -3.8660   12.9690 C   0  0  0  0  0  0  0  0  0  0  0  0
   37.4420   -4.0900   11.8080 O   0  0  0  0  0  0  0  0  0  0  0  0
   36.7770   -3.8140   14.0590 C   0  0  0  0  0  0  0  0  0  0  0  0
   35.6810   -4.6780   14.1440 C   0  0  0  0  0  0  0  0  0  0  0  0
   34.6870   -4.4300   15.1010 C   0  0  0  0  0  0  0  0  0  0  0  0
   33.4870   -5.2950   15.2370 C   0  0  0  0  0  0  0  0  0  0  0  0
   32.4940   -5.0490   14.5640 O   0  0  0  0  0  0  0  0  0  0  0  0
   33.5840   -6.3620   16.1010 N   0  0  0  0  0  0  0  0  0  0  0  0
   32.4940   -7.3240   16.2380 C   0  0  2  0  0  0  0  0  0  0  0  0
   31.6700   -7.0160   17.4920 C   0  0  0  0  0  0  0  0  0  0  0  0
   33.0670   -8.7310   16.1670 C   0  0  0  0  0  0  0  0  0  0  0  0
   32.3450   -9.8790   16.5260 C   0  0  0  0  0  0  0  0  0  0  0  0
   32.9300  -11.1460   16.4430 C   0  0  0  0  0  0  0  0  0  0  0  0
   34.2450  -11.2850   16.0080 C   0  0  0  0  0  0  0  0  0  0  0  0
   34.9810  -10.1580   15.6550 C   0  0  0  0  0  0  0  0  0  0  0  0
   34.3970   -8.8930   15.7330 C   0  0  0  0  0  0  0  0  0  0  0  0
   34.8000   -3.3350   15.9710 C   0  0  0  0  0  0  0  0  0  0  0  0
   35.9220   -2.5100   15.9230 C   0  0  0  0  0  0  0  0  0  0  0  0
   36.0240   -1.2900   16.6940 N   0  0  0  0  0  0  0  0  0  0  0  0
   37.2260   -0.4570   16.4340 C   0  0  0  0  0  0  0  0  0  0  0  0
   35.6260   -1.5100   18.3530 S   0  0  0  0  0  0  0  0  0  0  0  0
   36.5100   -0.1750   19.1350 C   0  0  0  0  0  0  0  0  0  0  0  0
   36.1870   -2.7710   18.7870 O   0  0  0  0  0  0  0  0  0  0  0  0
   34.2030   -1.2510   18.5240 O   0  0  0  0  0  0  0  0  0  0  0  0
   36.9110   -2.7630   14.9750 C   0  0  0  0  0  0  0  0  0  0  0  0
   40.2840   -8.1050   10.1670 C   0  0  1  0  0  0  0  0  0  0  0  0
   41.7340   -7.6710   10.0060 C   0  0  0  0  0  0  0  0  0  0  0  0
   40.1620   -8.9650   11.3210 O   0  0  0  0  0  0  0  0  0  0  0  0
   33.2955   -5.0018   10.3505 H   0  0  0  0  0  0  0  0  0  0  0  0
   33.0398   -4.1115    8.8114 H   0  0  0  0  0  0  0  0  0  0  0  0
   33.0980   -5.9069    8.8114 H   0  0  0  0  0  0  0  0  0  0  0  0
   35.4682   -4.1396    9.6470 H   0  0  0  0  0  0  0  0  0  0  0  0
   36.0768   -3.8429    7.5204 H   0  0  0  0  0  0  0  0  0  0  0  0
   35.6925   -5.5423    7.0834 H   0  0  0  0  0  0  0  0  0  0  0  0
   34.3954   -4.2997    7.0834 H   0  0  0  0  0  0  0  0  0  0  0  0
   35.0737   -6.6499   10.3658 H   0  0  0  0  0  0  0  0  0  0  0  0
   35.6318   -6.9568    8.6554 H   0  0  0  0  0  0  0  0  0  0  0  0
   37.4030   -5.1680    9.8980 H   0  0  0  0  0  0  0  0  0  0  0  0
   39.6342   -6.0387    9.7692 H   0  0  0  0  0  0  0  0  0  0  0  0
   38.5530   -6.0640   12.0790 H   0  0  0  0  0  0  0  0  0  0  0  0
   39.4100   -7.4070   12.4420 H   0  0  0  0  0  0  0  0  0  0  0  0
   40.8703   -5.9419   13.3460 H   0  0  0  0  0  0  0  0  0  0  0  0
   41.4193   -5.7898   11.6254 H   0  0  0  0  0  0  0  0  0  0  0  0
   39.7489   -3.9482   11.3215 H   0  0  0  0  0  0  0  0  0  0  0  0
   41.0320   -2.2093   12.6882 H   0  0  0  0  0  0  0  0  0  0  0  0
   41.9795   -3.6402   13.3363 H   0  0  0  0  0  0  0  0  0  0  0  0
   43.8015   -1.9520   12.3263 H   0  0  0  0  0  0  0  0  0  0  0  0
   45.4049   -1.9593   10.4221 H   0  0  0  0  0  0  0  0  0  0  0  0
   44.8466   -3.1850    8.3240 H   0  0  0  0  0  0  0  0  0  0  0  0
   42.6598   -4.3613    8.1143 H   0  0  0  0  0  0  0  0  0  0  0  0
   41.0446   -4.3517   10.0112 H   0  0  0  0  0  0  0  0  0  0  0  0
   39.3720   -3.9690   14.2820 H   0  0  0  0  0  0  0  0  0  0  0  0
   35.5996   -5.5420   13.4681 H   0  0  0  0  0  0  0  0  0  0  0  0
   34.4710   -6.6240   16.5070 H   0  0  0  0  0  0  0  0  0  0  0  0
   31.7772   -7.2441   15.4075 H   0  0  0  0  0  0  0  0  0  0  0  0
   32.2680   -7.2395   18.3878 H   0  0  0  0  0  0  0  0  0  0  0  0
   31.3896   -5.9523   17.4944 H   0  0  0  0  0  0  0  0  0  0  0  0
   30.7607   -7.6349   17.4944 H   0  0  0  0  0  0  0  0  0  0  0  0
   31.3070   -9.7811   16.8767 H   0  0  0  0  0  0  0  0  0  0  0  0
   32.3486  -12.0370   16.7227 H   0  0  0  0  0  0  0  0  0  0  0  0
   34.7014  -12.2837   15.9434 H   0  0  0  0  0  0  0  0  0  0  0  0
   36.0217  -10.2641   15.3149 H   0  0  0  0  0  0  0  0  0  0  0  0
   34.9854   -8.0075   15.4508 H   0  0  0  0  0  0  0  0  0  0  0  0
   33.9985   -3.1266   16.6950 H   0  0  0  0  0  0  0  0  0  0  0  0
   37.6719   -0.1480   17.3909 H   0  0  0  0  0  0  0  0  0  0  0  0
   37.9597   -1.0413   15.8593 H   0  0  0  0  0  0  0  0  0  0  0  0
   36.9365    0.4351   15.8593 H   0  0  0  0  0  0  0  0  0  0  0  0
   36.4406   -0.2798   20.2278 H   0  0  0  0  0  0  0  0  0  0  0  0
   37.5664   -0.2064   18.8300 H   0  0  0  0  0  0  0  0  0  0  0  0
   36.0687    0.7853   18.8300 H   0  0  0  0  0  0  0  0  0  0  0  0
   37.8093   -2.1288   14.9455 H   0  0  0  0  0  0  0  0  0  0  0  0
   39.9982   -8.6249    9.2407 H   0  0  0  0  0  0  0  0  0  0  0  0
   42.1884   -7.5350   10.9985 H   0  0  0  0  0  0  0  0  0  0  0  0
   42.2883   -8.4426    9.4516 H   0  0  0  0  0  0  0  0  0  0  0  0
   41.7732   -6.7217    9.4516 H   0  0  0  0  0  0  0  0  0  0  0  0
   40.7880   -8.6350   11.9980 H   0  0  0  0  0  0  0  0  0  0  0  0
  1  2  1  0
  2  3  1  0
  2  4  1  0
  4  5  1  0
  5  6  1  0
  6  7  2  0
  6  8  1  0
  8  9  1  0
  9 10  1  0
 10 11  1  0
 11 12  1  0
 12 13  1  0
 13 14  2  0
 14 15  1  0
 15 16  2  0
 16 17  1  0
 17 18  2  0
 11 19  1  0
 19 20  1  0
 20 21  2  0
 20 22  1  0
 22 23  2  0
 23 24  1  0
 24 25  1  0
 25 26  2  0
 25 27  1  0
 27 28  1  0
 28 29  1  0
 28 30  1  0
 30 31  2  0
 31 32  1  0
 32 33  2  0
 33 34  1  0
 34 35  2  0
 24 36  2  0
 36 37  1  0
 37 38  1  0
 38 39  1  0
 38 40  1  0
 40 41  1  0
 40 42  2  0
 40 43  2  0
 37 44  2  0
  8 45  1  0
 45 46  1  0
 45 47  1  0
 18 13  1  0
 44 22  1  0
 35 30  1  0
  1 48  1  0
  1 49  1  0
  1 50  1  0
  2 51  1  0
  3 52  1  0
  3 53  1  0
  3 54  1  0
  4 55  1  0
  4 56  1  0
  5 57  1  0
  8 58  1  6
  9 59  1  0
  9 60  1  0
 10 61  1  0
 10 62  1  0
 11 63  1  6
 12 64  1  0
 12 65  1  0
 14 66  1  0
 15 67  1  0
 16 68  1  0
 17 69  1  0
 18 70  1  0
 19 71  1  0
 23 72  1  0
 27 73  1  0
 28 74  1  6
 29 75  1  0
 29 76  1  0
 29 77  1  0
 31 78  1  0
 32 79  1  0
 33 80  1  0
 34 81  1  0
 35 82  1  0
 36 83  1  0
 39 84  1  0
 39 85  1  0
 39 86  1  0
 41 87  1  0
 41 88  1  0
 41 89  1  0
 44 90  1  0
 45 91  1  6
 46 92  1  0
 46 93  1  0
 46 94  1  0
 47 95  1  0
M  CHG  1   9   1
M  END
>  <meeko>  (5) 
{"is_sidechain": [false], "free_energy": -9.413, "intermolecular_energy": -16.641, "internal_energy": -2.57}

$$$$
4gid_ligand
     RDKit          3D

 95 97  0  0  0  0  0  0  0  0999 V2000
   38.8000   -4.7330   19.4490 C   0  0  0  0  0  0  0  0  0  0  0  0
   37.3260   -4.7820   19.8580 C   0  0  0  0  0  0  0  0  0  0  0  0
   36.7200   -6.1250   19.4500 C   0  0  0  0  0  0  0  0  0  0  0  0
   36.5810   -3.5870   19.2430 C   0  0  0  0  0  0  0  0  0  0  0  0
   36.0830   -3.8500   17.9000 N   0  0  0  0  0  0  0  0  0  0  0  0
   35.0460   -3.1240   17.3580 C   0  0  0  0  0  0  0  0  0  0  0  0
   34.4170   -2.2800   17.9930 O   0  0  0  0  0  0  0  0  0  0  0  0
   34.6300   -3.5150   15.9330 C   0  0  1  0  0  0  0  0  0  0  0  0
   35.8050   -3.9470   15.0470 N   0  0  0  0  0  0  0  0  0  0  0  0
   36.4900   -2.9120   14.2000 C   0  0  0  0  0  0  0  0  0  0  0  0
   37.9920   -2.7650   14.5760 C   0  0  2  0  0  0  0  0  0  0  0  0
   38.3490   -1.3090   14.9560 C   0  0  0  0  0  0  0  0  0  0  0  0
   38.3480   -1.0310   16.4420 C   0  0  0  0  0  0  0  0  0  0  0  0
   39.4260   -1.4540   17.2340 C   0  0  0  0  0  0  0  0  0  0  0  0
   39.4680   -1.1500   18.5940 C   0  0  0  0  0  0  0  0  0  0  0  0
   38.4300   -0.4290   19.1790 C   0  0  0  0  0  0  0  0  0  0  0  0
   37.3430   -0.0260   18.4070 C   0  0  0  0  0  0  0  0  0  0  0  0
   37.2960   -0.3300   17.0460 C   0  0  0  0  0  0  0  0  0  0  0  0
   38.8830   -3.2830   13.5180 N   0  0  0  0  0  0  0  0  0  0  0  0
   40.1650   -2.8120   13.3550 C   0  0  0  0  0  0  0  0  0  0  0  0
   40.5910   -1.9150   14.0810 O   0  0  0  0  0  0  0  0  0  0  0  0
   41.0810   -3.5490   12.4470 C   0  0  0  0  0  0  0  0  0  0  0  0
   42.2180   -2.9810   11.8640 C   0  0  0  0  0  0  0  0  0  0  0  0
   42.9100   -3.6960   10.8770 C   0  0  0  0  0  0  0  0  0  0  0  0
   44.1160   -3.1480   10.2030 C   0  0  0  0  0  0  0  0  0  0  0  0
   44.1550   -3.1210    8.9790 O   0  0  0  0  0  0  0  0  0  0  0  0
   45.1160   -2.6620   11.0140 N   0  0  0  0  0  0  0  0  0  0  0  0
   46.3000   -2.0200   10.4500 C   0  0  2  0  0  0  0  0  0  0  0  0
   47.4620   -3.0170   10.3840 C   0  0  0  0  0  0  0  0  0  0  0  0
   46.5840   -0.7420   11.2250 C   0  0  0  0  0  0  0  0  0  0  0  0
   47.5200   -0.6610   12.2660 C   0  0  0  0  0  0  0  0  0  0  0  0
   47.7320    0.5430   12.9440 C   0  0  0  0  0  0  0  0  0  0  0  0
   47.0080    1.6810   12.5980 C   0  0  0  0  0  0  0  0  0  0  0  0
   46.0690    1.6190   11.5740 C   0  0  0  0  0  0  0  0  0  0  0  0
   45.8590    0.4190   10.8920 C   0  0  0  0  0  0  0  0  0  0  0  0
   42.4740   -4.9720   10.4900 C   0  0  0  0  0  0  0  0  0  0  0  0
   41.3750   -5.5600   11.1140 C   0  0  0  0  0  0  0  0  0  0  0  0
   40.7970   -6.8050   10.6580 N   0  0  0  0  0  0  0  0  0  0  0  0
   40.6670   -6.9590    9.1860 C   0  0  0  0  0  0  0  0  0  0  0  0
   39.4200   -7.2790   11.5720 S   0  0  0  0  0  0  0  0  0  0  0  0
   38.4900   -8.2330   10.3890 C   0  0  0  0  0  0  0  0  0  0  0  0
   38.6740   -6.0870   11.9140 O   0  0  0  0  0  0  0  0  0  0  0  0
   39.8550   -8.1900   12.6230 O   0  0  0  0  0  0  0  0  0  0  0  0
   40.6930   -4.8490   12.0980 C   0  0  0  0  0  0  0  0  0  0  0  0
   33.6290   -4.6950   15.9230 C   0  0  1  0  0  0  0  0  0  0  0  0
   34.2530   -5.9640   15.3620 C   0  0  0  0  0  0  0  0  0  0  0  0
   33.2150   -4.9210   17.2880 O   0  0  0  0  0  0  0  0  0  0  0  0
   39.4301   -4.7121   20.3504 H   0  0  0  0  0  0  0  0  0  0  0  0
   39.0445   -5.6235   18.8513 H   0  0  0  0  0  0  0  0  0  0  0  0
   38.9848   -3.8282   18.8513 H   0  0  0  0  0  0  0  0  0  0  0  0
   37.2302   -4.7016   20.9509 H   0  0  0  0  0  0  0  0  0  0  0  0
   36.4608   -6.6994   20.3516 H   0  0  0  0  0  0  0  0  0  0  0  0
   35.8129   -5.9516   18.8524 H   0  0  0  0  0  0  0  0  0  0  0  0
   37.4502   -6.6904   18.8524 H   0  0  0  0  0  0  0  0  0  0  0  0
   35.7270   -3.3372   19.8897 H   0  0  0  0  0  0  0  0  0  0  0  0
   37.2996   -2.7576   19.1682 H   0  0  0  0  0  0  0  0  0  0  0  0
   36.7270   -4.3700   17.2970 H   0  0  0  0  0  0  0  0  0  0  0  0
   34.1760   -2.5965   15.5327 H   0  0  0  0  0  0  0  0  0  0  0  0
   36.4910   -4.3340   15.7190 H   0  0  0  0  0  0  0  0  0  0  0  0
   35.5230   -4.7650   14.4750 H   0  0  0  0  0  0  0  0  0  0  0  0
   36.4142   -3.2086   13.1435 H   0  0  0  0  0  0  0  0  0  0  0  0
   35.9962   -1.9445   14.3737 H   0  0  0  0  0  0  0  0  0  0  0  0
   38.1569   -3.3866   15.4684 H   0  0  0  0  0  0  0  0  0  0  0  0
   39.3536   -1.0885   14.5658 H   0  0  0  0  0  0  0  0  0  0  0  0
   37.5678   -0.6706   14.5176 H   0  0  0  0  0  0  0  0  0  0  0  0
   40.2447   -2.0302   16.7783 H   0  0  0  0  0  0  0  0  0  0  0  0
   40.3212   -1.4797   19.2051 H   0  0  0  0  0  0  0  0  0  0  0  0
   38.4686   -0.1781   20.2493 H   0  0  0  0  0  0  0  0  0  0  0  0
   36.5184    0.5341   18.8720 H   0  0  0  0  0  0  0  0  0  0  0  0
   36.4293   -0.0180   16.4447 H   0  0  0  0  0  0  0  0  0  0  0  0
   38.6470   -4.1900   13.1310 H   0  0  0  0  0  0  0  0  0  0  0  0
   42.5651   -1.9850   12.1763 H   0  0  0  0  0  0  0  0  0  0  0  0
   44.9720   -2.5520   12.0070 H   0  0  0  0  0  0  0  0  0  0  0  0
   46.1359   -1.7137    9.4063 H   0  0  0  0  0  0  0  0  0  0  0  0
   47.7739   -3.2846   11.4043 H   0  0  0  0  0  0  0  0  0  0  0  0
   47.1382   -3.9226    9.8501 H   0  0  0  0  0  0  0  0  0  0  0  0
   48.3079   -2.5594    9.8501 H   0  0  0  0  0  0  0  0  0  0  0  0
   48.0938   -1.5548   12.5523 H   0  0  0  0  0  0  0  0  0  0  0  0
   48.4741    0.5916   13.7545 H   0  0  0  0  0  0  0  0  0  0  0  0
   47.1784    2.6267   13.1333 H   0  0  0  0  0  0  0  0  0  0  0  0
   45.4920    2.5150   11.3015 H   0  0  0  0  0  0  0  0  0  0  0  0
   45.1158    0.3795   10.0820 H   0  0  0  0  0  0  0  0  0  0  0  0
   43.0022   -5.5113    9.6899 H   0  0  0  0  0  0  0  0  0  0  0  0
   39.9721   -7.7822    8.9634 H   0  0  0  0  0  0  0  0  0  0  0  0
   40.2800   -6.0251    8.7524 H   0  0  0  0  0  0  0  0  0  0  0  0
   41.6526   -7.1838    8.7524 H   0  0  0  0  0  0  0  0  0  0  0  0
   37.8179   -8.9224   10.9210 H   0  0  0  0  0  0  0  0  0  0  0  0
   37.8958   -7.5558    9.7578 H   0  0  0  0  0  0  0  0  0  0  0  0
   39.1821   -8.8097    9.7578 H   0  0  0  0  0  0  0  0  0  0  0  0
   39.8373   -5.3148   12.6086 H   0  0  0  0  0  0  0  0  0  0  0  0
   32.7753   -4.4423   15.2771 H   0  0  0  0  0  0  0  0  0  0  0  0
   34.5721   -6.6130   16.1908 H   0  0  0  0  0  0  0  0  0  0  0  0
   33.5130   -6.4946   14.7448 H   0  0  0  0  0  0  0  0  0  0  0  0
   35.1250   -5.7019   14.7448 H   0  0  0  0  0  0  0  0  0  0  0  0
   32.2420   -4.8080   17.3190 H   0  0  0  0  0  0  0  0  0  0  0  0
  1  2  1  0
  2  3  1  0
  2  4  1  0
  4  5  1  0
  5  6  1  0
  6  7  2  0
  6  8  1  0
  8  9  1  0
  9 10  1  0
 10 11  1  0
 11 12  1  0
 12 13  1  0
 13 14  2  0
 14 15  1  0
 15 16  2  0
 16 17  1  0
 17 18  2  0
 11 19  1  0
 19 20  1  0
 20 21  2  0
 20 22  1  0
 22 23  2  0
 23 24  1  0
 24 25  1  0
 25 26  2  0
 25 27  1  0
 27 28  1  0
 28 29  1  0
 28 30  1  0
 30 31  2  0
 31 32  1  0
 32 33  2  0
 33 34  1  0
 34 35  2  0
 24 36  2  0
 36 37  1  0
 37 38  1  0
 38 39  1  0
 38 40  1  0
 40 41  1  0
 40 42  2  0
 40 43  2  0
 37 44  2  0
  8 45  1  0
 45 46  1  0
 45 47  1  0
 18 13  1  0
 44 22  1  0
 35 30  1  0
  1 48  1  0
  1 49  1  0
  1 50  1  0
  2 51  1  0
  3 52  1  0
  3 53  1  0
  3 54  1  0
  4 55  1  0
  4 56  1  0
  5 57  1  0
  8 58  1  6
  9 59  1  0
  9 60  1  0
 10 61  1  0
 10 62  1  0
 11 63  1  1
 12 64  1  0
 12 65  1  0
 14 66  1  0
 15 67  1  0
 16 68  1  0
 17 69  1  0
 18 70  1  0
 19 71  1  0
 23 72  1  0
 27 73  1  0
 28 74  1  6
 29 75  1  0
 29 76  1  0
 29 77  1  0
 31 78  1  0
 32 79  1  0
 33 80  1  0
 34 81  1  0
 35 82  1  0
 36 83  1  0
 39 84  1  0
 39 85  1  0
 39 86  1  0
 41 87  1  0
 41 88  1  0
 41 89  1  0
 44 90  1  0
 45 91  1  6
 46 92  1  0
 46 93  1  0
 46 94  1  0
 47 95  1  0
M  CHG  1   9   1
M  END
>  <meeko>  (6) 
{"is_sidechain": [false], "free_energy": -9.356, "intermolecular_energy": -17.682, "internal_energy": -1.416}

$$$$
4gid_ligand
     RDKit          3D

 95 97  0  0  0  0  0  0  0  0999 V2000
   35.5730  -12.3630   17.1900 C   0  0  0  0  0  0  0  0  0  0  0  0
   35.5930  -11.5550   15.8910 C   0  0  0  0  0  0  0  0  0  0  0  0
   36.8560  -10.6950   15.8370 C   0  0  0  0  0  0  0  0  0  0  0  0
   34.3070  -10.7210   15.7830 C   0  0  0  0  0  0  0  0  0  0  0  0
   34.5520   -9.3300   15.4290 N   0  0  0  0  0  0  0  0  0  0  0  0
   33.5700   -8.5430   14.8690 C   0  0  0  0  0  0  0  0  0  0  0  0
   32.4660   -8.9780   14.5480 O   0  0  0  0  0  0  0  0  0  0  0  0
   33.9750   -7.0960   14.5500 C   0  0  1  0  0  0  0  0  0  0  0  0
   34.2990   -6.8630   13.0690 N   0  0  0  0  0  0  0  0  0  0  0  0
   35.6850   -7.1680   12.5750 C   0  0  0  0  0  0  0  0  0  0  0  0
   36.0320   -6.3480   11.2990 C   0  0  2  0  0  0  0  0  0  0  0  0
   36.5200   -7.2580   10.1480 C   0  0  0  0  0  0  0  0  0  0  0  0
   37.9770   -7.6530   10.2370 C   0  0  0  0  0  0  0  0  0  0  0  0
   38.8930   -7.1690    9.2900 C   0  0  0  0  0  0  0  0  0  0  0  0
   40.2490   -7.4740    9.3950 C   0  0  0  0  0  0  0  0  0  0  0  0
   40.7040   -8.2730   10.4420 C   0  0  0  0  0  0  0  0  0  0  0  0
   39.8000   -8.7790   11.3730 C   0  0  0  0  0  0  0  0  0  0  0  0
   38.4410   -8.4780   11.2690 C   0  0  0  0  0  0  0  0  0  0  0  0
   36.9970   -5.2660   11.5800 N   0  0  0  0  0  0  0  0  0  0  0  0
   36.9820   -4.5700   12.7660 C   0  0  0  0  0  0  0  0  0  0  0  0
   36.1290   -4.8190   13.6180 O   0  0  0  0  0  0  0  0  0  0  0  0
   38.1280   -3.6800   13.0810 C   0  0  0  0  0  0  0  0  0  0  0  0
   39.3820   -3.7840   12.4710 C   0  0  0  0  0  0  0  0  0  0  0  0
   40.4500   -3.0250   12.9680 C   0  0  0  0  0  0  0  0  0  0  0  0
   41.8130   -3.0980   12.3810 C   0  0  0  0  0  0  0  0  0  0  0  0
   42.5440   -4.0330   12.6810 O   0  0  0  0  0  0  0  0  0  0  0  0
   42.1590   -2.1090   11.4890 N   0  0  0  0  0  0  0  0  0  0  0  0
   43.4400   -2.1390   10.7870 C   0  0  2  0  0  0  0  0  0  0  0  0
   44.1330   -3.4870   11.0090 C   0  0  0  0  0  0  0  0  0  0  0  0
   44.2510   -0.9170   11.1880 C   0  0  0  0  0  0  0  0  0  0  0  0
   43.6750    0.3020   11.5730 C   0  0  0  0  0  0  0  0  0  0  0  0
   44.4760    1.3910   11.9270 C   0  0  0  0  0  0  0  0  0  0  0  0
   45.8640    1.2820   11.8930 C   0  0  0  0  0  0  0  0  0  0  0  0
   46.4550    0.0850   11.5050 C   0  0  0  0  0  0  0  0  0  0  0  0
   45.6570   -1.0060   11.1570 C   0  0  0  0  0  0  0  0  0  0  0  0
   40.2590   -2.1620   14.0580 C   0  0  0  0  0  0  0  0  0  0  0  0
   38.9950   -2.0160   14.6270 C   0  0  0  0  0  0  0  0  0  0  0  0
   38.7710   -1.2540   15.8350 N   0  0  0  0  0  0  0  0  0  0  0  0
   39.3210   -1.8420   17.0840 C   0  0  0  0  0  0  0  0  0  0  0  0
   37.1670   -0.6420   15.9540 S   0  0  0  0  0  0  0  0  0  0  0  0
   36.3310   -1.9410   16.8430 C   0  0  0  0  0  0  0  0  0  0  0  0
   36.6200   -0.5510   14.6190 O   0  0  0  0  0  0  0  0  0  0  0  0
   37.1860    0.5340   16.8140 O   0  0  0  0  0  0  0  0  0  0  0  0
   37.9340   -2.7670   14.1260 C   0  0  0  0  0  0  0  0  0  0  0  0
   32.8590   -6.0880   14.9090 C   0  0  1  0  0  0  0  0  0  0  0  0
   33.2840   -5.1430   16.0240 C   0  0  0  0  0  0  0  0  0  0  0  0
   32.5640   -5.3280   13.7160 O   0  0  0  0  0  0  0  0  0  0  0  0
   35.5900  -11.6764   18.0492 H   0  0  0  0  0  0  0  0  0  0  0  0
   34.6594  -12.9746   17.2274 H   0  0  0  0  0  0  0  0  0  0  0  0
   36.4552  -13.0190   17.2274 H   0  0  0  0  0  0  0  0  0  0  0  0
   35.6210  -12.2293   15.0224 H   0  0  0  0  0  0  0  0  0  0  0  0
   37.1892  -10.4681   16.8605 H   0  0  0  0  0  0  0  0  0  0  0  0
   37.6493  -11.2414   15.3058 H   0  0  0  0  0  0  0  0  0  0  0  0
   36.6382   -9.7567   15.3058 H   0  0  0  0  0  0  0  0  0  0  0  0
   33.6634  -11.1696   15.0119 H   0  0  0  0  0  0  0  0  0  0  0  0
   33.8304  -10.7263   16.7744 H   0  0  0  0  0  0  0  0  0  0  0  0
   35.3610   -8.9050   15.8910 H   0  0  0  0  0  0  0  0  0  0  0  0
   34.8753   -6.9354   15.1613 H   0  0  0  0  0  0  0  0  0  0  0  0
   33.6260   -7.4720   12.5700 H   0  0  0  0  0  0  0  0  0  0  0  0
   34.0150   -5.9020   12.8010 H   0  0  0  0  0  0  0  0  0  0  0  0
   36.4083   -6.9206   13.3659 H   0  0  0  0  0  0  0  0  0  0  0  0
   35.7318   -8.2370   12.3201 H   0  0  0  0  0  0  0  0  0  0  0  0
   35.0992   -5.8693   10.9664 H   0  0  0  0  0  0  0  0  0  0  0  0
   35.9139   -8.1759   10.1549 H   0  0  0  0  0  0  0  0  0  0  0  0
   36.4090   -6.6769    9.2206 H   0  0  0  0  0  0  0  0  0  0  0  0
   38.5377   -6.5436    8.4578 H   0  0  0  0  0  0  0  0  0  0  0  0
   40.9598   -7.0841    8.6515 H   0  0  0  0  0  0  0  0  0  0  0  0
   41.7756   -8.5038   10.5331 H   0  0  0  0  0  0  0  0  0  0  0  0
   40.1584   -9.4182   12.1933 H   0  0  0  0  0  0  0  0  0  0  0  0
   37.7313   -8.8907   12.0011 H   0  0  0  0  0  0  0  0  0  0  0  0
   37.8480   -5.2640   11.0280 H   0  0  0  0  0  0  0  0  0  0  0  0
   39.5284   -4.4539   11.6109 H   0  0  0  0  0  0  0  0  0  0  0  0
   41.4720   -1.4540   11.1450 H   0  0  0  0  0  0  0  0  0  0  0  0
   43.3064   -2.0707    9.6973 H   0  0  0  0  0  0  0  0  0  0  0  0
   44.2302   -3.6760   12.0883 H   0  0  0  0  0  0  0  0  0  0  0  0
   43.5345   -4.2871   10.5491 H   0  0  0  0  0  0  0  0  0  0  0  0
   45.1320   -3.4658   10.5491 H   0  0  0  0  0  0  0  0  0  0  0  0
   42.5798    0.4023   11.5967 H   0  0  0  0  0  0  0  0  0  0  0  0
   44.0083    2.3382   12.2338 H   0  0  0  0  0  0  0  0  0  0  0  0
   46.4913    2.1412   12.1726 H   0  0  0  0  0  0  0  0  0  0  0  0
   47.5510   -0.0023   11.4723 H   0  0  0  0  0  0  0  0  0  0  0  0
   46.1331   -1.9501   10.8538 H   0  0  0  0  0  0  0  0  0  0  0  0
   41.1110   -1.5980   14.4654 H   0  0  0  0  0  0  0  0  0  0  0  0
   38.8613   -1.3505   17.9541 H   0  0  0  0  0  0  0  0  0  0  0  0
   39.0985   -2.9189   17.1112 H   0  0  0  0  0  0  0  0  0  0  0  0
   40.4104   -1.6918   17.1112 H   0  0  0  0  0  0  0  0  0  0  0  0
   36.4390   -1.7732   17.9248 H   0  0  0  0  0  0  0  0  0  0  0  0
   35.2638   -1.9397   16.5765 H   0  0  0  0  0  0  0  0  0  0  0  0
   36.7743   -2.9118   16.5765 H   0  0  0  0  0  0  0  0  0  0  0  0
   36.9297   -2.6415   14.5569 H   0  0  0  0  0  0  0  0  0  0  0  0
   31.9761   -6.6363   15.2694 H   0  0  0  0  0  0  0  0  0  0  0  0
   33.0748   -5.6082   16.9986 H   0  0  0  0  0  0  0  0  0  0  0  0
   34.3613   -4.9373   15.9396 H   0  0  0  0  0  0  0  0  0  0  0  0
   32.7231   -4.2005   15.9396 H   0  0  0  0  0  0  0  0  0  0  0  0
   31.8710   -5.8150   13.2250 H   0  0  0  0  0  0  0  0  0  0  0  0
  1  2  1  0
  2  3  1  0
  2  4  1  0
  4  5  1  0
  5  6  1  0
  6  7  2  0
  6  8  1  0
  8  9  1  0
  9 10  1  0
 10 11  1  0
 11 12  1  0
 12 13  1  0
 13 14  2  0
 14 15  1  0
 15 16  2  0
 16 17  1  0
 17 18  2  0
 11 19  1  0
 19 20  1  0
 20 21  2  0
 20 22  1  0
 22 23  2  0
 23 24  1  0
 24 25  1  0
 25 26  2  0
 25 27  1  0
 27 28  1  0
 28 29  1  0
 28 30  1  0
 30 31  2  0
 31 32  1  0
 32 33  2  0
 33 34  1  0
 34 35  2  0
 24 36  2  0
 36 37  1  0
 37 38  1  0
 38 39  1  0
 38 40  1  0
 40 41  1  0
 40 42  2  0
 40 43  2  0
 37 44  2  0
  8 45  1  0
 45 46  1  0
 45 47  1  0
 18 13  1  0
 44 22  1  0
 35 30  1  0
  1 48  1  0
  1 49  1  0
  1 50  1  0
  2 51  1  0
  3 52  1  0
  3 53  1  0
  3 54  1  0
  4 55  1  0
  4 56  1  0
  5 57  1  0
  8 58  1  1
  9 59  1  0
  9 60  1  0
 10 61  1  0
 10 62  1  0
 11 63  1  6
 12 64  1  0
 12 65  1  0
 14 66  1  0
 15 67  1  0
 16 68  1  0
 17 69  1  0
 18 70  1  0
 19 71  1  0
 23 72  1  0
 27 73  1  0
 28 74  1  6
 29 75  1  0
 29 76  1  0
 29 77  1  0
 31 78  1  0
 32 79  1  0
 33 80  1  0
 34 81  1  0
 35 82  1  0
 36 83  1  0
 39 84  1  0
 39 85  1  0
 39 86  1  0
 41 87  1  0
 41 88  1  0
 41 89  1  0
 44 90  1  0
 45 91  1  1
 46 92  1  0
 46 93  1  0
 46 94  1  0
 47 95  1  0
M  CHG  1   9   1
M  END
>  <meeko>  (7) 
{"is_sidechain": [false], "free_energy": -9.285, "intermolecular_energy": -19.54, "internal_energy": 0.581}

$$$$
4gid_ligand
     RDKit          3D

 95 97  0  0  0  0  0  0  0  0999 V2000
   37.6860   -2.9270   13.7760 C   0  0  0  0  0  0  0  0  0  0  0  0
   39.1890   -3.0250   14.0480 C   0  0  0  0  0  0  0  0  0  0  0  0
   39.6750   -1.7460   14.7320 C   0  0  0  0  0  0  0  0  0  0  0  0
   39.9330   -3.3110   12.7350 C   0  0  0  0  0  0  0  0  0  0  0  0
   39.5400   -4.5680   12.1140 N   0  0  0  0  0  0  0  0  0  0  0  0
   40.4670   -5.5310   11.7820 C   0  0  0  0  0  0  0  0  0  0  0  0
   41.6790   -5.3610   11.8990 O   0  0  0  0  0  0  0  0  0  0  0  0
   39.9050   -6.8040   11.1330 C   0  0  1  0  0  0  0  0  0  0  0  0
   38.5370   -6.6020   10.4700 N   0  0  0  0  0  0  0  0  0  0  0  0
   37.3330   -7.2630   11.0800 C   0  0  0  0  0  0  0  0  0  0  0  0
   36.0890   -6.3300   11.0480 C   0  0  2  0  0  0  0  0  0  0  0  0
   36.2990   -5.1280   10.0960 C   0  0  0  0  0  0  0  0  0  0  0  0
   35.1320   -4.8460    9.1770 C   0  0  0  0  0  0  0  0  0  0  0  0
   33.8180   -4.9460    9.6620 C   0  0  0  0  0  0  0  0  0  0  0  0
   32.7350   -4.6290    8.8440 C   0  0  0  0  0  0  0  0  0  0  0  0
   32.9500   -4.2170    7.5310 C   0  0  0  0  0  0  0  0  0  0  0  0
   34.2490   -4.1390    7.0310 C   0  0  0  0  0  0  0  0  0  0  0  0
   35.3350   -4.4590    7.8460 C   0  0  0  0  0  0  0  0  0  0  0  0
   35.6920   -5.8860   12.3990 N   0  0  0  0  0  0  0  0  0  0  0  0
   34.7290   -6.5460   13.1260 C   0  0  0  0  0  0  0  0  0  0  0  0
   34.1490   -7.5180   12.6430 O   0  0  0  0  0  0  0  0  0  0  0  0
   34.5650   -6.2040   14.5620 C   0  0  0  0  0  0  0  0  0  0  0  0
   34.8720   -4.9510   15.1010 C   0  0  0  0  0  0  0  0  0  0  0  0
   34.8620   -4.7830   16.4920 C   0  0  0  0  0  0  0  0  0  0  0  0
   35.1940   -3.4860   17.1360 C   0  0  0  0  0  0  0  0  0  0  0  0
   34.3490   -2.9270   17.8230 O   0  0  0  0  0  0  0  0  0  0  0  0
   36.4690   -3.0060   16.9450 N   0  0  0  0  0  0  0  0  0  0  0  0
   36.9250   -1.7870   17.6080 C   0  0  2  0  0  0  0  0  0  0  0  0
   36.7430   -0.5800   16.6820 C   0  0  0  0  0  0  0  0  0  0  0  0
   38.3390   -2.0040   18.1220 C   0  0  0  0  0  0  0  0  0  0  0  0
   38.9680   -3.2570   18.1500 C   0  0  0  0  0  0  0  0  0  0  0  0
   40.2710   -3.3930   18.6390 C   0  0  0  0  0  0  0  0  0  0  0  0
   40.9610   -2.2820   19.1150 C   0  0  0  0  0  0  0  0  0  0  0  0
   40.3520   -1.0310   19.1050 C   0  0  0  0  0  0  0  0  0  0  0  0
   39.0540   -0.8930   18.6110 C   0  0  0  0  0  0  0  0  0  0  0  0
   34.5340   -5.8580   17.3330 C   0  0  0  0  0  0  0  0  0  0  0  0
   34.1710   -7.0900   16.7910 C   0  0  0  0  0  0  0  0  0  0  0  0
   33.9640   -8.2670   17.6060 N   0  0  0  0  0  0  0  0  0  0  0  0
   33.6280   -8.0170   19.0310 C   0  0  0  0  0  0  0  0  0  0  0  0
   35.1430   -9.4880   17.3320 S   0  0  0  0  0  0  0  0  0  0  0  0
   35.1250  -10.3850   18.8720 C   0  0  0  0  0  0  0  0  0  0  0  0
   36.4280   -8.8450   17.1700 O   0  0  0  0  0  0  0  0  0  0  0  0
   34.6450  -10.3860   16.2980 O   0  0  0  0  0  0  0  0  0  0  0  0
   34.1760   -7.2510   15.4070 C   0  0  0  0  0  0  0  0  0  0  0  0
   40.8390   -7.3560   10.0310 C   0  0  1  0  0  0  0  0  0  0  0  0
   40.2240   -8.5450    9.3070 C   0  0  0  0  0  0  0  0  0  0  0  0
   41.0740   -6.2850    9.0900 O   0  0  0  0  0  0  0  0  0  0  0  0
   37.1420   -2.8915   14.7314 H   0  0  0  0  0  0  0  0  0  0  0  0
   37.4763   -2.0133   13.2005 H   0  0  0  0  0  0  0  0  0  0  0  0
   37.3595   -3.8058   13.2005 H   0  0  0  0  0  0  0  0  0  0  0  0
   39.3994   -3.8599   14.7326 H   0  0  0  0  0  0  0  0  0  0  0  0
   39.6268   -1.8729   15.8236 H   0  0  0  0  0  0  0  0  0  0  0  0
   40.7134   -1.5417   14.4321 H   0  0  0  0  0  0  0  0  0  0  0  0
   39.0343   -0.9036   14.4321 H   0  0  0  0  0  0  0  0  0  0  0  0
   39.7246   -2.4928   12.0299 H   0  0  0  0  0  0  0  0  0  0  0  0
   41.0036   -3.3867   12.9762 H   0  0  0  0  0  0  0  0  0  0  0  0
   38.5510   -4.8110   12.2230 H   0  0  0  0  0  0  0  0  0  0  0  0
   39.8142   -7.5072   11.9740 H   0  0  0  0  0  0  0  0  0  0  0  0
   38.4010   -5.5760   10.4930 H   0  0  0  0  0  0  0  0  0  0  0  0
   38.6080   -6.8250    9.4590 H   0  0  0  0  0  0  0  0  0  0  0  0
   37.1058   -8.1802   10.5168 H   0  0  0  0  0  0  0  0  0  0  0  0
   37.5628   -7.4935   12.1307 H   0  0  0  0  0  0  0  0  0  0  0  0
   35.2561   -6.9266   10.6476 H   0  0  0  0  0  0  0  0  0  0  0  0
   36.4788   -4.2319   10.7082 H   0  0  0  0  0  0  0  0  0  0  0  0
   37.1514   -5.3851    9.4501 H   0  0  0  0  0  0  0  0  0  0  0  0
   33.6420   -5.2773   10.6961 H   0  0  0  0  0  0  0  0  0  0  0  0
   31.7098   -4.7042    9.2356 H   0  0  0  0  0  0  0  0  0  0  0  0
   32.0961   -3.9536    6.8895 H   0  0  0  0  0  0  0  0  0  0  0  0
   34.4181   -3.8242    5.9907 H   0  0  0  0  0  0  0  0  0  0  0  0
   36.3565   -4.4072    7.4413 H   0  0  0  0  0  0  0  0  0  0  0  0
   36.3520   -5.2950   12.8940 H   0  0  0  0  0  0  0  0  0  0  0  0
   35.1186   -4.1066   14.4405 H   0  0  0  0  0  0  0  0  0  0  0  0
   37.1810   -3.5760   16.5120 H   0  0  0  0  0  0  0  0  0  0  0  0
   36.3125   -1.5545   18.4916 H   0  0  0  0  0  0  0  0  0  0  0  0
   36.6060    0.3286   17.2866 H   0  0  0  0  0  0  0  0  0  0  0  0
   37.6343   -0.4671   16.0473 H   0  0  0  0  0  0  0  0  0  0  0  0
   35.8581   -0.7350   16.0473 H   0  0  0  0  0  0  0  0  0  0  0  0
   38.4300   -4.1435   17.7829 H   0  0  0  0  0  0  0  0  0  0  0  0
   40.7525   -4.3820   18.6475 H   0  0  0  0  0  0  0  0  0  0  0  0
   41.9860   -2.3927   19.4985 H   0  0  0  0  0  0  0  0  0  0  0  0
   40.8928   -0.1521   19.4859 H   0  0  0  0  0  0  0  0  0  0  0  0
   38.5812    0.1002   18.6033 H   0  0  0  0  0  0  0  0  0  0  0  0
   34.5635   -5.7276   18.4248 H   0  0  0  0  0  0  0  0  0  0  0  0
   34.3433   -8.5492   19.6752 H   0  0  0  0  0  0  0  0  0  0  0  0
   33.6820   -6.9377   19.2366 H   0  0  0  0  0  0  0  0  0  0  0  0
   32.6098   -8.3789   19.2366 H   0  0  0  0  0  0  0  0  0  0  0  0
   35.1393   -9.6736   19.7109 H   0  0  0  0  0  0  0  0  0  0  0  0
   34.2143  -10.9995   18.9278 H   0  0  0  0  0  0  0  0  0  0  0  0
   36.0103  -11.0355   18.9278 H   0  0  0  0  0  0  0  0  0  0  0  0
   33.8701   -8.2139   14.9719 H   0  0  0  0  0  0  0  0  0  0  0  0
   41.7751   -7.7069   10.4898 H   0  0  0  0  0  0  0  0  0  0  0  0
   39.8492   -9.2697   10.0448 H   0  0  0  0  0  0  0  0  0  0  0  0
   39.3914   -8.1997    8.6765 H   0  0  0  0  0  0  0  0  0  0  0  0
   40.9869   -9.0250    8.6765 H   0  0  0  0  0  0  0  0  0  0  0  0
   42.0050   -6.0000    9.2000 H   0  0  0  0  0  0  0  0  0  0  0  0
  1  2  1  0
  2  3  1  0
  2  4  1  0
  4  5  1  0
  5  6  1  0
  6  7  2  0
  6  8  1  0
  8  9  1  0
  9 10  1  0
 10 11  1  0
 11 12  1  0
 12 13  1  0
 13 14  2  0
 14 15  1  0
 15 16  2  0
 16 17  1  0
 17 18  2  0
 11 19  1  0
 19 20  1  0
 20 21  2  0
 20 22  1  0
 22 23  2  0
 23 24  1  0
 24 25  1  0
 25 26  2  0
 25 27  1  0
 27 28  1  0
 28 29  1  0
 28 30  1  0
 30 31  2  0
 31 32  1  0
 32 33  2  0
 33 34  1  0
 34 35  2  0
 24 36  2  0
 36 37  1  0
 37 38  1  0
 38 39  1  0
 38 40  1  0
 40 41  1  0
 40 42  2  0
 40 43  2  0
 37 44  2  0
  8 45  1  0
 45 46  1  0
 45 47  1  0
 18 13  1  0
 44 22  1  0
 35 30  1  0
  1 48  1  0
  1 49  1  0
  1 50  1  0
  2 51  1  0
  3 52  1  0
  3 53  1  0
  3 54  1  0
  4 55  1  0
  4 56  1  0
  5 57  1  0
  8 58  1  1
  9 59  1  0
  9 60  1  0
 10 61  1  0
 10 62  1  0
 11 63  1  6
 12 64  1  0
 12 65  1  0
 14 66  1  0
 15 67  1  0
 16 68  1  0
 17 69  1  0
 18 70  1  0
 19 71  1  0
 23 72  1  0
 27 73  1  0
 28 74  1  1
 29 75  1  0
 29 76  1  0
 29 77  1  0
 31 78  1  0
 32 79  1  0
 33 80  1  0
 34 81  1  0
 35 82  1  0
 36 83  1  0
 39 84  1  0
 39 85  1  0
 39 86  1  0
 41 87  1  0
 41 88  1  0
 41 89  1  0
 44 90  1  0
 45 91  1  1
 46 92  1  0
 46 93  1  0
 46 94  1  0
 47 95  1  0
M  CHG  1   9   1
M  END
>  <meeko>  (8) 
{"is_sidechain": [false], "free_energy": -9.204, "intermolecular_energy": -15.186, "internal_energy": -3.614}

$$$$
4gid_ligand
     RDKit          3D

 95 97  0  0  0  0  0  0  0  0999 V2000
   40.9590   -7.9490   10.8900 C   0  0  0  0  0  0  0  0  0  0  0  0
   39.4560   -7.6630   10.8980 C   0  0  0  0  0  0  0  0  0  0  0  0
   38.7210   -8.7810   11.6380 C   0  0  0  0  0  0  0  0  0  0  0  0
   38.9580   -7.4850    9.4550 C   0  0  0  0  0  0  0  0  0  0  0  0
   37.7540   -6.6710    9.3590 N   0  0  0  0  0  0  0  0  0  0  0  0
   36.5370   -7.2180    9.0180 C   0  0  0  0  0  0  0  0  0  0  0  0
   36.4020   -8.3940    8.6850 O   0  0  0  0  0  0  0  0  0  0  0  0
   35.3570   -6.2370    8.9560 C   0  0  1  0  0  0  0  0  0  0  0  0
   34.8290   -5.8260   10.3360 N   0  0  0  0  0  0  0  0  0  0  0  0
   34.4400   -6.9010   11.3120 C   0  0  0  0  0  0  0  0  0  0  0  0
   35.3210   -6.8590   12.5920 C   0  0  2  0  0  0  0  0  0  0  0  0
   34.4670   -6.6790   13.8700 C   0  0  0  0  0  0  0  0  0  0  0  0
   34.1780   -7.9610   14.6160 C   0  0  0  0  0  0  0  0  0  0  0  0
   32.8780   -8.4890   14.6250 C   0  0  0  0  0  0  0  0  0  0  0  0
   32.6100   -9.7020   15.2570 C   0  0  0  0  0  0  0  0  0  0  0  0
   33.6350  -10.3970   15.8950 C   0  0  0  0  0  0  0  0  0  0  0  0
   34.9250   -9.8690   15.9140 C   0  0  0  0  0  0  0  0  0  0  0  0
   35.1960   -8.6540   15.2850 C   0  0  0  0  0  0  0  0  0  0  0  0
   36.3830   -5.8370   12.5030 N   0  0  0  0  0  0  0  0  0  0  0  0
   36.4190   -4.7520   13.3470 C   0  0  0  0  0  0  0  0  0  0  0  0
   35.5350   -4.5940   14.1880 O   0  0  0  0  0  0  0  0  0  0  0  0
   37.6430   -3.9110   13.3690 C   0  0  0  0  0  0  0  0  0  0  0  0
   38.7820   -4.1780   12.6040 C   0  0  0  0  0  0  0  0  0  0  0  0
   39.9500   -3.4370   12.8330 C   0  0  0  0  0  0  0  0  0  0  0  0
   41.2020   -3.6780   12.0700 C   0  0  0  0  0  0  0  0  0  0  0  0
   42.1040   -4.3200   12.5920 O   0  0  0  0  0  0  0  0  0  0  0  0
   41.2520   -3.1850   10.7870 N   0  0  0  0  0  0  0  0  0  0  0  0
   42.4000   -3.4460    9.9220 C   0  0  2  0  0  0  0  0  0  0  0  0
   42.6170   -4.9560    9.7730 C   0  0  0  0  0  0  0  0  0  0  0  0
   43.5970   -2.6660   10.4420 C   0  0  0  0  0  0  0  0  0  0  0  0
   43.4920   -1.4180   11.0740 C   0  0  0  0  0  0  0  0  0  0  0  0
   44.6320   -0.7480   11.5270 C   0  0  0  0  0  0  0  0  0  0  0  0
   45.8940   -1.3090   11.3480 C   0  0  0  0  0  0  0  0  0  0  0  0
   46.0200   -2.5410   10.7160 C   0  0  0  0  0  0  0  0  0  0  0  0
   44.8830   -3.2150   10.2690 C   0  0  0  0  0  0  0  0  0  0  0  0
   39.9690   -2.4310   13.8110 C   0  0  0  0  0  0  0  0  0  0  0  0
   38.8160   -2.1270   14.5320 C   0  0  0  0  0  0  0  0  0  0  0  0
   38.8160   -1.2040   15.6450 N   0  0  0  0  0  0  0  0  0  0  0  0
   39.6380   -1.6010   16.8170 C   0  0  0  0  0  0  0  0  0  0  0  0
   37.2480   -0.6010   16.0170 S   0  0  0  0  0  0  0  0  0  0  0  0
   36.5560   -1.9230   16.9920 C   0  0  0  0  0  0  0  0  0  0  0  0
   36.5070   -0.4830   14.7810 O   0  0  0  0  0  0  0  0  0  0  0  0
   37.3940    0.5560   16.8900 O   0  0  0  0  0  0  0  0  0  0  0  0
   37.6550   -2.8610   14.2960 C   0  0  0  0  0  0  0  0  0  0  0  0
   35.7310   -4.9230    8.2310 C   0  0  1  0  0  0  0  0  0  0  0  0
   35.6490   -5.0660    6.7180 C   0  0  0  0  0  0  0  0  0  0  0  0
   34.8020   -3.9080    8.6720 O   0  0  0  0  0  0  0  0  0  0  0  0
   41.3245   -8.0186   11.9252 H   0  0  0  0  0  0  0  0  0  0  0  0
   41.1486   -8.8993   10.3695 H   0  0  0  0  0  0  0  0  0  0  0  0
   41.4844   -7.1347   10.3695 H   0  0  0  0  0  0  0  0  0  0  0  0
   39.2486   -6.7259   11.4355 H   0  0  0  0  0  0  0  0  0  0  0  0
   38.8205   -8.6297   12.7230 H   0  0  0  0  0  0  0  0  0  0  0  0
   37.6564   -8.7654   11.3617 H   0  0  0  0  0  0  0  0  0  0  0  0
   39.1574   -9.7522   11.3617 H   0  0  0  0  0  0  0  0  0  0  0  0
   39.7535   -7.0029    8.8678 H   0  0  0  0  0  0  0  0  0  0  0  0
   38.7078   -8.4847    9.0703 H   0  0  0  0  0  0  0  0  0  0  0  0
   37.8030   -5.7710    9.8450 H   0  0  0  0  0  0  0  0  0  0  0  0
   34.5827   -6.7938    8.4078 H   0  0  0  0  0  0  0  0  0  0  0  0
   35.6050   -5.2730   10.7420 H   0  0  0  0  0  0  0  0  0  0  0  0
   34.0620   -5.1370   10.2210 H   0  0  0  0  0  0  0  0  0  0  0  0
   33.3875   -6.7590   11.5984 H   0  0  0  0  0  0  0  0  0  0  0  0
   34.5870   -7.8765   10.8254 H   0  0  0  0  0  0  0  0  0  0  0  0
   35.8205   -7.8364   12.6644 H   0  0  0  0  0  0  0  0  0  0  0  0
   35.0035   -5.9998   14.5489 H   0  0  0  0  0  0  0  0  0  0  0  0
   33.4949   -6.2811   13.5433 H   0  0  0  0  0  0  0  0  0  0  0  0
   32.0634   -7.9409   14.1290 H   0  0  0  0  0  0  0  0  0  0  0  0
   31.5888  -10.1107   15.2520 H   0  0  0  0  0  0  0  0  0  0  0  0
   33.4268  -11.3607   16.3829 H   0  0  0  0  0  0  0  0  0  0  0  0
   35.7321  -10.4126   16.4269 H   0  0  0  0  0  0  0  0  0  0  0  0
   36.2137   -8.2376   15.3142 H   0  0  0  0  0  0  0  0  0  0  0  0
   37.2380   -6.1130   12.0310 H   0  0  0  0  0  0  0  0  0  0  0  0
   38.7622   -4.9605   11.8312 H   0  0  0  0  0  0  0  0  0  0  0  0
   40.4280   -2.8090   10.3410 H   0  0  0  0  0  0  0  0  0  0  0  0
   42.2248   -3.0867    8.8972 H   0  0  0  0  0  0  0  0  0  0  0  0
   42.6833   -5.4170   10.7695 H   0  0  0  0  0  0  0  0  0  0  0  0
   41.7727   -5.3951    9.2213 H   0  0  0  0  0  0  0  0  0  0  0  0
   43.5508   -5.1396    9.2213 H   0  0  0  0  0  0  0  0  0  0  0  0
   42.5012   -0.9615   11.2147 H   0  0  0  0  0  0  0  0  0  0  0  0
   44.5319    0.2266   12.0271 H   0  0  0  0  0  0  0  0  0  0  0  0
   46.7889   -0.7787   11.7057 H   0  0  0  0  0  0  0  0  0  0  0  0
   47.0159   -2.9843   10.5684 H   0  0  0  0  0  0  0  0  0  0  0  0
   44.9924   -4.1909    9.7734 H   0  0  0  0  0  0  0  0  0  0  0  0
   40.8996   -1.8791   14.0097 H   0  0  0  0  0  0  0  0  0  0  0  0
   39.1041   -1.3432   17.7435 H   0  0  0  0  0  0  0  0  0  0  0  0
   39.8187   -2.6857   16.7876 H   0  0  0  0  0  0  0  0  0  0  0  0
   40.5999   -1.0681   16.7876 H   0  0  0  0  0  0  0  0  0  0  0  0
   36.6767   -1.6923   18.0607 H   0  0  0  0  0  0  0  0  0  0  0  0
   35.4864   -2.0297   16.7585 H   0  0  0  0  0  0  0  0  0  0  0  0
   37.0778   -2.8628   16.7585 H   0  0  0  0  0  0  0  0  0  0  0  0
   36.7351   -2.6122   14.8455 H   0  0  0  0  0  0  0  0  0  0  0  0
   36.7700   -4.6562    8.4747 H   0  0  0  0  0  0  0  0  0  0  0  0
   35.1164   -5.9948    6.4658 H   0  0  0  0  0  0  0  0  0  0  0  0
   35.1065   -4.2065    6.2973 H   0  0  0  0  0  0  0  0  0  0  0  0
   36.6648   -5.1000    6.2973 H   0  0  0  0  0  0  0  0  0  0  0  0
   34.7850   -3.9350    9.6510 H   0  0  0  0  0  0  0  0  0  0  0  0
  1  2  1  0
  2  3  1  0
  2  4  1  0
  4  5  1  0
  5  6  1  0
  6  7  2  0
  6  8  1  0
  8  9  1  0
  9 10  1  0
 10 11  1  0
 11 12  1  0
 12 13  1  0
 13 14  2  0
 14 15  1  0
 15 16  2  0
 16 17  1  0
 17 18  2  0
 11 19  1  0
 19 20  1  0
 20 21  2  0
 20 22  1  0
 22 23  2  0
 23 24  1  0
 24 25  1  0
 25 26  2  0
 25 27  1  0
 27 28  1  0
 28 29  1  0
 28 30  1  0
 30 31  2  0
 31 32  1  0
 32 33  2  0
 33 34  1  0
 34 35  2  0
 24 36  2  0
 36 37  1  0
 37 38  1  0
 38 39  1  0
 38 40  1  0
 40 41  1  0
 40 42  2  0
 40 43  2  0
 37 44  2  0
  8 45  1  0
 45 46  1  0
 45 47  1  0
 18 13  1  0
 44 22  1  0
 35 30  1  0
  1 48  1  0
  1 49  1  0
  1 50  1  0
  2 51  1  0
  3 52  1  0
  3 53  1  0
  3 54  1  0
  4 55  1  0
  4 56  1  0
  5 57  1  0
  8 58  1  6
  9 59  1  0
  9 60  1  0
 10 61  1  0
 10 62  1  0
 11 63  1  1
 12 64  1  0
 12 65  1  0
 14 66  1  0
 15 67  1  0
 16 68  1  0
 17 69  1  0
 18 70  1  0
 19 71  1  0
 23 72  1  0
 27 73  1  0
 28 74  1  6
 29 75  1  0
 29 76  1  0
 29 77  1  0
 31 78  1  0
 32 79  1  0
 33 80  1  0
 34 81  1  0
 35 82  1  0
 36 83  1  0
 39 84  1  0
 39 85  1  0
 39 86  1  0
 41 87  1  0
 41 88  1  0
 41 89  1  0
 44 90  1  0
 45 91  1  6
 46 92  1  0
 46 93  1  0
 46 94  1  0
 47 95  1  0
M  CHG  1   9   1
M  END
>  <meeko>  (9) 
{"is_sidechain": [false], "free_energy": -9.067, "intermolecular_energy": -18.262, "internal_energy": -0.269}

$$$$
