3rsx_ligand
     RDKit          3D

 26 28  0  0  0  0  0  0  0  0999 V2000
   65.1800   55.6290   10.8960 N   0  0  0  0  0  0  0  0  0  0  0  0
   66.3560   54.8880   10.8070 C   0  0  0  0  0  0  0  0  0  0  0  0
   67.4460   55.3830   10.1120 C   0  0  0  0  0  0  0  0  0  0  0  0
   68.5940   54.6030   10.0310 C   0  0  0  0  0  0  0  0  0  0  0  0
   68.6180   53.3450   10.6410 C   0  0  0  0  0  0  0  0  0  0  0  0
   69.7540   52.5160   10.5870 C   0  0  0  0  0  0  0  0  0  0  0  0
   69.7510   51.2580   11.1990 C   0  0  0  0  0  0  0  0  0  0  0  0
   70.9360   50.4100   11.1410 C   0  0  0  0  0  0  0  0  0  0  0  0
   71.6800   49.8890   12.2490 C   0  0  0  0  0  0  0  0  0  0  0  0
   72.7580   49.1280   11.8540 C   0  0  0  0  0  0  0  0  0  0  0  0
   72.8900   49.0420   10.1520 S   0  0  0  0  0  0  0  0  0  0  0  0
   71.5030   50.0240    9.9420 C   0  0  0  0  0  0  0  0  0  0  0  0
   68.5980   50.8420   11.8700 C   0  0  0  0  0  0  0  0  0  0  0  0
   67.4720   51.6730   11.9210 C   0  0  0  0  0  0  0  0  0  0  0  0
   67.4570   52.9230   11.3170 C   0  0  0  0  0  0  0  0  0  0  0  0
   66.3490   53.6810   11.3960 N   0  0  0  0  0  0  0  0  0  0  0  0
   64.8700   55.5720   11.8640 H   0  0  0  0  0  0  0  0  0  0  0  0
   65.3210   56.5880   10.6030 H   0  0  0  0  0  0  0  0  0  0  0  0
   67.4047   56.3728    9.6338 H   0  0  0  0  0  0  0  0  0  0  0  0
   69.4777   54.9731    9.4905 H   0  0  0  0  0  0  0  0  0  0  0  0
   70.6544   52.8611   10.0576 H   0  0  0  0  0  0  0  0  0  0  0  0
   71.4187   50.0764   13.3010 H   0  0  0  0  0  0  0  0  0  0  0  0
   73.4514   48.6344   12.5509 H   0  0  0  0  0  0  0  0  0  0  0  0
   71.1063   50.3159    8.9584 H   0  0  0  0  0  0  0  0  0  0  0  0
   68.5748   49.8576   12.3602 H   0  0  0  0  0  0  0  0  0  0  0  0
   66.5747   51.3258   12.4543 H   0  0  0  0  0  0  0  0  0  0  0  0
  1  2  1  0
  2  3  2  0
  3  4  1  0
  4  5  2  0
  5  6  1  0
  6  7  2  0
  7  8  1  0
  8  9  1  0
  9 10  2  0
 10 11  1  0
 11 12  1  0
  7 13  1  0
 13 14  2  0
 14 15  1  0
 15 16  2  0
 16  2  1  0
 15  5  1  0
 12  8  2  0
  1 17  1  0
  1 18  1  0
  3 19  1  0
  4 20  1  0
  6 21  1  0
  9 22  1  0
 10 23  1  0
 12 24  1  0
 13 25  1  0
 14 26  1  0
M  END
>  <meeko>  (1) 
{"is_sidechain": [false], "free_energy": -7.493, "intermolecular_energy": -8.15, "internal_energy": -0.158}

$$$$
3rsx_ligand
     RDKit          3D

 26 28  0  0  0  0  0  0  0  0999 V2000
   73.8160   50.6030   14.4470 N   0  0  0  0  0  0  0  0  0  0  0  0
   72.6790   50.6050   13.6420 C   0  0  0  0  0  0  0  0  0  0  0  0
   71.6710   51.5300   13.8530 C   0  0  0  0  0  0  0  0  0  0  0  0
   70.5450   51.4860   13.0400 C   0  0  0  0  0  0  0  0  0  0  0  0
   70.4540   50.5110   12.0410 C   0  0  0  0  0  0  0  0  0  0  0  0
   69.3340   50.4220   11.1920 C   0  0  0  0  0  0  0  0  0  0  0  0
   69.2630   49.4330   10.2060 C   0  0  0  0  0  0  0  0  0  0  0  0
   68.1010   49.3530    9.3280 C   0  0  0  0  0  0  0  0  0  0  0  0
   66.7310   49.5730    9.6860 C   0  0  0  0  0  0  0  0  0  0  0  0
   65.8720   49.4100    8.6210 C   0  0  0  0  0  0  0  0  0  0  0  0
   66.7010   48.9800    7.1900 S   0  0  0  0  0  0  0  0  0  0  0  0
   68.2130   49.0130    7.9930 C   0  0  0  0  0  0  0  0  0  0  0  0
   70.3280   48.5380   10.0760 C   0  0  0  0  0  0  0  0  0  0  0  0
   71.4380   48.6330   10.9230 C   0  0  0  0  0  0  0  0  0  0  0  0
   71.5250   49.6070   11.9090 C   0  0  0  0  0  0  0  0  0  0  0  0
   72.6140   49.6550   12.6960 N   0  0  0  0  0  0  0  0  0  0  0  0
   74.2140   49.6680   14.3900 H   0  0  0  0  0  0  0  0  0  0  0  0
   74.4780   51.3130   14.1580 H   0  0  0  0  0  0  0  0  0  0  0  0
   71.7596   52.2847   14.6483 H   0  0  0  0  0  0  0  0  0  0  0  0
   69.7312   52.2125   13.1809 H   0  0  0  0  0  0  0  0  0  0  0  0
   68.5065   51.1378   11.3056 H   0  0  0  0  0  0  0  0  0  0  0  0
   66.4011   49.8425   10.7002 H   0  0  0  0  0  0  0  0  0  0  0  0
   64.7817   49.5412    8.6845 H   0  0  0  0  0  0  0  0  0  0  0  0
   69.1701   48.7879    7.4997 H   0  0  0  0  0  0  0  0  0  0  0  0
   70.2938   47.7549    9.3042 H   0  0  0  0  0  0  0  0  0  0  0  0
   72.2642   47.9165   10.8045 H   0  0  0  0  0  0  0  0  0  0  0  0
  1  2  1  0
  2  3  2  0
  3  4  1  0
  4  5  2  0
  5  6  1  0
  6  7  2  0
  7  8  1  0
  8  9  1  0
  9 10  2  0
 10 11  1  0
 11 12  1  0
  7 13  1  0
 13 14  2  0
 14 15  1  0
 15 16  2  0
 16  2  1  0
 15  5  1  0
 12  8  2  0
  1 17  1  0
  1 18  1  0
  3 19  1  0
  4 20  1  0
  6 21  1  0
  9 22  1  0
 10 23  1  0
 12 24  1  0
 13 25  1  0
 14 26  1  0
M  END
>  <meeko>  (2) 
{"is_sidechain": [false], "free_energy": -7.368, "intermolecular_energy": -8.007, "internal_energy": -0.165}

$$$$
3rsx_ligand
     RDKit          3D

 26 28  0  0  0  0  0  0  0  0999 V2000
   73.1730   47.7450   12.2890 N   0  0  0  0  0  0  0  0  0  0  0  0
   72.4090   48.9070   12.2140 C   0  0  0  0  0  0  0  0  0  0  0  0
   72.4120   49.8170   13.2560 C   0  0  0  0  0  0  0  0  0  0  0  0
   71.6190   50.9550   13.1500 C   0  0  0  0  0  0  0  0  0  0  0  0
   70.8390   51.1470   12.0050 C   0  0  0  0  0  0  0  0  0  0  0  0
   70.0180   52.2790   11.8480 C   0  0  0  0  0  0  0  0  0  0  0  0
   69.2400   52.4440   10.6970 C   0  0  0  0  0  0  0  0  0  0  0  0
   68.3980   53.6250   10.5430 C   0  0  0  0  0  0  0  0  0  0  0  0
   68.6700   54.7820    9.7430 C   0  0  0  0  0  0  0  0  0  0  0  0
   67.6730   55.7290    9.8230 C   0  0  0  0  0  0  0  0  0  0  0  0
   66.4110   55.2420   10.8670 S   0  0  0  0  0  0  0  0  0  0  0  0
   67.1970   53.7610   11.2130 C   0  0  0  0  0  0  0  0  0  0  0  0
   69.2980   51.4640    9.7030 C   0  0  0  0  0  0  0  0  0  0  0  0
   70.1170   50.3410    9.8660 C   0  0  0  0  0  0  0  0  0  0  0  0
   70.8940   50.1590   11.0020 C   0  0  0  0  0  0  0  0  0  0  0  0
   71.6630   49.0620   11.1080 N   0  0  0  0  0  0  0  0  0  0  0  0
   72.5600   47.0120   12.6380 H   0  0  0  0  0  0  0  0  0  0  0  0
   73.5750   47.5050   11.3910 H   0  0  0  0  0  0  0  0  0  0  0  0
   73.0289   49.6442   14.1502 H   0  0  0  0  0  0  0  0  0  0  0  0
   71.6055   51.6984   13.9607 H   0  0  0  0  0  0  0  0  0  0  0  0
   69.9876   53.0427   12.6391 H   0  0  0  0  0  0  0  0  0  0  0  0
   69.5765   54.9011    9.1314 H   0  0  0  0  0  0  0  0  0  0  0  0
   67.6875   56.6852    9.2794 H   0  0  0  0  0  0  0  0  0  0  0  0
   66.7900   52.9999   11.8950 H   0  0  0  0  0  0  0  0  0  0  0  0
   68.6973   51.5756    8.7883 H   0  0  0  0  0  0  0  0  0  0  0  0
   70.1459   49.5809    9.0714 H   0  0  0  0  0  0  0  0  0  0  0  0
  1  2  1  0
  2  3  2  0
  3  4  1  0
  4  5  2  0
  5  6  1  0
  6  7  2  0
  7  8  1  0
  8  9  1  0
  9 10  2  0
 10 11  1  0
 11 12  1  0
  7 13  1  0
 13 14  2  0
 14 15  1  0
 15 16  2  0
 16  2  1  0
 15  5  1  0
 12  8  2  0
  1 17  1  0
  1 18  1  0
  3 19  1  0
  4 20  1  0
  6 21  1  0
  9 22  1  0
 10 23  1  0
 12 24  1  0
 13 25  1  0
 14 26  1  0
M  END
>  <meeko>  (3) 
{"is_sidechain": [false], "free_energy": -7.302, "intermolecular_energy": -7.946, "internal_energy": -0.154}

$$$$
3rsx_ligand
     RDKit          3D

 26 28  0  0  0  0  0  0  0  0999 V2000
   67.1000   48.5060    5.8970 N   0  0  0  0  0  0  0  0  0  0  0  0
   67.6220   48.8040    7.1530 C   0  0  0  0  0  0  0  0  0  0  0  0
   66.7990   48.8370    8.2660 C   0  0  0  0  0  0  0  0  0  0  0  0
   67.3560   49.1580    9.4980 C   0  0  0  0  0  0  0  0  0  0  0  0
   68.7230   49.4450    9.5830 C   0  0  0  0  0  0  0  0  0  0  0  0
   69.3370   49.7770   10.8050 C   0  0  0  0  0  0  0  0  0  0  0  0
   70.7040   50.0680   10.8630 C   0  0  0  0  0  0  0  0  0  0  0  0
   71.3300   50.4050   12.1360 C   0  0  0  0  0  0  0  0  0  0  0  0
   70.9410   51.4450   13.0420 C   0  0  0  0  0  0  0  0  0  0  0  0
   71.7490   51.5080   14.1560 C   0  0  0  0  0  0  0  0  0  0  0  0
   72.9860   50.3290   14.1160 S   0  0  0  0  0  0  0  0  0  0  0  0
   72.4400   49.7300   12.6080 C   0  0  0  0  0  0  0  0  0  0  0  0
   71.4500   50.0160    9.6830 C   0  0  0  0  0  0  0  0  0  0  0  0
   70.8330   49.6840    8.4710 C   0  0  0  0  0  0  0  0  0  0  0  0
   69.4780   49.3950    8.3940 C   0  0  0  0  0  0  0  0  0  0  0  0
   68.9350   49.0820    7.2050 N   0  0  0  0  0  0  0  0  0  0  0  0
   66.4230   47.7570    6.0310 H   0  0  0  0  0  0  0  0  0  0  0  0
   66.6790   49.3200    5.4660 H   0  0  0  0  0  0  0  0  0  0  0  0
   65.7256   48.6136    8.1768 H   0  0  0  0  0  0  0  0  0  0  0  0
   66.7269   49.1863   10.3999 H   0  0  0  0  0  0  0  0  0  0  0  0
   68.7350   49.8080   11.7251 H   0  0  0  0  0  0  0  0  0  0  0  0
   70.0899   52.1195   12.8670 H   0  0  0  0  0  0  0  0  0  0  0  0
   71.6142   52.2310   14.9740 H   0  0  0  0  0  0  0  0  0  0  0  0
   72.9206   48.8979   12.0726 H   0  0  0  0  0  0  0  0  0  0  0  0
   72.5273   50.2370    9.7063 H   0  0  0  0  0  0  0  0  0  0  0  0
   71.4394   49.6513    7.5539 H   0  0  0  0  0  0  0  0  0  0  0  0
  1  2  1  0
  2  3  2  0
  3  4  1  0
  4  5  2  0
  5  6  1  0
  6  7  2  0
  7  8  1  0
  8  9  1  0
  9 10  2  0
 10 11  1  0
 11 12  1  0
  7 13  1  0
 13 14  2  0
 14 15  1  0
 15 16  2  0
 16  2  1  0
 15  5  1  0
 12  8  2  0
  1 17  1  0
  1 18  1  0
  3 19  1  0
  4 20  1  0
  6 21  1  0
  9 22  1  0
 10 23  1  0
 12 24  1  0
 13 25  1  0
 14 26  1  0
M  END
>  <meeko>  (4) 
{"is_sidechain": [false], "free_energy": -7.251, "intermolecular_energy": -7.886, "internal_energy": -0.159}

$$$$
3rsx_ligand
     RDKit          3D

 26 28  0  0  0  0  0  0  0  0999 V2000
   73.5210   50.7740   14.2150 N   0  0  0  0  0  0  0  0  0  0  0  0
   72.6060   50.3360   13.2600 C   0  0  0  0  0  0  0  0  0  0  0  0
   72.9410   49.3180   12.3840 C   0  0  0  0  0  0  0  0  0  0  0  0
   72.0070   48.9230   11.4340 C   0  0  0  0  0  0  0  0  0  0  0  0
   70.7640   49.5630   11.3810 C   0  0  0  0  0  0  0  0  0  0  0  0
   69.7830   49.2020   10.4370 C   0  0  0  0  0  0  0  0  0  0  0  0
   68.5510   49.8630   10.3990 C   0  0  0  0  0  0  0  0  0  0  0  0
   67.5400   49.4770    9.4220 C   0  0  0  0  0  0  0  0  0  0  0  0
   66.1820   49.1050    9.6840 C   0  0  0  0  0  0  0  0  0  0  0  0
   65.4890   48.7850    8.5370 C   0  0  0  0  0  0  0  0  0  0  0  0
   66.4660   48.9170    7.1410 S   0  0  0  0  0  0  0  0  0  0  0  0
   67.8190   49.4050    8.0700 C   0  0  0  0  0  0  0  0  0  0  0  0
   68.3100   50.8850   11.3210 C   0  0  0  0  0  0  0  0  0  0  0  0
   69.2890   51.2370   12.2580 C   0  0  0  0  0  0  0  0  0  0  0  0
   70.5190   50.5950   12.3080 C   0  0  0  0  0  0  0  0  0  0  0  0
   71.4250   50.9720   13.2270 N   0  0  0  0  0  0  0  0  0  0  0  0
   73.1250   51.6110   14.6370 H   0  0  0  0  0  0  0  0  0  0  0  0
   73.7110   50.0580   14.9060 H   0  0  0  0  0  0  0  0  0  0  0  0
   73.9262   48.8318   12.4387 H   0  0  0  0  0  0  0  0  0  0  0  0
   72.2433   48.1128   10.7285 H   0  0  0  0  0  0  0  0  0  0  0  0
   69.9880   48.3916    9.7220 H   0  0  0  0  0  0  0  0  0  0  0  0
   65.7404   49.0777   10.6911 H   0  0  0  0  0  0  0  0  0  0  0  0
   64.4321   48.4806    8.5216 H   0  0  0  0  0  0  0  0  0  0  0  0
   68.8037   49.6362    7.6377 H   0  0  0  0  0  0  0  0  0  0  0  0
   67.3464   51.4155   11.3106 H   0  0  0  0  0  0  0  0  0  0  0  0
   69.0778   52.0446   12.9744 H   0  0  0  0  0  0  0  0  0  0  0  0
  1  2  1  0
  2  3  2  0
  3  4  1  0
  4  5  2  0
  5  6  1  0
  6  7  2  0
  7  8  1  0
  8  9  1  0
  9 10  2  0
 10 11  1  0
 11 12  1  0
  7 13  1  0
 13 14  2  0
 14 15  1  0
 15 16  2  0
 16  2  1  0
 15  5  1  0
 12  8  2  0
  1 17  1  0
  1 18  1  0
  3 19  1  0
  4 20  1  0
  6 21  1  0
  9 22  1  0
 10 23  1  0
 12 24  1  0
 13 25  1  0
 14 26  1  0
M  END
>  <meeko>  (5) 
{"is_sidechain": [false], "free_energy": -6.941, "intermolecular_energy": -7.548, "internal_energy": -0.159}

$$$$
3rsx_ligand
     RDKit          3D

 26 28  0  0  0  0  0  0  0  0999 V2000
   70.7230   52.5980   14.2560 N   0  0  0  0  0  0  0  0  0  0  0  0
   71.1700   51.4900   13.5410 C   0  0  0  0  0  0  0  0  0  0  0  0
   72.3680   50.8800   13.8700 C   0  0  0  0  0  0  0  0  0  0  0  0
   72.7880   49.7880   13.1190 C   0  0  0  0  0  0  0  0  0  0  0  0
   72.0000   49.3400   12.0530 C   0  0  0  0  0  0  0  0  0  0  0  0
   72.3810   48.2410   11.2600 C   0  0  0  0  0  0  0  0  0  0  0  0
   71.5800   47.8180   10.1940 C   0  0  0  0  0  0  0  0  0  0  0  0
   71.9810   46.6740    9.3830 C   0  0  0  0  0  0  0  0  0  0  0  0
   71.1900   45.5230    9.0620 C   0  0  0  0  0  0  0  0  0  0  0  0
   71.8700   44.6140    8.2820 C   0  0  0  0  0  0  0  0  0  0  0  0
   73.4630   45.1290    7.9400 S   0  0  0  0  0  0  0  0  0  0  0  0
   73.2460   46.5720    8.8350 C   0  0  0  0  0  0  0  0  0  0  0  0
   70.3920   48.5050    9.9350 C   0  0  0  0  0  0  0  0  0  0  0  0
   70.0190   49.5970   10.7280 C   0  0  0  0  0  0  0  0  0  0  0  0
   70.8020   50.0320   11.7880 C   0  0  0  0  0  0  0  0  0  0  0  0
   70.3990   51.0870   12.5190 N   0  0  0  0  0  0  0  0  0  0  0  0
   71.4500   52.8250   14.9310 H   0  0  0  0  0  0  0  0  0  0  0  0
   70.5200   53.3800   13.6440 H   0  0  0  0  0  0  0  0  0  0  0  0
   72.9754   51.2516   14.7085 H   0  0  0  0  0  0  0  0  0  0  0  0
   73.7331   49.2798   13.3611 H   0  0  0  0  0  0  0  0  0  0  0  0
   73.3183   47.7094   11.4809 H   0  0  0  0  0  0  0  0  0  0  0  0
   70.1533   45.3810    9.4014 H   0  0  0  0  0  0  0  0  0  0  0  0
   71.4386   43.6684    7.9218 H   0  0  0  0  0  0  0  0  0  0  0  0
   74.0282   47.3352    8.9604 H   0  0  0  0  0  0  0  0  0  0  0  0
   69.7459   48.1865    9.1036 H   0  0  0  0  0  0  0  0  0  0  0  0
   69.0798   50.1244   10.5048 H   0  0  0  0  0  0  0  0  0  0  0  0
  1  2  1  0
  2  3  2  0
  3  4  1  0
  4  5  2  0
  5  6  1  0
  6  7  2  0
  7  8  1  0
  8  9  1  0
  9 10  2  0
 10 11  1  0
 11 12  1  0
  7 13  1  0
 13 14  2  0
 14 15  1  0
 15 16  2  0
 16  2  1  0
 15  5  1  0
 12  8  2  0
  1 17  1  0
  1 18  1  0
  3 19  1  0
  4 20  1  0
  6 21  1  0
  9 22  1  0
 10 23  1  0
 12 24  1  0
 13 25  1  0
 14 26  1  0
M  END
>  <meeko>  (6) 
{"is_sidechain": [false], "free_energy": -6.548, "intermolecular_energy": -7.12, "internal_energy": -0.16}

$$$$
3rsx_ligand
     RDKit          3D

 26 28  0  0  0  0  0  0  0  0999 V2000
   63.0560   51.1660   10.5590 N   0  0  0  0  0  0  0  0  0  0  0  0
   64.3840   50.7530   10.4910 C   0  0  0  0  0  0  0  0  0  0  0  0
   64.7400   49.6580    9.7230 C   0  0  0  0  0  0  0  0  0  0  0  0
   66.0730   49.2660    9.6980 C   0  0  0  0  0  0  0  0  0  0  0  0
   67.0150   49.9770   10.4500 C   0  0  0  0  0  0  0  0  0  0  0  0
   68.3770   49.6200   10.4620 C   0  0  0  0  0  0  0  0  0  0  0  0
   69.2980   50.3420   11.2290 C   0  0  0  0  0  0  0  0  0  0  0  0
   70.7070   49.9680   11.2280 C   0  0  0  0  0  0  0  0  0  0  0  0
   71.5980   49.9540   12.3510 C   0  0  0  0  0  0  0  0  0  0  0  0
   72.8730   49.5600   12.0110 C   0  0  0  0  0  0  0  0  0  0  0  0
   73.0130   49.2150   10.3430 S   0  0  0  0  0  0  0  0  0  0  0  0
   71.3650   49.5920   10.0720 C   0  0  0  0  0  0  0  0  0  0  0  0
   68.8400   51.4280   11.9790 C   0  0  0  0  0  0  0  0  0  0  0  0
   67.4840   51.7770   11.9620 C   0  0  0  0  0  0  0  0  0  0  0  0
   66.5560   51.0710   11.2090 C   0  0  0  0  0  0  0  0  0  0  0  0
   65.2650   51.4480   11.2290 N   0  0  0  0  0  0  0  0  0  0  0  0
   62.8700   51.6970    9.7100 H   0  0  0  0  0  0  0  0  0  0  0  0
   62.4250   50.3790   10.6560 H   0  0  0  0  0  0  0  0  0  0  0  0
   63.9829   49.1090    9.1439 H   0  0  0  0  0  0  0  0  0  0  0  0
   66.3854   48.4031    9.0915 H   0  0  0  0  0  0  0  0  0  0  0  0
   68.7206   48.7644    9.8620 H   0  0  0  0  0  0  0  0  0  0  0  0
   71.2962   50.2280   13.3727 H   0  0  0  0  0  0  0  0  0  0  0  0
   73.7030   49.4772   12.7281 H   0  0  0  0  0  0  0  0  0  0  0  0
   70.8822   49.5406    9.0850 H   0  0  0  0  0  0  0  0  0  0  0  0
   69.5479   52.0117   12.5858 H   0  0  0  0  0  0  0  0  0  0  0  0
   67.1449   52.6343   12.5620 H   0  0  0  0  0  0  0  0  0  0  0  0
  1  2  1  0
  2  3  2  0
  3  4  1  0
  4  5  2  0
  5  6  1  0
  6  7  2  0
  7  8  1  0
  8  9  1  0
  9 10  2  0
 10 11  1  0
 11 12  1  0
  7 13  1  0
 13 14  2  0
 14 15  1  0
 15 16  2  0
 16  2  1  0
 15  5  1  0
 12  8  2  0
  1 17  1  0
  1 18  1  0
  3 19  1  0
  4 20  1  0
  6 21  1  0
  9 22  1  0
 10 23  1  0
 12 24  1  0
 13 25  1  0
 14 26  1  0
M  END
>  <meeko>  (7) 
{"is_sidechain": [false], "free_energy": -6.547, "intermolecular_energy": -7.116, "internal_energy": -0.163}

$$$$
3rsx_ligand
     RDKit          3D

 26 28  0  0  0  0  0  0  0  0999 V2000
   73.2120   47.0140    4.9730 N   0  0  0  0  0  0  0  0  0  0  0  0
   73.1960   47.7100    6.1790 C   0  0  0  0  0  0  0  0  0  0  0  0
   74.2250   48.5770    6.5020 C   0  0  0  0  0  0  0  0  0  0  0  0
   74.1800   49.2380    7.7250 C   0  0  0  0  0  0  0  0  0  0  0  0
   73.1100   49.0070    8.5950 C   0  0  0  0  0  0  0  0  0  0  0  0
   73.0180   49.6480    9.8440 C   0  0  0  0  0  0  0  0  0  0  0  0
   71.9410   49.3940   10.7010 C   0  0  0  0  0  0  0  0  0  0  0  0
   71.8530   50.0690   11.9900 C   0  0  0  0  0  0  0  0  0  0  0  0
   72.7070   49.8780   13.1260 C   0  0  0  0  0  0  0  0  0  0  0  0
   72.3470   50.6650   14.1970 C   0  0  0  0  0  0  0  0  0  0  0  0
   70.9780   51.6280   13.8540 S   0  0  0  0  0  0  0  0  0  0  0  0
   70.8650   50.9940   12.2670 C   0  0  0  0  0  0  0  0  0  0  0  0
   70.9550   48.4940   10.2890 C   0  0  0  0  0  0  0  0  0  0  0  0
   71.0530   47.8600    9.0440 C   0  0  0  0  0  0  0  0  0  0  0  0
   72.1150   48.0980    8.1830 C   0  0  0  0  0  0  0  0  0  0  0  0
   72.1610   47.4630    6.9980 N   0  0  0  0  0  0  0  0  0  0  0  0
   74.1760   47.0160    4.6450 H   0  0  0  0  0  0  0  0  0  0  0  0
   72.8540   46.0720    5.0810 H   0  0  0  0  0  0  0  0  0  0  0  0
   75.0611   48.7401    5.8061 H   0  0  0  0  0  0  0  0  0  0  0  0
   74.9808   49.9378    8.0059 H   0  0  0  0  0  0  0  0  0  0  0  0
   73.8014   50.3568   10.1505 H   0  0  0  0  0  0  0  0  0  0  0  0
   73.5565   49.1794   13.1403 H   0  0  0  0  0  0  0  0  0  0  0  0
   72.8783   50.6728   15.1601 H   0  0  0  0  0  0  0  0  0  0  0  0
   70.0893   51.2913   11.5460 H   0  0  0  0  0  0  0  0  0  0  0  0
   70.0980   48.2824   10.9453 H   0  0  0  0  0  0  0  0  0  0  0  0
   70.2663   47.1538    8.7402 H   0  0  0  0  0  0  0  0  0  0  0  0
  1  2  1  0
  2  3  2  0
  3  4  1  0
  4  5  2  0
  5  6  1  0
  6  7  2  0
  7  8  1  0
  8  9  1  0
  9 10  2  0
 10 11  1  0
 11 12  1  0
  7 13  1  0
 13 14  2  0
 14 15  1  0
 15 16  2  0
 16  2  1  0
 15  5  1  0
 12  8  2  0
  1 17  1  0
  1 18  1  0
  3 19  1  0
  4 20  1  0
  6 21  1  0
  9 22  1  0
 10 23  1  0
 12 24  1  0
 13 25  1  0
 14 26  1  0
M  END
>  <meeko>  (8) 
{"is_sidechain": [false], "free_energy": -6.522, "intermolecular_energy": -7.097, "internal_energy": -0.155}

$$$$
3rsx_ligand
     RDKit          3D

 26 28  0  0  0  0  0  0  0  0999 V2000
   70.8790   52.3450   14.2440 N   0  0  0  0  0  0  0  0  0  0  0  0
   70.7440   51.4470   13.1880 C   0  0  0  0  0  0  0  0  0  0  0  0
   69.6250   51.4850   12.3740 C   0  0  0  0  0  0  0  0  0  0  0  0
   69.5200   50.5590   11.3430 C   0  0  0  0  0  0  0  0  0  0  0  0
   70.5340   49.6130   11.1590 C   0  0  0  0  0  0  0  0  0  0  0  0
   70.4750   48.6520   10.1320 C   0  0  0  0  0  0  0  0  0  0  0  0
   71.4980   47.7110    9.9740 C   0  0  0  0  0  0  0  0  0  0  0  0
   71.4300   46.7240    8.9030 C   0  0  0  0  0  0  0  0  0  0  0  0
   70.3360   45.8470    8.6040 C   0  0  0  0  0  0  0  0  0  0  0  0
   70.5940   45.0250    7.5300 C   0  0  0  0  0  0  0  0  0  0  0  0
   72.1520   45.2900    6.8810 S   0  0  0  0  0  0  0  0  0  0  0  0
   72.4840   46.5090    8.0370 C   0  0  0  0  0  0  0  0  0  0  0  0
   72.5830   47.7470   10.8540 C   0  0  0  0  0  0  0  0  0  0  0  0
   72.6360   48.7060   11.8720 C   0  0  0  0  0  0  0  0  0  0  0  0
   71.6280   49.6460   12.0450 C   0  0  0  0  0  0  0  0  0  0  0  0
   71.7280   50.5450   13.0400 N   0  0  0  0  0  0  0  0  0  0  0  0
   71.7880   52.1670   14.6660 H   0  0  0  0  0  0  0  0  0  0  0  0
   70.7910   53.3040   13.9310 H   0  0  0  0  0  0  0  0  0  0  0  0
   68.8353   52.2326   12.5398 H   0  0  0  0  0  0  0  0  0  0  0  0
   68.6453   50.5699   10.6760 H   0  0  0  0  0  0  0  0  0  0  0  0
   69.6150   48.6409    9.4462 H   0  0  0  0  0  0  0  0  0  0  0  0
   69.3934   45.8324    9.1708 H   0  0  0  0  0  0  0  0  0  0  0  0
   69.8814   44.2852    7.1364 H   0  0  0  0  0  0  0  0  0  0  0  0
   73.4342   47.0611    8.0846 H   0  0  0  0  0  0  0  0  0  0  0  0
   73.3995   47.0179   10.7460 H   0  0  0  0  0  0  0  0  0  0  0  0
   73.4993   48.7156   12.5536 H   0  0  0  0  0  0  0  0  0  0  0  0
  1  2  1  0
  2  3  2  0
  3  4  1  0
  4  5  2  0
  5  6  1  0
  6  7  2  0
  7  8  1  0
  8  9  1  0
  9 10  2  0
 10 11  1  0
 11 12  1  0
  7 13  1  0
 13 14  2  0
 14 15  1  0
 15 16  2  0
 16  2  1  0
 15  5  1  0
 12  8  2  0
  1 17  1  0
  1 18  1  0
  3 19  1  0
  4 20  1  0
  6 21  1  0
  9 22  1  0
 10 23  1  0
 12 24  1  0
 13 25  1  0
 14 26  1  0
M  END
>  <meeko>  (9) 
{"is_sidechain": [false], "free_energy": -6.343, "intermolecular_energy": -6.897, "internal_energy": -0.16}

$$$$
