3kwa_ligand
     RDKit          3D

 44 43  0  0  0  0  0  0  0  0999 V2000
   -4.5470    0.8040   11.0050 N   0  0  0  0  0  0  0  0  0  0  0  0
   -4.3460    1.8960   11.9940 C   0  0  0  0  0  0  0  0  0  0  0  0
   -4.1370    3.2480   11.2940 C   0  0  0  0  0  0  0  0  0  0  0  0
   -2.6420    3.5710   11.1200 C   0  0  0  0  0  0  0  0  0  0  0  0
   -1.9190    3.4860   12.4480 N   0  0  0  0  0  0  0  0  0  0  0  0
   -1.5720    4.8310   13.0500 C   0  0  0  0  0  0  0  0  0  0  0  0
   -2.2970    5.0120   14.3960 C   0  0  0  0  0  0  0  0  0  0  0  0
   -3.8050    5.3350   14.2440 C   0  0  0  0  0  0  0  0  0  0  0  0
   -4.6910    4.2490   14.8790 C   0  0  0  0  0  0  0  0  0  0  0  0
   -3.8880    3.0640   15.3590 N   0  0  0  0  0  0  0  0  0  0  0  0
   -4.6420    1.9720   16.0790 C   0  0  0  0  0  0  0  0  0  0  0  0
   -6.0570    2.4590   16.4490 C   0  0  0  0  0  0  0  0  0  0  0  0
   -6.6800    1.6220   17.5760 C   0  0  0  0  0  0  0  0  0  0  0  0
   -6.0090    0.3020   17.6950 N   0  0  0  0  0  0  0  0  0  0  0  0
   -4.9160   -0.0700   11.4080 H   0  0  0  0  0  0  0  0  0  0  0  0
   -3.7020    0.5610   10.4650 H   0  0  0  0  0  0  0  0  0  0  0  0
   -5.2450    1.0810   10.2920 H   0  0  0  0  0  0  0  0  0  0  0  0
   -5.2324    1.9607   12.6422 H   0  0  0  0  0  0  0  0  0  0  0  0
   -3.4479    1.6681   12.5869 H   0  0  0  0  0  0  0  0  0  0  0  0
   -4.6126    3.2140   10.3027 H   0  0  0  0  0  0  0  0  0  0  0  0
   -4.5879    4.0325   11.9194 H   0  0  0  0  0  0  0  0  0  0  0  0
   -2.1959    2.8502   10.4190 H   0  0  0  0  0  0  0  0  0  0  0  0
   -2.5440    4.5942   10.7283 H   0  0  0  0  0  0  0  0  0  0  0  0
   -2.4950    2.9570   13.1200 H   0  0  0  0  0  0  0  0  0  0  0  0
   -1.0510    2.9390   12.3310 H   0  0  0  0  0  0  0  0  0  0  0  0
   -0.4854    4.8876   13.2117 H   0  0  0  0  0  0  0  0  0  0  0  0
   -1.8901    5.6266   12.3603 H   0  0  0  0  0  0  0  0  0  0  0  0
   -2.1962    4.0817   14.9742 H   0  0  0  0  0  0  0  0  0  0  0  0
   -1.8307    5.8694   14.9034 H   0  0  0  0  0  0  0  0  0  0  0  0
   -4.0140    6.2967   14.7353 H   0  0  0  0  0  0  0  0  0  0  0  0
   -4.0376    5.3798   13.1698 H   0  0  0  0  0  0  0  0  0  0  0  0
   -5.2256    4.6848   15.7359 H   0  0  0  0  0  0  0  0  0  0  0  0
   -5.3907    3.8922   14.1089 H   0  0  0  0  0  0  0  0  0  0  0  0
   -3.0800    3.3880   15.9160 H   0  0  0  0  0  0  0  0  0  0  0  0
   -3.4610    2.6530   14.5120 H   0  0  0  0  0  0  0  0  0  0  0  0
   -4.7201    1.0915   15.4243 H   0  0  0  0  0  0  0  0  0  0  0  0
   -4.1005    1.7079   16.9994 H   0  0  0  0  0  0  0  0  0  0  0  0
   -5.9968    3.5071   16.7774 H   0  0  0  0  0  0  0  0  0  0  0  0
   -6.6944    2.3557   15.5584 H   0  0  0  0  0  0  0  0  0  0  0  0
   -6.5756    2.1652   18.5268 H   0  0  0  0  0  0  0  0  0  0  0  0
   -7.7415    1.4546   17.3412 H   0  0  0  0  0  0  0  0  0  0  0  0
   -6.6220   -0.4580   18.0300 H   0  0  0  0  0  0  0  0  0  0  0  0
   -5.6680   -0.0220   16.7720 H   0  0  0  0  0  0  0  0  0  0  0  0
   -5.1710    0.3050   18.2980 H   0  0  0  0  0  0  0  0  0  0  0  0
  1  2  1  0
  2  3  1  0
  3  4  1  0
  4  5  1  0
  5  6  1  0
  6  7  1  0
  7  8  1  0
  8  9  1  0
  9 10  1  0
 10 11  1  0
 11 12  1  0
 12 13  1  0
 13 14  1  0
  1 15  1  0
  1 16  1  0
  1 17  1  0
  2 18  1  0
  2 19  1  0
  3 20  1  0
  3 21  1  0
  4 22  1  0
  4 23  1  0
  5 24  1  0
  5 25  1  0
  6 26  1  0
  6 27  1  0
  7 28  1  0
  7 29  1  0
  8 30  1  0
  8 31  1  0
  9 32  1  0
  9 33  1  0
 10 34  1  0
 10 35  1  0
 11 36  1  0
 11 37  1  0
 12 38  1  0
 12 39  1  0
 13 40  1  0
 13 41  1  0
 14 42  1  0
 14 43  1  0
 14 44  1  0
M  CHG  4   1   1   5   1  10   1  14   1
M  END
>  <meeko>  (1) 
{"is_sidechain": [false], "free_energy": -4.15, "intermolecular_energy": -7.062, "internal_energy": -0.714}

$$$$
3kwa_ligand
     RDKit          3D

 44 43  0  0  0  0  0  0  0  0999 V2000
   -5.0200    0.5950   16.2920 N   0  0  0  0  0  0  0  0  0  0  0  0
   -6.1310    0.6970   17.2750 C   0  0  0  0  0  0  0  0  0  0  0  0
   -7.1140    1.8140   16.8880 C   0  0  0  0  0  0  0  0  0  0  0  0
   -6.3830    3.1400   16.6130 C   0  0  0  0  0  0  0  0  0  0  0  0
   -6.4270    3.4800   15.1380 N   0  0  0  0  0  0  0  0  0  0  0  0
   -5.0850    3.8650   14.5520 C   0  0  0  0  0  0  0  0  0  0  0  0
   -4.9300    5.3970   14.5440 C   0  0  0  0  0  0  0  0  0  0  0  0
   -3.4530    5.8660   14.5020 C   0  0  0  0  0  0  0  0  0  0  0  0
   -2.4860    4.7530   14.9400 C   0  0  0  0  0  0  0  0  0  0  0  0
   -1.4560    4.4400   13.8810 N   0  0  0  0  0  0  0  0  0  0  0  0
   -1.7280    4.9510   12.4870 C   0  0  0  0  0  0  0  0  0  0  0  0
   -2.2110    3.7990   11.5850 C   0  0  0  0  0  0  0  0  0  0  0  0
   -3.6490    4.0160   11.0900 C   0  0  0  0  0  0  0  0  0  0  0  0
   -4.2320    2.7520   10.5710 N   0  0  0  0  0  0  0  0  0  0  0  0
   -5.3270    0.4550   15.3180 H   0  0  0  0  0  0  0  0  0  0  0  0
   -4.3310   -0.1430   16.5060 H   0  0  0  0  0  0  0  0  0  0  0  0
   -4.4690    1.4720   16.2720 H   0  0  0  0  0  0  0  0  0  0  0  0
   -6.6708   -0.2609   17.3073 H   0  0  0  0  0  0  0  0  0  0  0  0
   -5.7039    0.9345   18.2605 H   0  0  0  0  0  0  0  0  0  0  0  0
   -7.6591    1.5119   15.9815 H   0  0  0  0  0  0  0  0  0  0  0  0
   -7.8064    1.9701   17.7283 H   0  0  0  0  0  0  0  0  0  0  0  0
   -6.8688    3.9452   17.1837 H   0  0  0  0  0  0  0  0  0  0  0  0
   -5.3321    3.0346   16.9203 H   0  0  0  0  0  0  0  0  0  0  0  0
   -6.8030    2.6760   14.6110 H   0  0  0  0  0  0  0  0  0  0  0  0
   -7.0930    4.2530   14.9830 H   0  0  0  0  0  0  0  0  0  0  0  0
   -4.2822    3.4214   15.1593 H   0  0  0  0  0  0  0  0  0  0  0  0
   -5.0232    3.4918   13.5191 H   0  0  0  0  0  0  0  0  0  0  0  0
   -5.4476    5.7952   13.6589 H   0  0  0  0  0  0  0  0  0  0  0  0
   -5.3633    5.7722   15.4828 H   0  0  0  0  0  0  0  0  0  0  0  0
   -3.2049    6.1686   13.4740 H   0  0  0  0  0  0  0  0  0  0  0  0
   -3.3425    6.7085   15.2006 H   0  0  0  0  0  0  0  0  0  0  0  0
   -1.9666    5.0752   15.8545 H   0  0  0  0  0  0  0  0  0  0  0  0
   -3.0776    3.8421   15.1141 H   0  0  0  0  0  0  0  0  0  0  0  0
   -1.2550    3.4260   13.8740 H   0  0  0  0  0  0  0  0  0  0  0  0
   -0.5740    4.8670   14.2120 H   0  0  0  0  0  0  0  0  0  0  0  0
   -2.5042    5.7293   12.5299 H   0  0  0  0  0  0  0  0  0  0  0  0
   -0.8003    5.3698   12.0699 H   0  0  0  0  0  0  0  0  0  0  0  0
   -1.5432    3.7268   10.7139 H   0  0  0  0  0  0  0  0  0  0  0  0
   -2.1936    2.8735   12.1793 H   0  0  0  0  0  0  0  0  0  0  0  0
   -4.2655    4.3797   11.9252 H   0  0  0  0  0  0  0  0  0  0  0  0
   -3.6302    4.7533   10.2739 H   0  0  0  0  0  0  0  0  0  0  0  0
   -4.4040    2.7490    9.5530 H   0  0  0  0  0  0  0  0  0  0  0  0
   -3.5870    1.9570   10.7310 H   0  0  0  0  0  0  0  0  0  0  0  0
   -5.1130    2.4720   11.0300 H   0  0  0  0  0  0  0  0  0  0  0  0
  1  2  1  0
  2  3  1  0
  3  4  1  0
  4  5  1  0
  5  6  1  0
  6  7  1  0
  7  8  1  0
  8  9  1  0
  9 10  1  0
 10 11  1  0
 11 12  1  0
 12 13  1  0
 13 14  1  0
  1 15  1  0
  1 16  1  0
  1 17  1  0
  2 18  1  0
  2 19  1  0
  3 20  1  0
  3 21  1  0
  4 22  1  0
  4 23  1  0
  5 24  1  0
  5 25  1  0
  6 26  1  0
  6 27  1  0
  7 28  1  0
  7 29  1  0
  8 30  1  0
  8 31  1  0
  9 32  1  0
  9 33  1  0
 10 34  1  0
 10 35  1  0
 11 36  1  0
 11 37  1  0
 12 38  1  0
 12 39  1  0
 13 40  1  0
 13 41  1  0
 14 42  1  0
 14 43  1  0
 14 44  1  0
M  CHG  4   1   1   5   1  10   1  14   1
M  END
>  <meeko>  (2) 
{"is_sidechain": [false], "free_energy": -4.121, "intermolecular_energy": -7.091, "internal_energy": -0.634}

$$$$
3kwa_ligand
     RDKit          3D

 44 43  0  0  0  0  0  0  0  0999 V2000
   -5.7090    0.4200   17.1940 N   0  0  0  0  0  0  0  0  0  0  0  0
   -6.3390    1.4920   18.0080 C   0  0  0  0  0  0  0  0  0  0  0  0
   -6.7420    2.6900   17.1320 C   0  0  0  0  0  0  0  0  0  0  0  0
   -5.9230    2.7400   15.8300 C   0  0  0  0  0  0  0  0  0  0  0  0
   -6.1450    4.0530   15.1080 N   0  0  0  0  0  0  0  0  0  0  0  0
   -5.0570    4.4050   14.1160 C   0  0  0  0  0  0  0  0  0  0  0  0
   -4.6230    5.8700   14.3030 C   0  0  0  0  0  0  0  0  0  0  0  0
   -3.0950    6.0370   14.5110 C   0  0  0  0  0  0  0  0  0  0  0  0
   -2.4230    4.7130   14.9110 C   0  0  0  0  0  0  0  0  0  0  0  0
   -1.3410    4.3030   13.9400 N   0  0  0  0  0  0  0  0  0  0  0  0
   -1.3400    4.9780   12.5900 C   0  0  0  0  0  0  0  0  0  0  0  0
   -0.9730    3.9640   11.4900 C   0  0  0  0  0  0  0  0  0  0  0  0
    0.2350    4.4230   10.6590 C   0  0  0  0  0  0  0  0  0  0  0  0
    1.4940    4.3080   11.4400 N   0  0  0  0  0  0  0  0  0  0  0  0
   -4.7160    0.5860   16.9680 H   0  0  0  0  0  0  0  0  0  0  0  0
   -6.1960    0.2200   16.3060 H   0  0  0  0  0  0  0  0  0  0  0  0
   -5.7160   -0.4800   17.7070 H   0  0  0  0  0  0  0  0  0  0  0  0
   -7.2366    1.0888   18.4997 H   0  0  0  0  0  0  0  0  0  0  0  0
   -5.6094    1.8365   18.7557 H   0  0  0  0  0  0  0  0  0  0  0  0
   -7.8092    2.6047   16.8795 H   0  0  0  0  0  0  0  0  0  0  0  0
   -6.5451    3.6123   17.6983 H   0  0  0  0  0  0  0  0  0  0  0  0
   -4.8548    2.6366   16.0712 H   0  0  0  0  0  0  0  0  0  0  0  0
   -6.2479    1.9174   15.1760 H   0  0  0  0  0  0  0  0  0  0  0  0
   -7.0510    4.0250   14.6150 H   0  0  0  0  0  0  0  0  0  0  0  0
   -6.2250    4.8150   15.8000 H   0  0  0  0  0  0  0  0  0  0  0  0
   -4.1912    3.7459   14.2768 H   0  0  0  0  0  0  0  0  0  0  0  0
   -5.4445    4.2723   13.0951 H   0  0  0  0  0  0  0  0  0  0  0  0
   -4.9174    6.4380   13.4082 H   0  0  0  0  0  0  0  0  0  0  0  0
   -5.1175    6.2421   15.2124 H   0  0  0  0  0  0  0  0  0  0  0  0
   -2.6454    6.3949   13.5731 H   0  0  0  0  0  0  0  0  0  0  0  0
   -2.9387    6.7587   15.3263 H   0  0  0  0  0  0  0  0  0  0  0  0
   -1.9764    4.8305   15.9094 H   0  0  0  0  0  0  0  0  0  0  0  0
   -3.1946    3.9290   14.9058 H   0  0  0  0  0  0  0  0  0  0  0  0
   -1.3270    3.2740   13.8420 H   0  0  0  0  0  0  0  0  0  0  0  0
   -0.4460    4.5230   14.4090 H   0  0  0  0  0  0  0  0  0  0  0  0
   -2.3406    5.3877   12.3876 H   0  0  0  0  0  0  0  0  0  0  0  0
   -0.5966    5.7888   12.5940 H   0  0  0  0  0  0  0  0  0  0  0  0
   -0.7327    3.0001   11.9623 H   0  0  0  0  0  0  0  0  0  0  0  0
   -1.8348    3.8732   10.8125 H   0  0  0  0  0  0  0  0  0  0  0  0
    0.3116    3.7954    9.7589 H   0  0  0  0  0  0  0  0  0  0  0  0
    0.0895    5.4777   10.3826 H   0  0  0  0  0  0  0  0  0  0  0  0
    1.4000    4.5580   12.4370 H   0  0  0  0  0  0  0  0  0  0  0  0
    1.8370    3.3310   11.4440 H   0  0  0  0  0  0  0  0  0  0  0  0
    2.2800    4.8600   11.0600 H   0  0  0  0  0  0  0  0  0  0  0  0
  1  2  1  0
  2  3  1  0
  3  4  1  0
  4  5  1  0
  5  6  1  0
  6  7  1  0
  7  8  1  0
  8  9  1  0
  9 10  1  0
 10 11  1  0
 11 12  1  0
 12 13  1  0
 13 14  1  0
  1 15  1  0
  1 16  1  0
  1 17  1  0
  2 18  1  0
  2 19  1  0
  3 20  1  0
  3 21  1  0
  4 22  1  0
  4 23  1  0
  5 24  1  0
  5 25  1  0
  6 26  1  0
  6 27  1  0
  7 28  1  0
  7 29  1  0
  8 30  1  0
  8 31  1  0
  9 32  1  0
  9 33  1  0
 10 34  1  0
 10 35  1  0
 11 36  1  0
 11 37  1  0
 12 38  1  0
 12 39  1  0
 13 40  1  0
 13 41  1  0
 14 42  1  0
 14 43  1  0
 14 44  1  0
M  CHG  4   1   1   5   1  10   1  14   1
M  END
>  <meeko>  (3) 
{"is_sidechain": [false], "free_energy": -3.974, "intermolecular_energy": -7.055, "internal_energy": -0.42}

$$$$
3kwa_ligand
     RDKit          3D

 44 43  0  0  0  0  0  0  0  0999 V2000
   -5.9570    0.5290   17.3370 N   0  0  0  0  0  0  0  0  0  0  0  0
   -5.1870    1.5010   16.5180 C   0  0  0  0  0  0  0  0  0  0  0  0
   -6.0910    2.6320   16.0010 C   0  0  0  0  0  0  0  0  0  0  0  0
   -5.3390    3.5580   15.0290 C   0  0  0  0  0  0  0  0  0  0  0  0
   -3.8460    3.3190   15.1080 N   0  0  0  0  0  0  0  0  0  0  0  0
   -3.0080    4.5600   14.8850 C   0  0  0  0  0  0  0  0  0  0  0  0
   -3.9160    5.7660   14.5850 C   0  0  0  0  0  0  0  0  0  0  0  0
   -3.5620    6.4870   13.2590 C   0  0  0  0  0  0  0  0  0  0  0  0
   -2.2360    5.9800   12.6670 C   0  0  0  0  0  0  0  0  0  0  0  0
   -2.4230    5.3260   11.3190 N   0  0  0  0  0  0  0  0  0  0  0  0
   -2.6330    3.8310   11.3060 C   0  0  0  0  0  0  0  0  0  0  0  0
   -4.1210    3.5050   11.0750 C   0  0  0  0  0  0  0  0  0  0  0  0
   -4.4430    2.0310   11.3660 C   0  0  0  0  0  0  0  0  0  0  0  0
   -3.4150    1.4250   12.2510 N   0  0  0  0  0  0  0  0  0  0  0  0
   -6.2850   -0.2990   16.8150 H   0  0  0  0  0  0  0  0  0  0  0  0
   -6.7770    0.9340   17.8160 H   0  0  0  0  0  0  0  0  0  0  0  0
   -5.3690    0.1450   18.0980 H   0  0  0  0  0  0  0  0  0  0  0  0
   -4.3865    1.9352   17.1350 H   0  0  0  0  0  0  0  0  0  0  0  0
   -4.7648    0.9695   15.6524 H   0  0  0  0  0  0  0  0  0  0  0  0
   -6.9525    2.1901   15.4788 H   0  0  0  0  0  0  0  0  0  0  0  0
   -6.4195    3.2314   16.8629 H   0  0  0  0  0  0  0  0  0  0  0  0
   -5.6825    3.3598   14.0030 H   0  0  0  0  0  0  0  0  0  0  0  0
   -5.5447    4.6026   15.3056 H   0  0  0  0  0  0  0  0  0  0  0  0
   -3.6110    2.9170   16.0300 H   0  0  0  0  0  0  0  0  0  0  0  0
   -3.5760    2.6050   14.4140 H   0  0  0  0  0  0  0  0  0  0  0  0
   -2.4162    4.7664   15.7890 H   0  0  0  0  0  0  0  0  0  0  0  0
   -2.3383    4.3924   14.0286 H   0  0  0  0  0  0  0  0  0  0  0  0
   -4.9560    5.4129   14.5233 H   0  0  0  0  0  0  0  0  0  0  0  0
   -3.7716    6.4921   15.3986 H   0  0  0  0  0  0  0  0  0  0  0  0
   -4.3675    6.3090   12.5313 H   0  0  0  0  0  0  0  0  0  0  0  0
   -3.4515    7.5602   13.4734 H   0  0  0  0  0  0  0  0  0  0  0  0
   -1.5500    6.8325   12.5544 H   0  0  0  0  0  0  0  0  0  0  0  0
   -1.8281    5.2240   13.3540 H   0  0  0  0  0  0  0  0  0  0  0  0
   -1.6550    5.5990   10.6840 H   0  0  0  0  0  0  0  0  0  0  0  0
   -3.2610    5.7700   10.9050 H   0  0  0  0  0  0  0  0  0  0  0  0
   -2.0339    3.3869   10.4974 H   0  0  0  0  0  0  0  0  0  0  0  0
   -2.3209    3.4161   12.2758 H   0  0  0  0  0  0  0  0  0  0  0  0
   -4.7296    4.1382   11.7373 H   0  0  0  0  0  0  0  0  0  0  0  0
   -4.3492    3.6984   10.0165 H   0  0  0  0  0  0  0  0  0  0  0  0
   -5.4243    1.9679   11.8591 H   0  0  0  0  0  0  0  0  0  0  0  0
   -4.4535    1.4805   10.4137 H   0  0  0  0  0  0  0  0  0  0  0  0
   -2.5710    2.0040   12.3820 H   0  0  0  0  0  0  0  0  0  0  0  0
   -3.7900    1.2850   13.2070 H   0  0  0  0  0  0  0  0  0  0  0  0
   -3.0990    0.4890   11.9540 H   0  0  0  0  0  0  0  0  0  0  0  0
  1  2  1  0
  2  3  1  0
  3  4  1  0
  4  5  1  0
  5  6  1  0
  6  7  1  0
  7  8  1  0
  8  9  1  0
  9 10  1  0
 10 11  1  0
 11 12  1  0
 12 13  1  0
 13 14  1  0
  1 15  1  0
  1 16  1  0
  1 17  1  0
  2 18  1  0
  2 19  1  0
  3 20  1  0
  3 21  1  0
  4 22  1  0
  4 23  1  0
  5 24  1  0
  5 25  1  0
  6 26  1  0
  6 27  1  0
  7 28  1  0
  7 29  1  0
  8 30  1  0
  8 31  1  0
  9 32  1  0
  9 33  1  0
 10 34  1  0
 10 35  1  0
 11 36  1  0
 11 37  1  0
 12 38  1  0
 12 39  1  0
 13 40  1  0
 13 41  1  0
 14 42  1  0
 14 43  1  0
 14 44  1  0
M  CHG  4   1   1   5   1  10   1  14   1
M  END
>  <meeko>  (4) 
{"is_sidechain": [false], "free_energy": -3.935, "intermolecular_energy": -6.691, "internal_energy": -0.718}

$$$$
3kwa_ligand
     RDKit          3D

 44 43  0  0  0  0  0  0  0  0999 V2000
   -1.6710    2.8590   12.0670 N   0  0  0  0  0  0  0  0  0  0  0  0
   -1.2360    4.0680   11.3200 C   0  0  0  0  0  0  0  0  0  0  0  0
   -2.2470    4.4350   10.2210 C   0  0  0  0  0  0  0  0  0  0  0  0
   -3.6960    4.3390   10.7310 C   0  0  0  0  0  0  0  0  0  0  0  0
   -4.2520    5.7160   11.0280 N   0  0  0  0  0  0  0  0  0  0  0  0
   -4.6220    5.9330   12.4800 C   0  0  0  0  0  0  0  0  0  0  0  0
   -3.3620    6.2500   13.3060 C   0  0  0  0  0  0  0  0  0  0  0  0
   -3.1400    5.2720   14.4890 C   0  0  0  0  0  0  0  0  0  0  0  0
   -4.1270    4.0930   14.4510 C   0  0  0  0  0  0  0  0  0  0  0  0
   -3.7680    3.0130   15.4430 N   0  0  0  0  0  0  0  0  0  0  0  0
   -4.8660    2.0590   15.8450 C   0  0  0  0  0  0  0  0  0  0  0  0
   -6.1810    2.8290   16.0750 C   0  0  0  0  0  0  0  0  0  0  0  0
   -6.8510    2.4470   17.4040 C   0  0  0  0  0  0  0  0  0  0  0  0
   -7.4000    1.0680   17.3480 N   0  0  0  0  0  0  0  0  0  0  0  0
   -1.0900    2.0230   11.8970 H   0  0  0  0  0  0  0  0  0  0  0  0
   -2.6530    2.5890   11.9020 H   0  0  0  0  0  0  0  0  0  0  0  0
   -1.6090    3.0190   13.0890 H   0  0  0  0  0  0  0  0  0  0  0  0
   -1.1466    4.9106   12.0215 H   0  0  0  0  0  0  0  0  0  0  0  0
   -0.2669    3.8548   10.8453 H   0  0  0  0  0  0  0  0  0  0  0  0
   -2.0534    5.4650    9.8870 H   0  0  0  0  0  0  0  0  0  0  0  0
   -2.1262    3.7241    9.3903 H   0  0  0  0  0  0  0  0  0  0  0  0
   -4.3179    3.8566    9.9625 H   0  0  0  0  0  0  0  0  0  0  0  0
   -3.7059    3.7465   11.6577 H   0  0  0  0  0  0  0  0  0  0  0  0
   -3.5640    6.4320   10.7470 H   0  0  0  0  0  0  0  0  0  0  0  0
   -5.0860    5.8820   10.4430 H   0  0  0  0  0  0  0  0  0  0  0  0
   -5.3266    6.7745   12.5539 H   0  0  0  0  0  0  0  0  0  0  0  0
   -5.0889    5.0178   12.8729 H   0  0  0  0  0  0  0  0  0  0  0  0
   -2.4870    6.1980   12.6414 H   0  0  0  0  0  0  0  0  0  0  0  0
   -3.4985    7.2536   13.7351 H   0  0  0  0  0  0  0  0  0  0  0  0
   -2.1140    4.8787   14.4376 H   0  0  0  0  0  0  0  0  0  0  0  0
   -3.3059    5.8256   15.4249 H   0  0  0  0  0  0  0  0  0  0  0  0
   -5.1345    4.4674   14.6849 H   0  0  0  0  0  0  0  0  0  0  0  0
   -4.0860    3.6521   13.4440 H   0  0  0  0  0  0  0  0  0  0  0  0
   -3.3160    3.4320   16.2730 H   0  0  0  0  0  0  0  0  0  0  0  0
   -3.0130    2.4630   14.9980 H   0  0  0  0  0  0  0  0  0  0  0  0
   -5.0139    1.3175   15.0460 H   0  0  0  0  0  0  0  0  0  0  0  0
   -4.5782    1.5526   16.7781 H   0  0  0  0  0  0  0  0  0  0  0  0
   -5.9634    3.9072   16.0848 H   0  0  0  0  0  0  0  0  0  0  0  0
   -6.8726    2.5682   15.2603 H   0  0  0  0  0  0  0  0  0  0  0  0
   -6.1064    2.5049   18.2116 H   0  0  0  0  0  0  0  0  0  0  0  0
   -7.6794    3.1459   17.5917 H   0  0  0  0  0  0  0  0  0  0  0  0
   -6.6940    0.3360   17.1700 H   0  0  0  0  0  0  0  0  0  0  0  0
   -7.8300    0.8060   18.2530 H   0  0  0  0  0  0  0  0  0  0  0  0
   -8.1530    0.9400   16.6530 H   0  0  0  0  0  0  0  0  0  0  0  0
  1  2  1  0
  2  3  1  0
  3  4  1  0
  4  5  1  0
  5  6  1  0
  6  7  1  0
  7  8  1  0
  8  9  1  0
  9 10  1  0
 10 11  1  0
 11 12  1  0
 12 13  1  0
 13 14  1  0
  1 15  1  0
  1 16  1  0
  1 17  1  0
  2 18  1  0
  2 19  1  0
  3 20  1  0
  3 21  1  0
  4 22  1  0
  4 23  1  0
  5 24  1  0
  5 25  1  0
  6 26  1  0
  6 27  1  0
  7 28  1  0
  7 29  1  0
  8 30  1  0
  8 31  1  0
  9 32  1  0
  9 33  1  0
 10 34  1  0
 10 35  1  0
 11 36  1  0
 11 37  1  0
 12 38  1  0
 12 39  1  0
 13 40  1  0
 13 41  1  0
 14 42  1  0
 14 43  1  0
 14 44  1  0
M  CHG  4   1   1   5   1  10   1  14   1
M  END
>  <meeko>  (5) 
{"is_sidechain": [false], "free_energy": -3.741, "intermolecular_energy": -6.431, "internal_energy": -0.649}

$$$$
3kwa_ligand
     RDKit          3D

 44 43  0  0  0  0  0  0  0  0999 V2000
   -6.0350    0.2010   17.7920 N   0  0  0  0  0  0  0  0  0  0  0  0
   -7.0030    1.1470   17.1780 C   0  0  0  0  0  0  0  0  0  0  0  0
   -6.2800    2.3260   16.5090 C   0  0  0  0  0  0  0  0  0  0  0  0
   -4.7860    2.0250   16.2930 C   0  0  0  0  0  0  0  0  0  0  0  0
   -4.4910    1.8060   14.8230 N   0  0  0  0  0  0  0  0  0  0  0  0
   -4.5820    3.0600   13.9800 C   0  0  0  0  0  0  0  0  0  0  0  0
   -3.9220    4.2410   14.7150 C   0  0  0  0  0  0  0  0  0  0  0  0
   -4.4680    5.6240   14.2720 C   0  0  0  0  0  0  0  0  0  0  0  0
   -3.3350    6.5970   13.9060 C   0  0  0  0  0  0  0  0  0  0  0  0
   -3.6550    7.4120   12.6760 N   0  0  0  0  0  0  0  0  0  0  0  0
   -4.8620    6.9950   11.8720 C   0  0  0  0  0  0  0  0  0  0  0  0
   -5.4540    8.2110   11.1340 C   0  0  0  0  0  0  0  0  0  0  0  0
   -6.7000    7.8400   10.3150 C   0  0  0  0  0  0  0  0  0  0  0  0
   -6.4230    6.6950    9.4100 N   0  0  0  0  0  0  0  0  0  0  0  0
   -5.4210    0.6260   18.5040 H   0  0  0  0  0  0  0  0  0  0  0  0
   -5.4280   -0.2850   17.1130 H   0  0  0  0  0  0  0  0  0  0  0  0
   -6.5320   -0.5580   18.2920 H   0  0  0  0  0  0  0  0  0  0  0  0
   -7.5953    0.6129   16.4204 H   0  0  0  0  0  0  0  0  0  0  0  0
   -7.6541    1.5428   17.9714 H   0  0  0  0  0  0  0  0  0  0  0  0
   -6.7487    2.5254   15.5340 H   0  0  0  0  0  0  0  0  0  0  0  0
   -6.3628    3.2008   17.1707 H   0  0  0  0  0  0  0  0  0  0  0  0
   -4.1900    2.8743   16.6583 H   0  0  0  0  0  0  0  0  0  0  0  0
   -4.5259    1.1104   16.8460 H   0  0  0  0  0  0  0  0  0  0  0  0
   -3.5480    1.4000   14.7190 H   0  0  0  0  0  0  0  0  0  0  0  0
   -5.1430    1.1010   14.4440 H   0  0  0  0  0  0  0  0  0  0  0  0
   -4.0662    2.8931   13.0229 H   0  0  0  0  0  0  0  0  0  0  0  0
   -5.6410    3.2956   13.7985 H   0  0  0  0  0  0  0  0  0  0  0  0
   -4.1014    4.1245   15.7940 H   0  0  0  0  0  0  0  0  0  0  0  0
   -2.8504    4.2201   14.4674 H   0  0  0  0  0  0  0  0  0  0  0  0
   -5.1158    5.4859   13.3938 H   0  0  0  0  0  0  0  0  0  0  0  0
   -5.0288    6.0550   15.1145 H   0  0  0  0  0  0  0  0  0  0  0  0
   -3.1699    7.2817   14.7510 H   0  0  0  0  0  0  0  0  0  0  0  0
   -2.4359    6.0010   13.6904 H   0  0  0  0  0  0  0  0  0  0  0  0
   -2.8170    7.4900   12.0770 H   0  0  0  0  0  0  0  0  0  0  0  0
   -3.8120    8.3780   13.0130 H   0  0  0  0  0  0  0  0  0  0  0  0
   -4.5636    6.2333   11.1366 H   0  0  0  0  0  0  0  0  0  0  0  0
   -5.6218    6.5823   12.5520 H   0  0  0  0  0  0  0  0  0  0  0  0
   -5.7313    8.9751   11.8751 H   0  0  0  0  0  0  0  0  0  0  0  0
   -4.6910    8.5887   10.4374 H   0  0  0  0  0  0  0  0  0  0  0  0
   -7.5136    7.5659   11.0027 H   0  0  0  0  0  0  0  0  0  0  0  0
   -6.9873    8.7078    9.7031 H   0  0  0  0  0  0  0  0  0  0  0  0
   -6.7930    5.7910    9.7420 H   0  0  0  0  0  0  0  0  0  0  0  0
   -6.8700    6.8400    8.4870 H   0  0  0  0  0  0  0  0  0  0  0  0
   -5.4220    6.5560    9.1980 H   0  0  0  0  0  0  0  0  0  0  0  0
  1  2  1  0
  2  3  1  0
  3  4  1  0
  4  5  1  0
  5  6  1  0
  6  7  1  0
  7  8  1  0
  8  9  1  0
  9 10  1  0
 10 11  1  0
 11 12  1  0
 12 13  1  0
 13 14  1  0
  1 15  1  0
  1 16  1  0
  1 17  1  0
  2 18  1  0
  2 19  1  0
  3 20  1  0
  3 21  1  0
  4 22  1  0
  4 23  1  0
  5 24  1  0
  5 25  1  0
  6 26  1  0
  6 27  1  0
  7 28  1  0
  7 29  1  0
  8 30  1  0
  8 31  1  0
  9 32  1  0
  9 33  1  0
 10 34  1  0
 10 35  1  0
 11 36  1  0
 11 37  1  0
 12 38  1  0
 12 39  1  0
 13 40  1  0
 13 41  1  0
 14 42  1  0
 14 43  1  0
 14 44  1  0
M  CHG  4   1   1   5   1  10   1  14   1
M  END
>  <meeko>  (6) 
{"is_sidechain": [false], "free_energy": -3.704, "intermolecular_energy": -6.691, "internal_energy": -0.325}

$$$$
3kwa_ligand
     RDKit          3D

 44 43  0  0  0  0  0  0  0  0999 V2000
   -3.8680    4.6760    9.3320 N   0  0  0  0  0  0  0  0  0  0  0  0
   -3.2950    5.2310   10.5860 C   0  0  0  0  0  0  0  0  0  0  0  0
   -2.2720    4.2640   11.2050 C   0  0  0  0  0  0  0  0  0  0  0  0
   -1.3620    4.9770   12.2210 C   0  0  0  0  0  0  0  0  0  0  0  0
   -1.2830    4.1910   13.5130 N   0  0  0  0  0  0  0  0  0  0  0  0
   -2.0080    4.8370   14.6750 C   0  0  0  0  0  0  0  0  0  0  0  0
   -2.4600    6.2580   14.2940 C   0  0  0  0  0  0  0  0  0  0  0  0
   -3.9870    6.4790   14.4420 C   0  0  0  0  0  0  0  0  0  0  0  0
   -4.7920    5.2600   13.9590 C   0  0  0  0  0  0  0  0  0  0  0  0
   -5.7700    4.7700   15.0000 N   0  0  0  0  0  0  0  0  0  0  0  0
   -6.0950    3.2960   14.9960 C   0  0  0  0  0  0  0  0  0  0  0  0
   -6.2720    2.7870   16.4390 C   0  0  0  0  0  0  0  0  0  0  0  0
   -5.3310    1.6160   16.7600 C   0  0  0  0  0  0  0  0  0  0  0  0
   -4.1750    1.5890   15.8270 N   0  0  0  0  0  0  0  0  0  0  0  0
   -4.5550    3.9190    9.4780 H   0  0  0  0  0  0  0  0  0  0  0  0
   -3.1650    4.3270    8.6620 H   0  0  0  0  0  0  0  0  0  0  0  0
   -4.3880    5.4070    8.8130 H   0  0  0  0  0  0  0  0  0  0  0  0
   -2.7963    6.1853   10.3611 H   0  0  0  0  0  0  0  0  0  0  0  0
   -4.1127    5.3812   11.3062 H   0  0  0  0  0  0  0  0  0  0  0  0
   -2.8113    3.4529   11.7163 H   0  0  0  0  0  0  0  0  0  0  0  0
   -1.6406    3.8670   10.3965 H   0  0  0  0  0  0  0  0  0  0  0  0
   -0.3524    5.0744   11.7953 H   0  0  0  0  0  0  0  0  0  0  0  0
   -1.7829    5.9702   12.4365 H   0  0  0  0  0  0  0  0  0  0  0  0
   -1.6670    3.2450   13.3630 H   0  0  0  0  0  0  0  0  0  0  0  0
   -0.2930    4.0550   13.7710 H   0  0  0  0  0  0  0  0  0  0  0  0
   -2.8895    4.2325   14.9349 H   0  0  0  0  0  0  0  0  0  0  0  0
   -1.3263    4.8955   15.5363 H   0  0  0  0  0  0  0  0  0  0  0  0
   -1.9392    6.9758   14.9448 H   0  0  0  0  0  0  0  0  0  0  0  0
   -2.2124    6.4036   13.2322 H   0  0  0  0  0  0  0  0  0  0  0  0
   -4.2190    6.6613   15.5017 H   0  0  0  0  0  0  0  0  0  0  0  0
   -4.2687    7.3418   13.8206 H   0  0  0  0  0  0  0  0  0  0  0  0
   -5.3502    5.5408   13.0537 H   0  0  0  0  0  0  0  0  0  0  0  0
   -4.0806    4.4459   13.7560 H   0  0  0  0  0  0  0  0  0  0  0  0
   -6.6310    5.3410   14.9710 H   0  0  0  0  0  0  0  0  0  0  0  0
   -5.3460    5.0020   15.9140 H   0  0  0  0  0  0  0  0  0  0  0  0
   -7.0269    3.1308   14.4354 H   0  0  0  0  0  0  0  0  0  0  0  0
   -5.2687    2.7473   14.5204 H   0  0  0  0  0  0  0  0  0  0  0  0
   -6.0604    3.6126   17.1345 H   0  0  0  0  0  0  0  0  0  0  0  0
   -7.3064    2.4286   16.5465 H   0  0  0  0  0  0  0  0  0  0  0  0
   -4.9595    1.7252   17.7896 H   0  0  0  0  0  0  0  0  0  0  0  0
   -5.8918    0.6761   16.6496 H   0  0  0  0  0  0  0  0  0  0  0  0
   -3.2600    1.7410   16.2800 H   0  0  0  0  0  0  0  0  0  0  0  0
   -4.0930    0.6640   15.3690 H   0  0  0  0  0  0  0  0  0  0  0  0
   -4.2440    2.2630   15.0480 H   0  0  0  0  0  0  0  0  0  0  0  0
  1  2  1  0
  2  3  1  0
  3  4  1  0
  4  5  1  0
  5  6  1  0
  6  7  1  0
  7  8  1  0
  8  9  1  0
  9 10  1  0
 10 11  1  0
 11 12  1  0
 12 13  1  0
 13 14  1  0
  1 15  1  0
  1 16  1  0
  1 17  1  0
  2 18  1  0
  2 19  1  0
  3 20  1  0
  3 21  1  0
  4 22  1  0
  4 23  1  0
  5 24  1  0
  5 25  1  0
  6 26  1  0
  6 27  1  0
  7 28  1  0
  7 29  1  0
  8 30  1  0
  8 31  1  0
  9 32  1  0
  9 33  1  0
 10 34  1  0
 10 35  1  0
 11 36  1  0
 11 37  1  0
 12 38  1  0
 12 39  1  0
 13 40  1  0
 13 41  1  0
 14 42  1  0
 14 43  1  0
 14 44  1  0
M  CHG  4   1   1   5   1  10   1  14   1
M  END
>  <meeko>  (7) 
{"is_sidechain": [false], "free_energy": -3.698, "intermolecular_energy": -6.378, "internal_energy": -0.628}

$$$$
3kwa_ligand
     RDKit          3D

 44 43  0  0  0  0  0  0  0  0999 V2000
   -7.2140    6.8280    8.4510 N   0  0  0  0  0  0  0  0  0  0  0  0
   -7.2660    7.9980    9.3670 C   0  0  0  0  0  0  0  0  0  0  0  0
   -6.0850    7.9880   10.3500 C   0  0  0  0  0  0  0  0  0  0  0  0
   -6.5270    7.5630   11.7620 C   0  0  0  0  0  0  0  0  0  0  0  0
   -5.3640    6.9760   12.5340 N   0  0  0  0  0  0  0  0  0  0  0  0
   -4.0040    7.3530   11.9850 C   0  0  0  0  0  0  0  0  0  0  0  0
   -2.9110    7.0580   13.0270 C   0  0  0  0  0  0  0  0  0  0  0  0
   -3.4430    6.3260   14.2870 C   0  0  0  0  0  0  0  0  0  0  0  0
   -2.5270    5.1630   14.7040 C   0  0  0  0  0  0  0  0  0  0  0  0
   -3.1840    3.8180   14.5080 N   0  0  0  0  0  0  0  0  0  0  0  0
   -4.6760    3.8100   14.2800 C   0  0  0  0  0  0  0  0  0  0  0  0
   -5.3660    2.9000   15.3150 C   0  0  0  0  0  0  0  0  0  0  0  0
   -4.3530    2.1220   16.1690 C   0  0  0  0  0  0  0  0  0  0  0  0
   -4.2830    0.6980   15.7490 N   0  0  0  0  0  0  0  0  0  0  0  0
   -7.3840    5.9210    8.9130 H   0  0  0  0  0  0  0  0  0  0  0  0
   -6.3320    6.7430    7.9220 H   0  0  0  0  0  0  0  0  0  0  0  0
   -7.9510    6.8980    7.7270 H   0  0  0  0  0  0  0  0  0  0  0  0
   -7.2289    8.9219    8.7712 H   0  0  0  0  0  0  0  0  0  0  0  0
   -8.2004    7.9461    9.9451 H   0  0  0  0  0  0  0  0  0  0  0  0
   -5.3239    7.2819    9.9865 H   0  0  0  0  0  0  0  0  0  0  0  0
   -5.6779    9.0082   10.4093 H   0  0  0  0  0  0  0  0  0  0  0  0
   -6.9103    8.4425   12.3002 H   0  0  0  0  0  0  0  0  0  0  0  0
   -7.3125    6.7983   11.6710 H   0  0  0  0  0  0  0  0  0  0  0  0
   -5.4210    7.2730   13.5200 H   0  0  0  0  0  0  0  0  0  0  0  0
   -5.4450    5.9470   12.5450 H   0  0  0  0  0  0  0  0  0  0  0  0
   -3.8050    6.7691   11.0742 H   0  0  0  0  0  0  0  0  0  0  0  0
   -3.9964    8.4277   11.7507 H   0  0  0  0  0  0  0  0  0  0  0  0
   -2.1416    6.4281   12.5566 H   0  0  0  0  0  0  0  0  0  0  0  0
   -2.5091    8.0265   13.3594 H   0  0  0  0  0  0  0  0  0  0  0  0
   -3.5045    7.0454   15.1168 H   0  0  0  0  0  0  0  0  0  0  0  0
   -4.4333    5.9112   14.0477 H   0  0  0  0  0  0  0  0  0  0  0  0
   -1.6097    5.2003   14.0981 H   0  0  0  0  0  0  0  0  0  0  0  0
   -2.3054    5.2765   15.7755 H   0  0  0  0  0  0  0  0  0  0  0  0
   -2.9220    3.1820   15.2790 H   0  0  0  0  0  0  0  0  0  0  0  0
   -2.7310    3.4030   13.6760 H   0  0  0  0  0  0  0  0  0  0  0  0
   -5.0646    4.8342   14.3799 H   0  0  0  0  0  0  0  0  0  0  0  0
   -4.8834    3.4274   13.2698 H   0  0  0  0  0  0  0  0  0  0  0  0
   -5.9843    3.5228   15.9782 H   0  0  0  0  0  0  0  0  0  0  0  0
   -5.9787    2.1688   14.7672 H   0  0  0  0  0  0  0  0  0  0  0  0
   -3.3594    2.5799   16.0544 H   0  0  0  0  0  0  0  0  0  0  0  0
   -4.6773    2.1615   17.2194 H   0  0  0  0  0  0  0  0  0  0  0  0
   -3.4010    0.2240   15.9990 H   0  0  0  0  0  0  0  0  0  0  0  0
   -5.0230    0.1420   16.2140 H   0  0  0  0  0  0  0  0  0  0  0  0
   -4.4350    0.5460   14.7400 H   0  0  0  0  0  0  0  0  0  0  0  0
  1  2  1  0
  2  3  1  0
  3  4  1  0
  4  5  1  0
  5  6  1  0
  6  7  1  0
  7  8  1  0
  8  9  1  0
  9 10  1  0
 10 11  1  0
 11 12  1  0
 12 13  1  0
 13 14  1  0
  1 15  1  0
  1 16  1  0
  1 17  1  0
  2 18  1  0
  2 19  1  0
  3 20  1  0
  3 21  1  0
  4 22  1  0
  4 23  1  0
  5 24  1  0
  5 25  1  0
  6 26  1  0
  6 27  1  0
  7 28  1  0
  7 29  1  0
  8 30  1  0
  8 31  1  0
  9 32  1  0
  9 33  1  0
 10 34  1  0
 10 35  1  0
 11 36  1  0
 11 37  1  0
 12 38  1  0
 12 39  1  0
 13 40  1  0
 13 41  1  0
 14 42  1  0
 14 43  1  0
 14 44  1  0
M  CHG  4   1   1   5   1  10   1  14   1
M  END
>  <meeko>  (8) 
{"is_sidechain": [false], "free_energy": -3.522, "intermolecular_energy": -6.214, "internal_energy": -0.492}

$$$$
3kwa_ligand
     RDKit          3D

 44 43  0  0  0  0  0  0  0  0999 V2000
   -1.6120    2.9630   12.1020 N   0  0  0  0  0  0  0  0  0  0  0  0
   -0.8570    4.0550   11.4350 C   0  0  0  0  0  0  0  0  0  0  0  0
   -1.5410    5.4150   11.6480 C   0  0  0  0  0  0  0  0  0  0  0  0
   -0.6820    6.3500   12.5190 C   0  0  0  0  0  0  0  0  0  0  0  0
   -1.5070    6.9430   13.6420 N   0  0  0  0  0  0  0  0  0  0  0  0
   -3.0010    6.9130   13.3950 C   0  0  0  0  0  0  0  0  0  0  0  0
   -3.7210    6.2510   14.5830 C   0  0  0  0  0  0  0  0  0  0  0  0
   -4.9820    5.4490   14.1690 C   0  0  0  0  0  0  0  0  0  0  0  0
   -4.6800    3.9490   14.0100 C   0  0  0  0  0  0  0  0  0  0  0  0
   -5.8100    3.0810   14.5090 N   0  0  0  0  0  0  0  0  0  0  0  0
   -6.0550    3.0640   15.9990 C   0  0  0  0  0  0  0  0  0  0  0  0
   -5.2470    1.9290   16.6570 C   0  0  0  0  0  0  0  0  0  0  0  0
   -6.0900    1.1240   17.6590 C   0  0  0  0  0  0  0  0  0  0  0  0
   -7.5190    1.0950   17.2520 N   0  0  0  0  0  0  0  0  0  0  0  0
   -2.5960    2.8820   11.8010 H   0  0  0  0  0  0  0  0  0  0  0  0
   -1.6100    3.0140   13.1340 H   0  0  0  0  0  0  0  0  0  0  0  0
   -1.1930    2.0410   11.8830 H   0  0  0  0  0  0  0  0  0  0  0  0
    0.1597    4.0954   11.8530 H   0  0  0  0  0  0  0  0  0  0  0  0
   -0.8248    3.8469   10.3554 H   0  0  0  0  0  0  0  0  0  0  0  0
   -1.7052    5.8894   10.6692 H   0  0  0  0  0  0  0  0  0  0  0  0
   -2.4962    5.2429   12.1657 H   0  0  0  0  0  0  0  0  0  0  0  0
    0.1534    5.7774   12.9481 H   0  0  0  0  0  0  0  0  0  0  0  0
   -0.3007    7.1680   11.8901 H   0  0  0  0  0  0  0  0  0  0  0  0
   -1.3030    6.4400   14.5200 H   0  0  0  0  0  0  0  0  0  0  0  0
   -1.2150    7.9200   13.8030 H   0  0  0  0  0  0  0  0  0  0  0  0
   -3.3703    7.9420   13.2735 H   0  0  0  0  0  0  0  0  0  0  0  0
   -3.2032    6.3323   12.4829 H   0  0  0  0  0  0  0  0  0  0  0  0
   -3.0183    5.5648   15.0783 H   0  0  0  0  0  0  0  0  0  0  0  0
   -4.0544    7.0583   15.2517 H   0  0  0  0  0  0  0  0  0  0  0  0
   -5.7544    5.5765   14.9418 H   0  0  0  0  0  0  0  0  0  0  0  0
   -5.3268    5.8326   13.1974 H   0  0  0  0  0  0  0  0  0  0  0  0
   -4.5119    3.7330   12.9446 H   0  0  0  0  0  0  0  0  0  0  0  0
   -3.7884    3.7196   14.6119 H   0  0  0  0  0  0  0  0  0  0  0  0
   -5.7080    2.1220   14.1380 H   0  0  0  0  0  0  0  0  0  0  0  0
   -6.6640    3.4390   14.0480 H   0  0  0  0  0  0  0  0  0  0  0  0
   -5.7451    4.0277   16.4294 H   0  0  0  0  0  0  0  0  0  0  0  0
   -7.1262    2.8973   16.1852 H   0  0  0  0  0  0  0  0  0  0  0  0
   -4.8855    1.2494   15.8712 H   0  0  0  0  0  0  0  0  0  0  0  0
   -4.4104    2.3842   17.2073 H   0  0  0  0  0  0  0  0  0  0  0  0
   -5.7080    0.0934   17.7040 H   0  0  0  0  0  0  0  0  0  0  0  0
   -6.0166    1.6061   18.6450 H   0  0  0  0  0  0  0  0  0  0  0  0
   -8.1250    1.7410   17.7800 H   0  0  0  0  0  0  0  0  0  0  0  0
   -7.6250    1.3820   16.2620 H   0  0  0  0  0  0  0  0  0  0  0  0
   -7.9540    0.1600   17.3020 H   0  0  0  0  0  0  0  0  0  0  0  0
  1  2  1  0
  2  3  1  0
  3  4  1  0
  4  5  1  0
  5  6  1  0
  6  7  1  0
  7  8  1  0
  8  9  1  0
  9 10  1  0
 10 11  1  0
 11 12  1  0
 12 13  1  0
 13 14  1  0
  1 15  1  0
  1 16  1  0
  1 17  1  0
  2 18  1  0
  2 19  1  0
  3 20  1  0
  3 21  1  0
  4 22  1  0
  4 23  1  0
  5 24  1  0
  5 25  1  0
  6 26  1  0
  6 27  1  0
  7 28  1  0
  7 29  1  0
  8 30  1  0
  8 31  1  0
  9 32  1  0
  9 33  1  0
 10 34  1  0
 10 35  1  0
 11 36  1  0
 11 37  1  0
 12 38  1  0
 12 39  1  0
 13 40  1  0
 13 41  1  0
 14 42  1  0
 14 43  1  0
 14 44  1  0
M  CHG  4   1   1   5   1  10   1  14   1
M  END
>  <meeko>  (9) 
{"is_sidechain": [false], "free_energy": -3.518, "intermolecular_energy": -6.233, "internal_energy": -0.467}

$$$$
