4cra_ligand
     RDKit          3D

 63 67  0  0  0  0  0  0  0  0999 V2000
  -18.5790  -47.5130  -11.3550 N   0  0  0  0  0  0  0  0  0  0  0  0
  -19.5440  -48.4800  -11.6270 C   0  0  0  0  0  0  0  0  0  0  0  0
  -20.8680  -48.1240  -11.7890 C   0  0  0  0  0  0  0  0  0  0  0  0
  -21.7950  -49.1220  -12.0760 C   0  0  0  0  0  0  0  0  0  0  0  0
  -21.3850  -50.4630  -12.2010 C   0  0  0  0  0  0  0  0  0  0  0  0
  -22.2650  -51.5470  -12.4930 C   0  0  0  0  0  0  0  0  0  0  0  0
  -23.7510  -51.3620  -12.7000 C   0  0  0  0  0  0  0  0  0  0  0  0
  -24.4520  -52.6200  -12.6360 N   0  0  0  0  0  0  0  0  0  0  0  0
  -25.2830  -52.9470  -11.5820 C   0  0  0  0  0  0  0  0  0  0  0  0
  -25.4200  -52.2180  -10.6030 O   0  0  0  0  0  0  0  0  0  0  0  0
  -26.1290  -54.2230  -11.8270 C   0  0  2  0  0  0  0  0  0  0  0  0
  -27.0540  -54.0990  -13.0570 C   0  0  0  0  0  0  0  0  0  0  0  0
  -28.1020  -55.1860  -13.1920 C   0  0  0  0  0  0  0  0  0  0  0  0
  -29.4660  -54.8650  -13.1080 C   0  0  0  0  0  0  0  0  0  0  0  0
  -30.4380  -55.8540  -13.2650 C   0  0  0  0  0  0  0  0  0  0  0  0
  -30.0590  -57.1720  -13.5020 C   0  0  0  0  0  0  0  0  0  0  0  0
  -28.7080  -57.5040  -13.5780 C   0  0  0  0  0  0  0  0  0  0  0  0
  -27.7340  -56.5160  -13.4220 C   0  0  0  0  0  0  0  0  0  0  0  0
  -26.8570  -54.6490  -10.6210 N   0  0  0  0  0  0  0  0  0  0  0  0
  -26.4780  -55.7220   -9.8530 C   0  0  0  0  0  0  0  0  0  0  0  0
  -25.4790  -56.3890  -10.1060 O   0  0  0  0  0  0  0  0  0  0  0  0
  -27.3170  -56.0470   -8.6660 C   0  0  0  0  0  0  0  0  0  0  0  0
  -28.3960  -55.1990   -8.3770 C   0  0  0  0  0  0  0  0  0  0  0  0
  -29.2200  -55.4500   -7.2780 C   0  0  0  0  0  0  0  0  0  0  0  0
  -28.9670  -56.5580   -6.4710 C   0  0  0  0  0  0  0  0  0  0  0  0
  -29.7930  -56.8110   -5.3690 N   0  0  0  0  0  0  0  0  0  0  0  0
  -29.6250  -57.8760   -4.5280 C   0  0  0  0  0  0  0  0  0  0  0  0
  -30.3610  -58.0770   -3.5690 O   0  0  0  0  0  0  0  0  0  0  0  0
  -28.5020  -58.7960   -4.8220 C   0  0  0  0  0  0  0  0  0  0  0  0
  -27.6920  -58.5830   -5.8660 C   0  0  0  0  0  0  0  0  0  0  0  0
  -26.6340  -59.4090   -6.1780 O   0  0  0  0  0  0  0  0  0  0  0  0
  -27.9010  -57.4260   -6.7500 C   0  0  0  0  0  0  0  0  0  0  0  0
  -27.0790  -57.1670   -7.8570 C   0  0  0  0  0  0  0  0  0  0  0  0
  -21.7490  -52.8520  -12.5600 C   0  0  0  0  0  0  0  0  0  0  0  0
  -20.3930  -53.0840  -12.3750 C   0  0  0  0  0  0  0  0  0  0  0  0
  -19.5400  -52.0140  -12.1110 C   0  0  0  0  0  0  0  0  0  0  0  0
  -20.0050  -50.7110  -12.0160 C   0  0  0  0  0  0  0  0  0  0  0  0
  -19.1120  -49.7430  -11.7430 N   0  0  0  0  0  0  0  0  0  0  0  0
  -18.7620  -47.0480  -10.4740 H   0  0  0  0  0  0  0  0  0  0  0  0
  -17.6820  -47.9960  -11.3470 H   0  0  0  0  0  0  0  0  0  0  0  0
  -21.1835  -47.0746  -11.6934 H   0  0  0  0  0  0  0  0  0  0  0  0
  -22.8556  -48.8610  -12.2061 H   0  0  0  0  0  0  0  0  0  0  0  0
  -24.1410  -50.6948  -11.9172 H   0  0  0  0  0  0  0  0  0  0  0  0
  -23.9099  -50.9277  -13.6981 H   0  0  0  0  0  0  0  0  0  0  0  0
  -24.6380  -53.0990  -13.5170 H   0  0  0  0  0  0  0  0  0  0  0  0
  -25.4134  -55.0244  -12.0631 H   0  0  0  0  0  0  0  0  0  0  0  0
  -27.5739  -53.1316  -12.9950 H   0  0  0  0  0  0  0  0  0  0  0  0
  -26.4024  -54.1937  -13.9382 H   0  0  0  0  0  0  0  0  0  0  0  0
  -29.7711  -53.8256  -12.9169 H   0  0  0  0  0  0  0  0  0  0  0  0
  -31.5044  -55.5917  -13.2014 H   0  0  0  0  0  0  0  0  0  0  0  0
  -30.8253  -57.9508  -13.6292 H   0  0  0  0  0  0  0  0  0  0  0  0
  -28.4083  -58.5464  -13.7612 H   0  0  0  0  0  0  0  0  0  0  0  0
  -26.6691  -56.7854  -13.4804 H   0  0  0  0  0  0  0  0  0  0  0  0
  -27.6080  -54.0450  -10.3150 H   0  0  0  0  0  0  0  0  0  0  0  0
  -28.5947  -54.3296   -9.0209 H   0  0  0  0  0  0  0  0  0  0  0  0
  -30.0616  -54.7791   -7.0510 H   0  0  0  0  0  0  0  0  0  0  0  0
  -30.5650  -56.1960   -5.1540 H   0  0  0  0  0  0  0  0  0  0  0  0
  -28.3312  -59.6673   -4.1726 H   0  0  0  0  0  0  0  0  0  0  0  0
  -26.1250  -59.5880   -5.3680 H   0  0  0  0  0  0  0  0  0  0  0  0
  -26.2450  -57.8450   -8.0910 H   0  0  0  0  0  0  0  0  0  0  0  0
  -22.4248  -53.6964  -12.7606 H   0  0  0  0  0  0  0  0  0  0  0  0
  -19.9938  -54.1071  -12.4365 H   0  0  0  0  0  0  0  0  0  0  0  0
  -18.4661  -52.2088  -11.9739 H   0  0  0  0  0  0  0  0  0  0  0  0
  1  2  1  0
  2  3  2  0
  3  4  1  0
  4  5  2  0
  5  6  1  0
  6  7  1  0
  7  8  1  0
  8  9  1  0
  9 10  2  0
  9 11  1  0
 11 12  1  0
 12 13  1  0
 13 14  2  0
 14 15  1  0
 15 16  2  0
 16 17  1  0
 17 18  2  0
 11 19  1  0
 19 20  1  0
 20 21  2  0
 20 22  1  0
 22 23  2  0
 23 24  1  0
 24 25  2  0
 25 26  1  0
 26 27  1  0
 27 28  2  0
 27 29  1  0
 29 30  2  0
 30 31  1  0
 30 32  1  0
 32 33  2  0
  6 34  2  0
 34 35  1  0
 35 36  2  0
 36 37  1  0
 37 38  2  0
 38  2  1  0
 37  5  1  0
 18 13  1  0
 33 22  1  0
 32 25  1  0
  1 39  1  0
  1 40  1  0
  3 41  1  0
  4 42  1  0
  7 43  1  0
  7 44  1  0
  8 45  1  0
 11 46  1  6
 12 47  1  0
 12 48  1  0
 14 49  1  0
 15 50  1  0
 16 51  1  0
 17 52  1  0
 18 53  1  0
 19 54  1  0
 23 55  1  0
 24 56  1  0
 26 57  1  0
 29 58  1  0
 31 59  1  0
 33 60  1  0
 34 61  1  0
 35 62  1  0
 36 63  1  0
M  END
>  <meeko>  (1) 
{"is_sidechain": [false], "free_energy": -9.816, "intermolecular_energy": -14.407, "internal_energy": -1.218}

$$$$
4cra_ligand
     RDKit          3D

 63 67  0  0  0  0  0  0  0  0999 V2000
  -27.7470  -60.6230   -4.3840 N   0  0  0  0  0  0  0  0  0  0  0  0
  -28.1540  -59.5330   -5.1500 C   0  0  0  0  0  0  0  0  0  0  0  0
  -27.4460  -58.3480   -5.1170 C   0  0  0  0  0  0  0  0  0  0  0  0
  -27.8800  -57.2920   -5.9120 C   0  0  0  0  0  0  0  0  0  0  0  0
  -29.0160  -57.4340   -6.7330 C   0  0  0  0  0  0  0  0  0  0  0  0
  -29.5300  -56.4070   -7.5770 C   0  0  0  0  0  0  0  0  0  0  0  0
  -28.8980  -55.0370   -7.6760 C   0  0  0  0  0  0  0  0  0  0  0  0
  -28.2480  -54.8490   -8.9500 N   0  0  0  0  0  0  0  0  0  0  0  0
  -26.9250  -55.1910   -9.1590 C   0  0  0  0  0  0  0  0  0  0  0  0
  -26.2040  -55.6090   -8.2570 O   0  0  0  0  0  0  0  0  0  0  0  0
  -26.4980  -55.1460  -10.6490 C   0  0  2  0  0  0  0  0  0  0  0  0
  -26.3900  -56.5500  -11.2820 C   0  0  0  0  0  0  0  0  0  0  0  0
  -27.6740  -57.3560  -11.2950 C   0  0  0  0  0  0  0  0  0  0  0  0
  -28.8090  -56.8650  -11.9590 C   0  0  0  0  0  0  0  0  0  0  0  0
  -29.9840  -57.6150  -12.0050 C   0  0  0  0  0  0  0  0  0  0  0  0
  -30.0390  -58.8610  -11.3850 C   0  0  0  0  0  0  0  0  0  0  0  0
  -28.9220  -59.3540  -10.7140 C   0  0  0  0  0  0  0  0  0  0  0  0
  -27.7450  -58.6050  -10.6690 C   0  0  0  0  0  0  0  0  0  0  0  0
  -25.2800  -54.3450  -10.8560 N   0  0  0  0  0  0  0  0  0  0  0  0
  -25.2190  -53.2780  -11.7180 C   0  0  0  0  0  0  0  0  0  0  0  0
  -26.1930  -52.8970  -12.3600 O   0  0  0  0  0  0  0  0  0  0  0  0
  -23.9170  -52.5660  -11.8360 C   0  0  0  0  0  0  0  0  0  0  0  0
  -22.8860  -53.2030  -12.5420 C   0  0  0  0  0  0  0  0  0  0  0  0
  -21.6410  -52.5870  -12.6890 C   0  0  0  0  0  0  0  0  0  0  0  0
  -21.4320  -51.3260  -12.1340 C   0  0  0  0  0  0  0  0  0  0  0  0
  -20.1840  -50.7060  -12.2810 N   0  0  0  0  0  0  0  0  0  0  0  0
  -19.8910  -49.4690  -11.7790 C   0  0  0  0  0  0  0  0  0  0  0  0
  -18.7910  -48.9470  -11.9200 O   0  0  0  0  0  0  0  0  0  0  0  0
  -20.9690  -48.7680  -11.0430 C   0  0  0  0  0  0  0  0  0  0  0  0
  -22.1720  -49.3320  -10.8830 C   0  0  0  0  0  0  0  0  0  0  0  0
  -23.2050  -48.7200  -10.2050 O   0  0  0  0  0  0  0  0  0  0  0  0
  -22.4540  -50.6650  -11.4360 C   0  0  0  0  0  0  0  0  0  0  0  0
  -23.7010  -51.2910  -11.2950 C   0  0  0  0  0  0  0  0  0  0  0  0
  -30.6920  -56.6510   -8.3270 C   0  0  0  0  0  0  0  0  0  0  0  0
  -31.3180  -57.8880   -8.2740 C   0  0  0  0  0  0  0  0  0  0  0  0
  -30.7940  -58.8920   -7.4610 C   0  0  0  0  0  0  0  0  0  0  0  0
  -29.6610  -58.6920   -6.6870 C   0  0  0  0  0  0  0  0  0  0  0  0
  -29.2350  -59.7130   -5.9210 N   0  0  0  0  0  0  0  0  0  0  0  0
  -28.5340  -61.0640   -3.9250 H   0  0  0  0  0  0  0  0  0  0  0  0
  -27.2760  -61.2630   -5.0210 H   0  0  0  0  0  0  0  0  0  0  0  0
  -26.5583  -58.2413   -4.4762 H   0  0  0  0  0  0  0  0  0  0  0  0
  -27.3317  -56.3385   -5.8994 H   0  0  0  0  0  0  0  0  0  0  0  0
  -29.6799  -54.2725   -7.5567 H   0  0  0  0  0  0  0  0  0  0  0  0
  -28.1403  -54.9468   -6.8837 H   0  0  0  0  0  0  0  0  0  0  0  0
  -28.8390  -54.8240   -9.7800 H   0  0  0  0  0  0  0  0  0  0  0  0
  -27.3094  -54.6313  -11.1844 H   0  0  0  0  0  0  0  0  0  0  0  0
  -26.0545  -56.4286  -12.3225 H   0  0  0  0  0  0  0  0  0  0  0  0
  -25.6841  -57.1131  -10.6538 H   0  0  0  0  0  0  0  0  0  0  0  0
  -28.7714  -55.8801  -12.4474 H   0  0  0  0  0  0  0  0  0  0  0  0
  -30.8670  -57.2226  -12.5307 H   0  0  0  0  0  0  0  0  0  0  0  0
  -30.9637  -59.4554  -11.4251 H   0  0  0  0  0  0  0  0  0  0  0  0
  -28.9677  -60.3352  -10.2188 H   0  0  0  0  0  0  0  0  0  0  0  0
  -26.8667  -58.9998  -10.1373 H   0  0  0  0  0  0  0  0  0  0  0  0
  -24.4990  -54.5530  -10.2480 H   0  0  0  0  0  0  0  0  0  0  0  0
  -23.0592  -54.1955  -12.9834 H   0  0  0  0  0  0  0  0  0  0  0  0
  -20.8329  -53.0927  -13.2379 H   0  0  0  0  0  0  0  0  0  0  0  0
  -19.4370  -51.1680  -12.7820 H   0  0  0  0  0  0  0  0  0  0  0  0
  -20.7778  -47.7698  -10.6221 H   0  0  0  0  0  0  0  0  0  0  0  0
  -23.9710  -48.6460  -10.8000 H   0  0  0  0  0  0  0  0  0  0  0  0
  -24.5130  -50.7793  -10.7576 H   0  0  0  0  0  0  0  0  0  0  0  0
  -31.1091  -55.8551   -8.9615 H   0  0  0  0  0  0  0  0  0  0  0  0
  -32.2231  -58.0756   -8.8704 H   0  0  0  0  0  0  0  0  0  0  0  0
  -31.2939  -59.8714   -7.4327 H   0  0  0  0  0  0  0  0  0  0  0  0
  1  2  1  0
  2  3  2  0
  3  4  1  0
  4  5  2  0
  5  6  1  0
  6  7  1  0
  7  8  1  0
  8  9  1  0
  9 10  2  0
  9 11  1  0
 11 12  1  0
 12 13  1  0
 13 14  2  0
 14 15  1  0
 15 16  2  0
 16 17  1  0
 17 18  2  0
 11 19  1  0
 19 20  1  0
 20 21  2  0
 20 22  1  0
 22 23  2  0
 23 24  1  0
 24 25  2  0
 25 26  1  0
 26 27  1  0
 27 28  2  0
 27 29  1  0
 29 30  2  0
 30 31  1  0
 30 32  1  0
 32 33  2  0
  6 34  2  0
 34 35  1  0
 35 36  2  0
 36 37  1  0
 37 38  2  0
 38  2  1  0
 37  5  1  0
 18 13  1  0
 33 22  1  0
 32 25  1  0
  1 39  1  0
  1 40  1  0
  3 41  1  0
  4 42  1  0
  7 43  1  0
  7 44  1  0
  8 45  1  0
 11 46  1  6
 12 47  1  0
 12 48  1  0
 14 49  1  0
 15 50  1  0
 16 51  1  0
 17 52  1  0
 18 53  1  0
 19 54  1  0
 23 55  1  0
 24 56  1  0
 26 57  1  0
 29 58  1  0
 31 59  1  0
 33 60  1  0
 34 61  1  0
 35 62  1  0
 36 63  1  0
M  END
>  <meeko>  (2) 
{"is_sidechain": [false], "free_energy": -9.596, "intermolecular_energy": -12.867, "internal_energy": -2.435}

$$$$
4cra_ligand
     RDKit          3D

 63 67  0  0  0  0  0  0  0  0999 V2000
  -33.3200  -56.5430  -13.9600 N   0  0  0  0  0  0  0  0  0  0  0  0
  -31.9400  -56.7270  -14.0250 C   0  0  0  0  0  0  0  0  0  0  0  0
  -31.1090  -55.6830  -14.3780 C   0  0  0  0  0  0  0  0  0  0  0  0
  -29.7360  -55.9100  -14.4130 C   0  0  0  0  0  0  0  0  0  0  0  0
  -29.2120  -57.1760  -14.0910 C   0  0  0  0  0  0  0  0  0  0  0  0
  -27.8220  -57.4960  -14.1010 C   0  0  0  0  0  0  0  0  0  0  0  0
  -26.7540  -56.4900  -14.4650 C   0  0  0  0  0  0  0  0  0  0  0  0
  -26.0660  -56.0060  -13.2940 N   0  0  0  0  0  0  0  0  0  0  0  0
  -26.3710  -54.7900  -12.7110 C   0  0  0  0  0  0  0  0  0  0  0  0
  -27.1950  -54.0190  -13.1940 O   0  0  0  0  0  0  0  0  0  0  0  0
  -25.6990  -54.5750  -11.3300 C   0  0  2  0  0  0  0  0  0  0  0  0
  -26.7060  -54.6320  -10.1610 C   0  0  0  0  0  0  0  0  0  0  0  0
  -27.6580  -55.8110  -10.1820 C   0  0  0  0  0  0  0  0  0  0  0  0
  -27.1750  -57.1120   -9.9730 C   0  0  0  0  0  0  0  0  0  0  0  0
  -28.0490  -58.2000   -9.9560 C   0  0  0  0  0  0  0  0  0  0  0  0
  -29.4130  -58.0000  -10.1530 C   0  0  0  0  0  0  0  0  0  0  0  0
  -29.9030  -56.7140  -10.3720 C   0  0  0  0  0  0  0  0  0  0  0  0
  -29.0300  -55.6250  -10.3870 C   0  0  0  0  0  0  0  0  0  0  0  0
  -24.8720  -53.3580  -11.2960 N   0  0  0  0  0  0  0  0  0  0  0  0
  -23.6280  -53.2780  -11.8710 C   0  0  0  0  0  0  0  0  0  0  0  0
  -23.1270  -54.2170  -12.4840 O   0  0  0  0  0  0  0  0  0  0  0  0
  -22.8970  -51.9870  -11.7490 C   0  0  0  0  0  0  0  0  0  0  0  0
  -23.6490  -50.8350  -11.4760 C   0  0  0  0  0  0  0  0  0  0  0  0
  -23.0220  -49.5930  -11.3490 C   0  0  0  0  0  0  0  0  0  0  0  0
  -21.6390  -49.5070  -11.4890 C   0  0  0  0  0  0  0  0  0  0  0  0
  -21.0080  -48.2620  -11.3620 N   0  0  0  0  0  0  0  0  0  0  0  0
  -19.6580  -48.0840  -11.4750 C   0  0  0  0  0  0  0  0  0  0  0  0
  -19.1290  -46.9850  -11.3600 O   0  0  0  0  0  0  0  0  0  0  0  0
  -18.8400  -49.2890  -11.7470 C   0  0  0  0  0  0  0  0  0  0  0  0
  -19.4090  -50.4940  -11.8760 C   0  0  0  0  0  0  0  0  0  0  0  0
  -18.6910  -51.6420  -12.1320 O   0  0  0  0  0  0  0  0  0  0  0  0
  -20.8660  -50.6490  -11.7490 C   0  0  0  0  0  0  0  0  0  0  0  0
  -21.5040  -51.8920  -11.8730 C   0  0  0  0  0  0  0  0  0  0  0  0
  -27.4160  -58.8050  -13.7950 C   0  0  0  0  0  0  0  0  0  0  0  0
  -28.3520  -59.7730  -13.4560 C   0  0  0  0  0  0  0  0  0  0  0  0
  -29.7060  -59.4420  -13.4290 C   0  0  0  0  0  0  0  0  0  0  0  0
  -30.1570  -58.1690  -13.7430 C   0  0  0  0  0  0  0  0  0  0  0  0
  -31.4830  -57.9460  -13.7060 N   0  0  0  0  0  0  0  0  0  0  0  0
  -33.8060  -57.4280  -13.8830 H   0  0  0  0  0  0  0  0  0  0  0  0
  -33.4940  -55.9460  -13.1530 H   0  0  0  0  0  0  0  0  0  0  0  0
  -31.5222  -54.6942  -14.6260 H   0  0  0  0  0  0  0  0  0  0  0  0
  -29.0551  -55.0933  -14.6946 H   0  0  0  0  0  0  0  0  0  0  0  0
  -26.0254  -56.9685  -15.1359 H   0  0  0  0  0  0  0  0  0  0  0  0
  -27.2380  -55.6352  -14.9601 H   0  0  0  0  0  0  0  0  0  0  0  0
  -25.6340  -56.6980  -12.6830 H   0  0  0  0  0  0  0  0  0  0  0  0
  -25.0157  -55.4249  -11.1861 H   0  0  0  0  0  0  0  0  0  0  0  0
  -26.1344  -54.6736   -9.2221 H   0  0  0  0  0  0  0  0  0  0  0  0
  -27.3332  -53.7334  -10.2563 H   0  0  0  0  0  0  0  0  0  0  0  0
  -26.0979  -57.2757   -9.8212 H   0  0  0  0  0  0  0  0  0  0  0  0
  -27.6605  -59.2152   -9.7870 H   0  0  0  0  0  0  0  0  0  0  0  0
  -30.1031  -58.8565  -10.1357 H   0  0  0  0  0  0  0  0  0  0  0  0
  -30.9797  -56.5568  -10.5333 H   0  0  0  0  0  0  0  0  0  0  0  0
  -29.4234  -54.6126  -10.5613 H   0  0  0  0  0  0  0  0  0  0  0  0
  -25.3090  -52.5310  -10.9110 H   0  0  0  0  0  0  0  0  0  0  0  0
  -24.7404  -50.9099  -11.3610 H   0  0  0  0  0  0  0  0  0  0  0  0
  -23.6156  -48.6907  -11.1402 H   0  0  0  0  0  0  0  0  0  0  0  0
  -21.5490  -47.4300  -11.1730 H   0  0  0  0  0  0  0  0  0  0  0  0
  -17.7486  -49.1921  -11.8444 H   0  0  0  0  0  0  0  0  0  0  0  0
  -18.9450  -51.9840  -13.0060 H   0  0  0  0  0  0  0  0  0  0  0  0
  -20.9086  -52.7961  -12.0684 H   0  0  0  0  0  0  0  0  0  0  0  0
  -26.3477  -59.0657  -13.8241 H   0  0  0  0  0  0  0  0  0  0  0  0
  -28.0271  -60.7948  -13.2102 H   0  0  0  0  0  0  0  0  0  0  0  0
  -30.4385  -60.2139  -13.1502 H   0  0  0  0  0  0  0  0  0  0  0  0
  1  2  1  0
  2  3  2  0
  3  4  1  0
  4  5  2  0
  5  6  1  0
  6  7  1  0
  7  8  1  0
  8  9  1  0
  9 10  2  0
  9 11  1  0
 11 12  1  0
 12 13  1  0
 13 14  2  0
 14 15  1  0
 15 16  2  0
 16 17  1  0
 17 18  2  0
 11 19  1  0
 19 20  1  0
 20 21  2  0
 20 22  1  0
 22 23  2  0
 23 24  1  0
 24 25  2  0
 25 26  1  0
 26 27  1  0
 27 28  2  0
 27 29  1  0
 29 30  2  0
 30 31  1  0
 30 32  1  0
 32 33  2  0
  6 34  2  0
 34 35  1  0
 35 36  2  0
 36 37  1  0
 37 38  2  0
 38  2  1  0
 37  5  1  0
 18 13  1  0
 33 22  1  0
 32 25  1  0
  1 39  1  0
  1 40  1  0
  3 41  1  0
  4 42  1  0
  7 43  1  0
  7 44  1  0
  8 45  1  0
 11 46  1  1
 12 47  1  0
 12 48  1  0
 14 49  1  0
 15 50  1  0
 16 51  1  0
 17 52  1  0
 18 53  1  0
 19 54  1  0
 23 55  1  0
 24 56  1  0
 26 57  1  0
 29 58  1  0
 31 59  1  0
 33 60  1  0
 34 61  1  0
 35 62  1  0
 36 63  1  0
M  END
>  <meeko>  (3) 
{"is_sidechain": [false], "free_energy": -9.489, "intermolecular_energy": -12.33, "internal_energy": -2.814}

$$$$
4cra_ligand
     RDKit          3D

 63 67  0  0  0  0  0  0  0  0999 V2000
  -32.7610  -60.1420   -9.4690 N   0  0  0  0  0  0  0  0  0  0  0  0
  -31.8790  -59.2510   -8.8590 C   0  0  0  0  0  0  0  0  0  0  0  0
  -31.9290  -57.9030   -9.1530 C   0  0  0  0  0  0  0  0  0  0  0  0
  -31.0410  -57.0490   -8.5070 C   0  0  0  0  0  0  0  0  0  0  0  0
  -30.1160  -57.5530   -7.5720 C   0  0  0  0  0  0  0  0  0  0  0  0
  -29.1710  -56.7520   -6.8650 C   0  0  0  0  0  0  0  0  0  0  0  0
  -29.0660  -55.2560   -7.0520 C   0  0  0  0  0  0  0  0  0  0  0  0
  -28.5880  -54.9230   -8.3710 N   0  0  0  0  0  0  0  0  0  0  0  0
  -27.2830  -55.1570   -8.7630 C   0  0  0  0  0  0  0  0  0  0  0  0
  -26.4350  -55.5980   -7.9910 O   0  0  0  0  0  0  0  0  0  0  0  0
  -27.0440  -54.9640  -10.2820 C   0  0  2  0  0  0  0  0  0  0  0  0
  -27.1940  -56.2760  -11.0820 C   0  0  0  0  0  0  0  0  0  0  0  0
  -28.5080  -56.4380  -11.8210 C   0  0  0  0  0  0  0  0  0  0  0  0
  -29.2270  -57.6400  -11.7280 C   0  0  0  0  0  0  0  0  0  0  0  0
  -30.4530  -57.7850  -12.3770 C   0  0  0  0  0  0  0  0  0  0  0  0
  -30.9720  -56.7340  -13.1290 C   0  0  0  0  0  0  0  0  0  0  0  0
  -30.2630  -55.5400  -13.2370 C   0  0  0  0  0  0  0  0  0  0  0  0
  -29.0370  -55.3920  -12.5870 C   0  0  0  0  0  0  0  0  0  0  0  0
  -25.7710  -54.2810  -10.5640 N   0  0  0  0  0  0  0  0  0  0  0  0
  -25.6180  -53.3600  -11.5700 C   0  0  0  0  0  0  0  0  0  0  0  0
  -26.5490  -53.0170  -12.2920 O   0  0  0  0  0  0  0  0  0  0  0  0
  -24.2680  -52.7570  -11.7480 C   0  0  0  0  0  0  0  0  0  0  0  0
  -23.3060  -53.5050  -12.4420 C   0  0  0  0  0  0  0  0  0  0  0  0
  -22.0210  -52.9940  -12.6440 C   0  0  0  0  0  0  0  0  0  0  0  0
  -21.7030  -51.7290  -12.1550 C   0  0  0  0  0  0  0  0  0  0  0  0
  -20.4150  -51.2150  -12.3560 N   0  0  0  0  0  0  0  0  0  0  0  0
  -20.0170  -49.9830  -11.9200 C   0  0  0  0  0  0  0  0  0  0  0  0
  -18.8830  -49.5550  -12.1080 O   0  0  0  0  0  0  0  0  0  0  0  0
  -21.0200  -49.1660  -11.1980 C   0  0  0  0  0  0  0  0  0  0  0  0
  -22.2590  -49.6270  -10.9860 C   0  0  0  0  0  0  0  0  0  0  0  0
  -23.2260  -48.9060  -10.3190 O   0  0  0  0  0  0  0  0  0  0  0  0
  -22.6540  -50.9590  -11.4690 C   0  0  0  0  0  0  0  0  0  0  0  0
  -23.9420  -51.4790  -11.2730 C   0  0  0  0  0  0  0  0  0  0  0  0
  -28.2720  -57.3700   -5.9810 C   0  0  0  0  0  0  0  0  0  0  0  0
  -28.3180  -58.7410   -5.7710 C   0  0  0  0  0  0  0  0  0  0  0  0
  -29.2610  -59.5110   -6.4530 C   0  0  0  0  0  0  0  0  0  0  0  0
  -30.1560  -58.9490   -7.3500 C   0  0  0  0  0  0  0  0  0  0  0  0
  -31.0190  -59.7710   -7.9730 N   0  0  0  0  0  0  0  0  0  0  0  0
  -33.2170  -59.7190  -10.2680 H   0  0  0  0  0  0  0  0  0  0  0  0
  -32.2100  -60.9550   -9.7370 H   0  0  0  0  0  0  0  0  0  0  0  0
  -32.6548  -57.5130   -9.8818 H   0  0  0  0  0  0  0  0  0  0  0  0
  -31.0614  -55.9716   -8.7281 H   0  0  0  0  0  0  0  0  0  0  0  0
  -30.0595  -54.8066   -6.9073 H   0  0  0  0  0  0  0  0  0  0  0  0
  -28.3494  -54.8644   -6.3150 H   0  0  0  0  0  0  0  0  0  0  0  0
  -29.2760  -54.8700   -9.1210 H   0  0  0  0  0  0  0  0  0  0  0  0
  -27.8450  -54.2978  -10.6351 H   0  0  0  0  0  0  0  0  0  0  0  0
  -26.3808  -56.3179  -11.8216 H   0  0  0  0  0  0  0  0  0  0  0  0
  -27.1591  -57.0891  -10.3419 H   0  0  0  0  0  0  0  0  0  0  0  0
  -28.8201  -58.4746  -11.1383 H   0  0  0  0  0  0  0  0  0  0  0  0
  -31.0102  -58.7299  -12.2948 H   0  0  0  0  0  0  0  0  0  0  0  0
  -31.9410  -56.8467  -13.6372 H   0  0  0  0  0  0  0  0  0  0  0  0
  -30.6703  -54.7120  -13.8358 H   0  0  0  0  0  0  0  0  0  0  0  0
  -28.4820  -54.4465  -12.6771 H   0  0  0  0  0  0  0  0  0  0  0  0
  -25.0200  -54.4460   -9.9060 H   0  0  0  0  0  0  0  0  0  0  0  0
  -23.5647  -54.5012  -12.8302 H   0  0  0  0  0  0  0  0  0  0  0  0
  -21.2673  -53.5855  -13.1844 H   0  0  0  0  0  0  0  0  0  0  0  0
  -19.7180  -51.7560  -12.8490 H   0  0  0  0  0  0  0  0  0  0  0  0
  -20.7429  -48.1667  -10.8310 H   0  0  0  0  0  0  0  0  0  0  0  0
  -22.7990  -48.1700   -9.8470 H   0  0  0  0  0  0  0  0  0  0  0  0
  -24.6993  -50.8815  -10.7444 H   0  0  0  0  0  0  0  0  0  0  0  0
  -27.5246  -56.7620   -5.4502 H   0  0  0  0  0  0  0  0  0  0  0  0
  -27.6156  -59.2177   -5.0714 H   0  0  0  0  0  0  0  0  0  0  0  0
  -29.2951  -60.5957   -6.2735 H   0  0  0  0  0  0  0  0  0  0  0  0
  1  2  1  0
  2  3  2  0
  3  4  1  0
  4  5  2  0
  5  6  1  0
  6  7  1  0
  7  8  1  0
  8  9  1  0
  9 10  2  0
  9 11  1  0
 11 12  1  0
 12 13  1  0
 13 14  2  0
 14 15  1  0
 15 16  2  0
 16 17  1  0
 17 18  2  0
 11 19  1  0
 19 20  1  0
 20 21  2  0
 20 22  1  0
 22 23  2  0
 23 24  1  0
 24 25  2  0
 25 26  1  0
 26 27  1  0
 27 28  2  0
 27 29  1  0
 29 30  2  0
 30 31  1  0
 30 32  1  0
 32 33  2  0
  6 34  2  0
 34 35  1  0
 35 36  2  0
 36 37  1  0
 37 38  2  0
 38  2  1  0
 37  5  1  0
 18 13  1  0
 33 22  1  0
 32 25  1  0
  1 39  1  0
  1 40  1  0
  3 41  1  0
  4 42  1  0
  7 43  1  0
  7 44  1  0
  8 45  1  0
 11 46  1  6
 12 47  1  0
 12 48  1  0
 14 49  1  0
 15 50  1  0
 16 51  1  0
 17 52  1  0
 18 53  1  0
 19 54  1  0
 23 55  1  0
 24 56  1  0
 26 57  1  0
 29 58  1  0
 31 59  1  0
 33 60  1  0
 34 61  1  0
 35 62  1  0
 36 63  1  0
M  END
>  <meeko>  (4) 
{"is_sidechain": [false], "free_energy": -9.433, "intermolecular_energy": -13.52, "internal_energy": -1.543}

$$$$
4cra_ligand
     RDKit          3D

 63 67  0  0  0  0  0  0  0  0999 V2000
  -33.1450  -56.7180  -13.8470 N   0  0  0  0  0  0  0  0  0  0  0  0
  -31.7920  -56.7740  -14.1770 C   0  0  0  0  0  0  0  0  0  0  0  0
  -31.0570  -55.6150  -14.3200 C   0  0  0  0  0  0  0  0  0  0  0  0
  -29.7050  -55.7210  -14.6320 C   0  0  0  0  0  0  0  0  0  0  0  0
  -29.1040  -56.9840  -14.7940 C   0  0  0  0  0  0  0  0  0  0  0  0
  -27.7290  -57.1850  -15.1140 C   0  0  0  0  0  0  0  0  0  0  0  0
  -26.7610  -56.0410  -15.3160 C   0  0  0  0  0  0  0  0  0  0  0  0
  -25.8840  -55.8880  -14.1820 N   0  0  0  0  0  0  0  0  0  0  0  0
  -25.9790  -54.8140  -13.3170 C   0  0  0  0  0  0  0  0  0  0  0  0
  -26.7680  -53.8910  -13.5010 O   0  0  0  0  0  0  0  0  0  0  0  0
  -25.1210  -54.9690  -12.0340 C   0  0  2  0  0  0  0  0  0  0  0  0
  -25.9770  -55.0970  -10.7560 C   0  0  0  0  0  0  0  0  0  0  0  0
  -27.1940  -55.9920  -10.8770 C   0  0  0  0  0  0  0  0  0  0  0  0
  -28.4840  -55.4480  -10.7670 C   0  0  0  0  0  0  0  0  0  0  0  0
  -29.6100  -56.2590  -10.9110 C   0  0  0  0  0  0  0  0  0  0  0  0
  -29.4600  -57.6210  -11.1620 C   0  0  0  0  0  0  0  0  0  0  0  0
  -28.1850  -58.1730  -11.2630 C   0  0  0  0  0  0  0  0  0  0  0  0
  -27.0580  -57.3630  -11.1210 C   0  0  0  0  0  0  0  0  0  0  0  0
  -24.0980  -53.9170  -11.9190 N   0  0  0  0  0  0  0  0  0  0  0  0
  -22.8270  -54.0460  -12.4230 C   0  0  0  0  0  0  0  0  0  0  0  0
  -22.4630  -55.0450  -13.0350 O   0  0  0  0  0  0  0  0  0  0  0  0
  -21.8910  -52.9060  -12.2220 C   0  0  0  0  0  0  0  0  0  0  0  0
  -20.5340  -53.2020  -12.0260 C   0  0  0  0  0  0  0  0  0  0  0  0
  -19.6050  -52.1780  -11.8330 C   0  0  0  0  0  0  0  0  0  0  0  0
  -20.0360  -50.8520  -11.8420 C   0  0  0  0  0  0  0  0  0  0  0  0
  -19.1050  -49.8230  -11.6480 N   0  0  0  0  0  0  0  0  0  0  0  0
  -19.4350  -48.4960  -11.6500 C   0  0  0  0  0  0  0  0  0  0  0  0
  -18.6030  -47.6130  -11.4780 O   0  0  0  0  0  0  0  0  0  0  0  0
  -20.8600  -48.1560  -11.8710 C   0  0  0  0  0  0  0  0  0  0  0  0
  -21.7760  -49.1150  -12.0570 C   0  0  0  0  0  0  0  0  0  0  0  0
  -23.1120  -48.8480  -12.2640 O   0  0  0  0  0  0  0  0  0  0  0  0
  -21.3860  -50.5330  -12.0490 C   0  0  0  0  0  0  0  0  0  0  0  0
  -22.3110  -51.5690  -12.2440 C   0  0  0  0  0  0  0  0  0  0  0  0
  -27.2470  -58.4920  -15.2860 C   0  0  0  0  0  0  0  0  0  0  0  0
  -28.0900  -59.5820  -15.1170 C   0  0  0  0  0  0  0  0  0  0  0  0
  -29.4280  -59.3740  -14.7840 C   0  0  0  0  0  0  0  0  0  0  0  0
  -29.9540  -58.1010  -14.6230 C   0  0  0  0  0  0  0  0  0  0  0  0
  -31.2600  -57.9960  -14.3160 N   0  0  0  0  0  0  0  0  0  0  0  0
  -33.7190  -57.1060  -14.5860 H   0  0  0  0  0  0  0  0  0  0  0  0
  -33.2520  -57.2360  -12.9770 H   0  0  0  0  0  0  0  0  0  0  0  0
  -31.5289  -54.6299  -14.1903 H   0  0  0  0  0  0  0  0  0  0  0  0
  -29.1004  -54.8100  -14.7531 H   0  0  0  0  0  0  0  0  0  0  0  0
  -26.1554  -56.2386  -16.2128 H   0  0  0  0  0  0  0  0  0  0  0  0
  -27.3406  -55.1135  -15.4332 H   0  0  0  0  0  0  0  0  0  0  0  0
  -25.4570  -56.7320  -13.8000 H   0  0  0  0  0  0  0  0  0  0  0  0
  -24.5830  -55.9229  -12.1370 H   0  0  0  0  0  0  0  0  0  0  0  0
  -25.3369  -55.5004   -9.9575 H   0  0  0  0  0  0  0  0  0  0  0  0
  -26.3618  -54.0881  -10.5460 H   0  0  0  0  0  0  0  0  0  0  0  0
  -28.6076  -54.3737  -10.5657 H   0  0  0  0  0  0  0  0  0  0  0  0
  -30.6163  -55.8229  -10.8263 H   0  0  0  0  0  0  0  0  0  0  0  0
  -30.3475  -58.2600  -11.2803 H   0  0  0  0  0  0  0  0  0  0  0  0
  -28.0666  -59.2496  -11.4551 H   0  0  0  0  0  0  0  0  0  0  0  0
  -26.0543  -57.8058  -11.2015 H   0  0  0  0  0  0  0  0  0  0  0  0
  -24.4050  -53.0340  -11.5330 H   0  0  0  0  0  0  0  0  0  0  0  0
  -20.1990  -54.2498  -12.0244 H   0  0  0  0  0  0  0  0  0  0  0  0
  -18.5425  -52.4151  -11.6752 H   0  0  0  0  0  0  0  0  0  0  0  0
  -18.1290  -50.0350  -11.4990 H   0  0  0  0  0  0  0  0  0  0  0  0
  -21.1700  -47.1007  -11.8825 H   0  0  0  0  0  0  0  0  0  0  0  0
  -23.4850  -49.5370  -12.8400 H   0  0  0  0  0  0  0  0  0  0  0  0
  -23.3713  -51.3311  -12.4150 H   0  0  0  0  0  0  0  0  0  0  0  0
  -26.1932  -58.6539  -15.5568 H   0  0  0  0  0  0  0  0  0  0  0  0
  -27.7045  -60.6043  -15.2451 H   0  0  0  0  0  0  0  0  0  0  0  0
  -30.0853  -60.2450  -14.6450 H   0  0  0  0  0  0  0  0  0  0  0  0
  1  2  1  0
  2  3  2  0
  3  4  1  0
  4  5  2  0
  5  6  1  0
  6  7  1  0
  7  8  1  0
  8  9  1  0
  9 10  2  0
  9 11  1  0
 11 12  1  0
 12 13  1  0
 13 14  2  0
 14 15  1  0
 15 16  2  0
 16 17  1  0
 17 18  2  0
 11 19  1  0
 19 20  1  0
 20 21  2  0
 20 22  1  0
 22 23  2  0
 23 24  1  0
 24 25  2  0
 25 26  1  0
 26 27  1  0
 27 28  2  0
 27 29  1  0
 29 30  2  0
 30 31  1  0
 30 32  1  0
 32 33  2  0
  6 34  2  0
 34 35  1  0
 35 36  2  0
 36 37  1  0
 37 38  2  0
 38  2  1  0
 37  5  1  0
 18 13  1  0
 33 22  1  0
 32 25  1  0
  1 39  1  0
  1 40  1  0
  3 41  1  0
  4 42  1  0
  7 43  1  0
  7 44  1  0
  8 45  1  0
 11 46  1  6
 12 47  1  0
 12 48  1  0
 14 49  1  0
 15 50  1  0
 16 51  1  0
 17 52  1  0
 18 53  1  0
 19 54  1  0
 23 55  1  0
 24 56  1  0
 26 57  1  0
 29 58  1  0
 31 59  1  0
 33 60  1  0
 34 61  1  0
 35 62  1  0
 36 63  1  0
M  END
>  <meeko>  (5) 
{"is_sidechain": [false], "free_energy": -9.389, "intermolecular_energy": -12.172, "internal_energy": -2.827}

$$$$
4cra_ligand
     RDKit          3D

 63 67  0  0  0  0  0  0  0  0999 V2000
  -27.9450  -55.1390  -16.9490 N   0  0  0  0  0  0  0  0  0  0  0  0
  -26.5850  -54.8630  -16.8200 C   0  0  0  0  0  0  0  0  0  0  0  0
  -25.8780  -55.3110  -15.7230 C   0  0  0  0  0  0  0  0  0  0  0  0
  -24.5180  -55.0270  -15.6460 C   0  0  0  0  0  0  0  0  0  0  0  0
  -23.8810  -54.3000  -16.6700 C   0  0  0  0  0  0  0  0  0  0  0  0
  -22.4950  -53.9640  -16.6730 C   0  0  0  0  0  0  0  0  0  0  0  0
  -21.5550  -54.3610  -15.5580 C   0  0  0  0  0  0  0  0  0  0  0  0
  -21.9020  -53.7070  -14.3200 N   0  0  0  0  0  0  0  0  0  0  0  0
  -21.3880  -52.4730  -13.9690 C   0  0  0  0  0  0  0  0  0  0  0  0
  -20.5510  -51.8910  -14.6560 O   0  0  0  0  0  0  0  0  0  0  0  0
  -22.0750  -51.8390  -12.7330 C   0  0  2  0  0  0  0  0  0  0  0  0
  -21.0780  -51.4900  -11.6080 C   0  0  0  0  0  0  0  0  0  0  0  0
  -20.5470  -50.0700  -11.6290 C   0  0  0  0  0  0  0  0  0  0  0  0
  -19.1790  -49.8240  -11.4340 C   0  0  0  0  0  0  0  0  0  0  0  0
  -18.6780  -48.5230  -11.4860 C   0  0  0  0  0  0  0  0  0  0  0  0
  -19.5370  -47.4550  -11.7280 C   0  0  0  0  0  0  0  0  0  0  0  0
  -20.8980  -47.6860  -11.9140 C   0  0  0  0  0  0  0  0  0  0  0  0
  -21.4020  -48.9860  -11.8640 C   0  0  0  0  0  0  0  0  0  0  0  0
  -23.2040  -52.6490  -12.2470 N   0  0  0  0  0  0  0  0  0  0  0  0
  -24.4380  -52.6580  -12.8490 C   0  0  0  0  0  0  0  0  0  0  0  0
  -24.6780  -52.0060  -13.8610 O   0  0  0  0  0  0  0  0  0  0  0  0
  -25.4920  -53.5160  -12.2410 C   0  0  0  0  0  0  0  0  0  0  0  0
  -25.2680  -54.0070  -10.9460 C   0  0  0  0  0  0  0  0  0  0  0  0
  -26.2190  -54.8160  -10.3210 C   0  0  0  0  0  0  0  0  0  0  0  0
  -27.3990  -55.1290  -10.9920 C   0  0  0  0  0  0  0  0  0  0  0  0
  -28.3550  -55.9410  -10.3660 N   0  0  0  0  0  0  0  0  0  0  0  0
  -29.5430  -56.2920  -10.9440 C   0  0  0  0  0  0  0  0  0  0  0  0
  -30.3630  -57.0050  -10.3760 O   0  0  0  0  0  0  0  0  0  0  0  0
  -29.8100  -55.7740  -12.3050 C   0  0  0  0  0  0  0  0  0  0  0  0
  -28.9180  -54.9970  -12.9330 C   0  0  0  0  0  0  0  0  0  0  0  0
  -29.1210  -54.4920  -14.2000 O   0  0  0  0  0  0  0  0  0  0  0  0
  -27.6490  -54.6380  -12.2820 C   0  0  0  0  0  0  0  0  0  0  0  0
  -26.6890  -53.8250  -12.9020 C   0  0  0  0  0  0  0  0  0  0  0  0
  -21.9750  -53.2030  -17.7330 C   0  0  0  0  0  0  0  0  0  0  0  0
  -22.7910  -52.8070  -18.7840 C   0  0  0  0  0  0  0  0  0  0  0  0
  -24.1400  -53.1600  -18.7800 C   0  0  0  0  0  0  0  0  0  0  0  0
  -24.7040  -53.8930  -17.7460 C   0  0  0  0  0  0  0  0  0  0  0  0
  -26.0170  -54.1740  -17.8190 N   0  0  0  0  0  0  0  0  0  0  0  0
  -28.2230  -55.9040  -16.3460 H   0  0  0  0  0  0  0  0  0  0  0  0
  -28.4370  -54.2780  -16.7160 H   0  0  0  0  0  0  0  0  0  0  0  0
  -26.3789  -55.8805  -14.9263 H   0  0  0  0  0  0  0  0  0  0  0  0
  -23.9362  -55.3729  -14.7789 H   0  0  0  0  0  0  0  0  0  0  0  0
  -21.6092  -55.4503  -15.4149 H   0  0  0  0  0  0  0  0  0  0  0  0
  -20.5363  -54.0546  -15.8380 H   0  0  0  0  0  0  0  0  0  0  0  0
  -22.7910  -53.9590  -13.8880 H   0  0  0  0  0  0  0  0  0  0  0  0
  -22.4959  -50.8818  -13.0745 H   0  0  0  0  0  0  0  0  0  0  0  0
  -21.5840  -51.6492  -10.6443 H   0  0  0  0  0  0  0  0  0  0  0  0
  -20.2060  -52.1427  -11.7617 H   0  0  0  0  0  0  0  0  0  0  0  0
  -18.4962  -50.6640  -11.2385 H   0  0  0  0  0  0  0  0  0  0  0  0
  -17.6036  -48.3412  -11.3357 H   0  0  0  0  0  0  0  0  0  0  0  0
  -19.1415  -46.4295  -11.7723 H   0  0  0  0  0  0  0  0  0  0  0  0
  -21.5772  -46.8412  -12.1008 H   0  0  0  0  0  0  0  0  0  0  0  0
  -22.4782  -49.1607  -12.0101 H   0  0  0  0  0  0  0  0  0  0  0  0
  -23.0020  -53.2920  -11.4930 H   0  0  0  0  0  0  0  0  0  0  0  0
  -24.3364  -53.7528  -10.4192 H   0  0  0  0  0  0  0  0  0  0  0  0
  -26.0380  -55.2029   -9.3073 H   0  0  0  0  0  0  0  0  0  0  0  0
  -28.1910  -56.3020   -9.4370 H   0  0  0  0  0  0  0  0  0  0  0  0
  -30.7542  -56.0309  -12.8075 H   0  0  0  0  0  0  0  0  0  0  0  0
  -28.8640  -53.5540  -14.2090 H   0  0  0  0  0  0  0  0  0  0  0  0
  -26.8760  -53.4283  -13.9108 H   0  0  0  0  0  0  0  0  0  0  0  0
  -20.9124  -52.9185  -17.7303 H   0  0  0  0  0  0  0  0  0  0  0  0
  -22.3758  -52.2181  -19.6152 H   0  0  0  0  0  0  0  0  0  0  0  0
  -24.7758  -52.8480  -19.6217 H   0  0  0  0  0  0  0  0  0  0  0  0
  1  2  1  0
  2  3  2  0
  3  4  1  0
  4  5  2  0
  5  6  1  0
  6  7  1  0
  7  8  1  0
  8  9  1  0
  9 10  2  0
  9 11  1  0
 11 12  1  0
 12 13  1  0
 13 14  2  0
 14 15  1  0
 15 16  2  0
 16 17  1  0
 17 18  2  0
 11 19  1  0
 19 20  1  0
 20 21  2  0
 20 22  1  0
 22 23  2  0
 23 24  1  0
 24 25  2  0
 25 26  1  0
 26 27  1  0
 27 28  2  0
 27 29  1  0
 29 30  2  0
 30 31  1  0
 30 32  1  0
 32 33  2  0
  6 34  2  0
 34 35  1  0
 35 36  2  0
 36 37  1  0
 37 38  2  0
 38  2  1  0
 37  5  1  0
 18 13  1  0
 33 22  1  0
 32 25  1  0
  1 39  1  0
  1 40  1  0
  3 41  1  0
  4 42  1  0
  7 43  1  0
  7 44  1  0
  8 45  1  0
 11 46  1  6
 12 47  1  0
 12 48  1  0
 14 49  1  0
 15 50  1  0
 16 51  1  0
 17 52  1  0
 18 53  1  0
 19 54  1  0
 23 55  1  0
 24 56  1  0
 26 57  1  0
 29 58  1  0
 31 59  1  0
 33 60  1  0
 34 61  1  0
 35 62  1  0
 36 63  1  0
M  END
>  <meeko>  (6) 
{"is_sidechain": [false], "free_energy": -9.317, "intermolecular_energy": -12.999, "internal_energy": -1.893}

$$$$
4cra_ligand
     RDKit          3D

 63 67  0  0  0  0  0  0  0  0999 V2000
  -30.4090  -59.1430   -4.0980 N   0  0  0  0  0  0  0  0  0  0  0  0
  -29.7760  -58.4570   -5.1330 C   0  0  0  0  0  0  0  0  0  0  0  0
  -28.4260  -58.1750   -5.0640 C   0  0  0  0  0  0  0  0  0  0  0  0
  -27.8330  -57.5030   -6.1290 C   0  0  0  0  0  0  0  0  0  0  0  0
  -28.5970  -57.1260   -7.2510 C   0  0  0  0  0  0  0  0  0  0  0  0
  -28.0720  -56.4370   -8.3840 C   0  0  0  0  0  0  0  0  0  0  0  0
  -26.6200  -56.0340   -8.4960 C   0  0  0  0  0  0  0  0  0  0  0  0
  -26.4470  -54.9370   -9.4160 N   0  0  0  0  0  0  0  0  0  0  0  0
  -25.8680  -55.1030  -10.6590 C   0  0  0  0  0  0  0  0  0  0  0  0
  -25.4020  -56.1780  -11.0290 O   0  0  0  0  0  0  0  0  0  0  0  0
  -26.0060  -53.8650  -11.5820 C   0  0  2  0  0  0  0  0  0  0  0  0
  -26.3910  -54.2390  -13.0300 C   0  0  0  0  0  0  0  0  0  0  0  0
  -27.8410  -54.6310  -13.2340 C   0  0  0  0  0  0  0  0  0  0  0  0
  -28.1680  -55.7370  -14.0350 C   0  0  0  0  0  0  0  0  0  0  0  0
  -29.4970  -56.1250  -14.2010 C   0  0  0  0  0  0  0  0  0  0  0  0
  -30.5150  -55.4100  -13.5740 C   0  0  0  0  0  0  0  0  0  0  0  0
  -30.2040  -54.3040  -12.7850 C   0  0  0  0  0  0  0  0  0  0  0  0
  -28.8740  -53.9160  -12.6160 C   0  0  0  0  0  0  0  0  0  0  0  0
  -24.8220  -52.9940  -11.5270 N   0  0  0  0  0  0  0  0  0  0  0  0
  -23.6180  -53.3230  -12.1010 C   0  0  0  0  0  0  0  0  0  0  0  0
  -23.4550  -54.3640  -12.7300 O   0  0  0  0  0  0  0  0  0  0  0  0
  -22.5000  -52.3500  -11.9560 C   0  0  0  0  0  0  0  0  0  0  0  0
  -21.2260  -52.8590  -11.6650 C   0  0  0  0  0  0  0  0  0  0  0  0
  -20.1360  -51.9990  -11.5180 C   0  0  0  0  0  0  0  0  0  0  0  0
  -20.3220  -50.6260  -11.6690 C   0  0  0  0  0  0  0  0  0  0  0  0
  -19.2290  -49.7620  -11.5220 N   0  0  0  0  0  0  0  0  0  0  0  0
  -19.3150  -48.4050  -11.6600 C   0  0  0  0  0  0  0  0  0  0  0  0
  -18.3450  -47.6680  -11.5260 O   0  0  0  0  0  0  0  0  0  0  0  0
  -20.6480  -47.8440  -11.9830 C   0  0  0  0  0  0  0  0  0  0  0  0
  -21.7130  -48.6400  -12.1290 C   0  0  0  0  0  0  0  0  0  0  0  0
  -22.9720  -48.1660  -12.4270 O   0  0  0  0  0  0  0  0  0  0  0  0
  -21.5850  -50.0970  -11.9720 C   0  0  0  0  0  0  0  0  0  0  0  0
  -22.6730  -50.9690  -12.1200 C   0  0  0  0  0  0  0  0  0  0  0  0
  -28.9370  -56.0800   -9.4310 C   0  0  0  0  0  0  0  0  0  0  0  0
  -30.2820  -56.4190   -9.3830 C   0  0  0  0  0  0  0  0  0  0  0  0
  -30.7780  -57.1120   -8.2790 C   0  0  0  0  0  0  0  0  0  0  0  0
  -29.9680  -57.4690   -7.2120 C   0  0  0  0  0  0  0  0  0  0  0  0
  -30.5370  -58.1220   -6.1830 N   0  0  0  0  0  0  0  0  0  0  0  0
  -29.8510  -59.1300   -3.2530 H   0  0  0  0  0  0  0  0  0  0  0  0
  -31.3100  -58.6900   -3.9600 H   0  0  0  0  0  0  0  0  0  0  0  0
  -27.8328  -58.4746   -4.1874 H   0  0  0  0  0  0  0  0  0  0  0  0
  -26.7597  -57.2645   -6.0943 H   0  0  0  0  0  0  0  0  0  0  0  0
  -26.2557  -55.7296   -7.5037 H   0  0  0  0  0  0  0  0  0  0  0  0
  -26.0502  -56.8956   -8.8741 H   0  0  0  0  0  0  0  0  0  0  0  0
  -27.0740  -54.1390   -9.3190 H   0  0  0  0  0  0  0  0  0  0  0  0
  -26.8477  -53.2793  -11.1839 H   0  0  0  0  0  0  0  0  0  0  0  0
  -26.1798  -53.3716  -13.6726 H   0  0  0  0  0  0  0  0  0  0  0  0
  -25.7967  -55.1296  -13.2824 H   0  0  0  0  0  0  0  0  0  0  0  0
  -27.3685  -56.3024  -14.5361 H   0  0  0  0  0  0  0  0  0  0  0  0
  -29.7416  -56.9957  -14.8271 H   0  0  0  0  0  0  0  0  0  0  0  0
  -31.5633  -55.7180  -13.7015 H   0  0  0  0  0  0  0  0  0  0  0  0
  -31.0082  -53.7359  -12.2946 H   0  0  0  0  0  0  0  0  0  0  0  0
  -28.6355  -53.0417  -11.9925 H   0  0  0  0  0  0  0  0  0  0  0  0
  -24.9600  -52.0750  -11.1280 H   0  0  0  0  0  0  0  0  0  0  0  0
  -21.0845  -53.9440  -11.5517 H   0  0  0  0  0  0  0  0  0  0  0  0
  -19.1392  -52.4015  -11.2850 H   0  0  0  0  0  0  0  0  0  0  0  0
  -18.3120  -50.1260  -11.3030 H   0  0  0  0  0  0  0  0  0  0  0  0
  -20.7634  -46.7568  -12.1045 H   0  0  0  0  0  0  0  0  0  0  0  0
  -22.9590  -47.7770  -13.3190 H   0  0  0  0  0  0  0  0  0  0  0  0
  -23.6670  -50.5672  -12.3660 H   0  0  0  0  0  0  0  0  0  0  0  0
  -28.5450  -55.5266  -10.2971 H   0  0  0  0  0  0  0  0  0  0  0  0
  -30.9524  -56.1429  -10.2103 H   0  0  0  0  0  0  0  0  0  0  0  0
  -31.8437  -57.3834   -8.2541 H   0  0  0  0  0  0  0  0  0  0  0  0
  1  2  1  0
  2  3  2  0
  3  4  1  0
  4  5  2  0
  5  6  1  0
  6  7  1  0
  7  8  1  0
  8  9  1  0
  9 10  2  0
  9 11  1  0
 11 12  1  0
 12 13  1  0
 13 14  2  0
 14 15  1  0
 15 16  2  0
 16 17  1  0
 17 18  2  0
 11 19  1  0
 19 20  1  0
 20 21  2  0
 20 22  1  0
 22 23  2  0
 23 24  1  0
 24 25  2  0
 25 26  1  0
 26 27  1  0
 27 28  2  0
 27 29  1  0
 29 30  2  0
 30 31  1  0
 30 32  1  0
 32 33  2  0
  6 34  2  0
 34 35  1  0
 35 36  2  0
 36 37  1  0
 37 38  2  0
 38  2  1  0
 37  5  1  0
 18 13  1  0
 33 22  1  0
 32 25  1  0
  1 39  1  0
  1 40  1  0
  3 41  1  0
  4 42  1  0
  7 43  1  0
  7 44  1  0
  8 45  1  0
 11 46  1  1
 12 47  1  0
 12 48  1  0
 14 49  1  0
 15 50  1  0
 16 51  1  0
 17 52  1  0
 18 53  1  0
 19 54  1  0
 23 55  1  0
 24 56  1  0
 26 57  1  0
 29 58  1  0
 31 59  1  0
 33 60  1  0
 34 61  1  0
 35 62  1  0
 36 63  1  0
M  END
>  <meeko>  (7) 
{"is_sidechain": [false], "free_energy": -9.245, "intermolecular_energy": -13.663, "internal_energy": -1.125}

$$$$
4cra_ligand
     RDKit          3D

 63 67  0  0  0  0  0  0  0  0999 V2000
  -19.4060  -45.9300  -11.6130 N   0  0  0  0  0  0  0  0  0  0  0  0
  -19.6920  -47.2940  -11.6280 C   0  0  0  0  0  0  0  0  0  0  0  0
  -18.6730  -48.2250  -11.6450 C   0  0  0  0  0  0  0  0  0  0  0  0
  -19.0060  -49.5760  -11.6420 C   0  0  0  0  0  0  0  0  0  0  0  0
  -20.3550  -49.9790  -11.6180 C   0  0  0  0  0  0  0  0  0  0  0  0
  -20.7870  -51.3380  -11.6140 C   0  0  0  0  0  0  0  0  0  0  0  0
  -19.8230  -52.5020  -11.6350 C   0  0  0  0  0  0  0  0  0  0  0  0
  -20.3240  -53.5860  -12.4430 N   0  0  0  0  0  0  0  0  0  0  0  0
  -19.4990  -54.5790  -12.9370 C   0  0  0  0  0  0  0  0  0  0  0  0
  -18.2810  -54.5610  -12.7770 O   0  0  0  0  0  0  0  0  0  0  0  0
  -20.2660  -55.7730  -13.5610 C   0  0  2  0  0  0  0  0  0  0  0  0
  -19.9340  -55.9810  -15.0540 C   0  0  0  0  0  0  0  0  0  0  0  0
  -20.3810  -54.8660  -15.9790 C   0  0  0  0  0  0  0  0  0  0  0  0
  -21.7080  -54.8150  -16.4330 C   0  0  0  0  0  0  0  0  0  0  0  0
  -22.1360  -53.7740  -17.2570 C   0  0  0  0  0  0  0  0  0  0  0  0
  -21.2430  -52.7760  -17.6400 C   0  0  0  0  0  0  0  0  0  0  0  0
  -19.9200  -52.8230  -17.2030 C   0  0  0  0  0  0  0  0  0  0  0  0
  -19.4910  -53.8620  -16.3780 C   0  0  0  0  0  0  0  0  0  0  0  0
  -21.7150  -55.6940  -13.3170 N   0  0  0  0  0  0  0  0  0  0  0  0
  -22.4350  -56.7040  -12.7280 C   0  0  0  0  0  0  0  0  0  0  0  0
  -21.9090  -57.7420  -12.3360 O   0  0  0  0  0  0  0  0  0  0  0  0
  -23.8990  -56.4930  -12.5550 C   0  0  0  0  0  0  0  0  0  0  0  0
  -24.6950  -57.6190  -12.2960 C   0  0  0  0  0  0  0  0  0  0  0  0
  -26.0740  -57.4870  -12.1230 C   0  0  0  0  0  0  0  0  0  0  0  0
  -26.6560  -56.2230  -12.2020 C   0  0  0  0  0  0  0  0  0  0  0  0
  -28.0400  -56.0880  -12.0280 N   0  0  0  0  0  0  0  0  0  0  0  0
  -28.6950  -54.8900  -12.0800 C   0  0  0  0  0  0  0  0  0  0  0  0
  -29.9070  -54.7970  -11.9250 O   0  0  0  0  0  0  0  0  0  0  0  0
  -27.8740  -53.6840  -12.3360 C   0  0  0  0  0  0  0  0  0  0  0  0
  -26.5500  -53.7760  -12.5090 C   0  0  0  0  0  0  0  0  0  0  0  0
  -25.7450  -52.6840  -12.7510 O   0  0  0  0  0  0  0  0  0  0  0  0
  -25.8770  -55.0830  -12.4470 C   0  0  0  0  0  0  0  0  0  0  0  0
  -24.4920  -55.2250  -12.6180 C   0  0  0  0  0  0  0  0  0  0  0  0
  -22.1620  -51.6230  -11.6250 C   0  0  0  0  0  0  0  0  0  0  0  0
  -23.0950  -50.5950  -11.6090 C   0  0  0  0  0  0  0  0  0  0  0  0
  -22.6600  -49.2700  -11.5930 C   0  0  0  0  0  0  0  0  0  0  0  0
  -21.3140  -48.9390  -11.6010 C   0  0  0  0  0  0  0  0  0  0  0  0
  -20.9880  -47.6340  -11.5990 N   0  0  0  0  0  0  0  0  0  0  0  0
  -18.7840  -45.6770  -12.3720 H   0  0  0  0  0  0  0  0  0  0  0  0
  -20.2990  -45.4470  -11.6820 H   0  0  0  0  0  0  0  0  0  0  0  0
  -17.6205  -47.9058  -11.6606 H   0  0  0  0  0  0  0  0  0  0  0  0
  -18.2097  -50.3347  -11.6585 H   0  0  0  0  0  0  0  0  0  0  0  0
  -18.8614  -52.1628  -12.0477 H   0  0  0  0  0  0  0  0  0  0  0  0
  -19.6988  -52.8671  -10.6048 H   0  0  0  0  0  0  0  0  0  0  0  0
  -21.3080  -53.8330  -12.3400 H   0  0  0  0  0  0  0  0  0  0  0  0
  -19.9071  -56.6729  -13.0401 H   0  0  0  0  0  0  0  0  0  0  0  0
  -18.8429  -56.0838  -15.1483 H   0  0  0  0  0  0  0  0  0  0  0  0
  -20.4900  -56.8770  -15.3671 H   0  0  0  0  0  0  0  0  0  0  0  0
  -22.4165  -55.6025  -16.1366 H   0  0  0  0  0  0  0  0  0  0  0  0
  -23.1792  -53.7412  -17.6045 H   0  0  0  0  0  0  0  0  0  0  0  0
  -21.5810  -51.9524  -18.2860 H   0  0  0  0  0  0  0  0  0  0  0  0
  -19.2127  -52.0384  -17.5098 H   0  0  0  0  0  0  0  0  0  0  0  0
  -18.4453  -53.8929  -16.0381 H   0  0  0  0  0  0  0  0  0  0  0  0
  -22.1540  -54.8040  -13.5120 H   0  0  0  0  0  0  0  0  0  0  0  0
  -24.2291  -58.6132  -12.2288 H   0  0  0  0  0  0  0  0  0  0  0  0
  -26.6958  -58.3728  -11.9261 H   0  0  0  0  0  0  0  0  0  0  0  0
  -28.6160  -56.9000  -11.8500 H   0  0  0  0  0  0  0  0  0  0  0  0
  -28.3596  -52.6982  -12.3847 H   0  0  0  0  0  0  0  0  0  0  0  0
  -25.9340  -52.0000  -12.0860 H   0  0  0  0  0  0  0  0  0  0  0  0
  -23.8689  -54.3374  -12.8023 H   0  0  0  0  0  0  0  0  0  0  0  0
  -22.5025  -52.6688  -11.6465 H   0  0  0  0  0  0  0  0  0  0  0  0
  -24.1709  -50.8242  -11.6089 H   0  0  0  0  0  0  0  0  0  0  0  0
  -23.4076  -48.4633  -11.5734 H   0  0  0  0  0  0  0  0  0  0  0  0
  1  2  1  0
  2  3  2  0
  3  4  1  0
  4  5  2  0
  5  6  1  0
  6  7  1  0
  7  8  1  0
  8  9  1  0
  9 10  2  0
  9 11  1  0
 11 12  1  0
 12 13  1  0
 13 14  2  0
 14 15  1  0
 15 16  2  0
 16 17  1  0
 17 18  2  0
 11 19  1  0
 19 20  1  0
 20 21  2  0
 20 22  1  0
 22 23  2  0
 23 24  1  0
 24 25  2  0
 25 26  1  0
 26 27  1  0
 27 28  2  0
 27 29  1  0
 29 30  2  0
 30 31  1  0
 30 32  1  0
 32 33  2  0
  6 34  2  0
 34 35  1  0
 35 36  2  0
 36 37  1  0
 37 38  2  0
 38  2  1  0
 37  5  1  0
 18 13  1  0
 33 22  1  0
 32 25  1  0
  1 39  1  0
  1 40  1  0
  3 41  1  0
  4 42  1  0
  7 43  1  0
  7 44  1  0
  8 45  1  0
 11 46  1  1
 12 47  1  0
 12 48  1  0
 14 49  1  0
 15 50  1  0
 16 51  1  0
 17 52  1  0
 18 53  1  0
 19 54  1  0
 23 55  1  0
 24 56  1  0
 26 57  1  0
 29 58  1  0
 31 59  1  0
 33 60  1  0
 34 61  1  0
 35 62  1  0
 36 63  1  0
M  END
>  <meeko>  (8) 
{"is_sidechain": [false], "free_energy": -9.008, "intermolecular_energy": -12.848, "internal_energy": -1.591}

$$$$
4cra_ligand
     RDKit          3D

 63 67  0  0  0  0  0  0  0  0999 V2000
  -19.1610  -47.0360  -11.8180 N   0  0  0  0  0  0  0  0  0  0  0  0
  -19.9370  -48.1930  -11.7910 C   0  0  0  0  0  0  0  0  0  0  0  0
  -21.3150  -48.1140  -11.7940 C   0  0  0  0  0  0  0  0  0  0  0  0
  -22.0480  -49.2970  -11.7840 C   0  0  0  0  0  0  0  0  0  0  0  0
  -21.3940  -50.5440  -11.7750 C   0  0  0  0  0  0  0  0  0  0  0  0
  -22.0650  -51.8030  -11.7640 C   0  0  0  0  0  0  0  0  0  0  0  0
  -23.5710  -51.9260  -11.7600 C   0  0  0  0  0  0  0  0  0  0  0  0
  -23.9880  -53.2860  -11.9970 N   0  0  0  0  0  0  0  0  0  0  0  0
  -24.3500  -53.7370  -13.2530 C   0  0  0  0  0  0  0  0  0  0  0  0
  -24.4060  -52.9920  -14.2270 O   0  0  0  0  0  0  0  0  0  0  0  0
  -24.5180  -55.2760  -13.3380 C   0  0  2  0  0  0  0  0  0  0  0  0
  -23.5920  -55.9210  -14.3910 C   0  0  0  0  0  0  0  0  0  0  0  0
  -22.1230  -55.9660  -14.0220 C   0  0  0  0  0  0  0  0  0  0  0  0
  -21.1660  -55.3700  -14.8590 C   0  0  0  0  0  0  0  0  0  0  0  0
  -19.8150  -55.3770  -14.5100 C   0  0  0  0  0  0  0  0  0  0  0  0
  -19.4060  -55.9830  -13.3250 C   0  0  0  0  0  0  0  0  0  0  0  0
  -20.3450  -56.5850  -12.4910 C   0  0  0  0  0  0  0  0  0  0  0  0
  -21.6970  -56.5780  -12.8370 C   0  0  0  0  0  0  0  0  0  0  0  0
  -25.9250  -55.6740  -13.5130 N   0  0  0  0  0  0  0  0  0  0  0  0
  -26.8640  -55.5720  -12.5170 C   0  0  0  0  0  0  0  0  0  0  0  0
  -26.6000  -55.1110  -11.4100 O   0  0  0  0  0  0  0  0  0  0  0  0
  -28.2480  -56.0240  -12.8300 C   0  0  0  0  0  0  0  0  0  0  0  0
  -28.8080  -55.6150  -14.0490 C   0  0  0  0  0  0  0  0  0  0  0  0
  -30.1020  -56.0060  -14.4010 C   0  0  0  0  0  0  0  0  0  0  0  0
  -30.8330  -56.8150  -13.5330 C   0  0  0  0  0  0  0  0  0  0  0  0
  -32.1310  -57.2080  -13.8850 N   0  0  0  0  0  0  0  0  0  0  0  0
  -32.9170  -58.0050  -13.1010 C   0  0  0  0  0  0  0  0  0  0  0  0
  -34.0510  -58.3360  -13.4300 O   0  0  0  0  0  0  0  0  0  0  0  0
  -32.3420  -58.4630  -11.8150 C   0  0  0  0  0  0  0  0  0  0  0  0
  -31.1060  -58.1050  -11.4470 C   0  0  0  0  0  0  0  0  0  0  0  0
  -30.5300  -58.5040  -10.2610 O   0  0  0  0  0  0  0  0  0  0  0  0
  -30.2870  -57.2450  -12.3150 C   0  0  0  0  0  0  0  0  0  0  0  0
  -28.9870  -56.8490  -11.9700 C   0  0  0  0  0  0  0  0  0  0  0  0
  -21.3070  -52.9840  -11.7200 C   0  0  0  0  0  0  0  0  0  0  0  0
  -19.9200  -52.9340  -11.7190 C   0  0  0  0  0  0  0  0  0  0  0  0
  -19.2760  -51.6970  -11.7510 C   0  0  0  0  0  0  0  0  0  0  0  0
  -19.9800  -50.5030  -11.7740 C   0  0  0  0  0  0  0  0  0  0  0  0
  -19.2750  -49.3580  -11.7890 N   0  0  0  0  0  0  0  0  0  0  0  0
  -18.9960  -46.7260  -12.7680 H   0  0  0  0  0  0  0  0  0  0  0  0
  -19.6670  -46.3370  -11.2770 H   0  0  0  0  0  0  0  0  0  0  0  0
  -21.8224  -47.1381  -11.8041 H   0  0  0  0  0  0  0  0  0  0  0  0
  -23.1473  -49.2576  -11.7831 H   0  0  0  0  0  0  0  0  0  0  0  0
  -23.9543  -51.5993  -10.7821 H   0  0  0  0  0  0  0  0  0  0  0  0
  -23.9722  -51.2951  -12.5668 H   0  0  0  0  0  0  0  0  0  0  0  0
  -23.6630  -53.9980  -11.3440 H   0  0  0  0  0  0  0  0  0  0  0  0
  -24.1955  -55.6733  -12.3642 H   0  0  0  0  0  0  0  0  0  0  0  0
  -23.9326  -56.9539  -14.5558 H   0  0  0  0  0  0  0  0  0  0  0  0
  -23.6610  -55.2856  -15.2862 H   0  0  0  0  0  0  0  0  0  0  0  0
  -21.4841  -54.8934  -15.7980 H   0  0  0  0  0  0  0  0  0  0  0  0
  -19.0735  -54.9040  -15.1707 H   0  0  0  0  0  0  0  0  0  0  0  0
  -18.3416  -55.9863  -13.0476 H   0  0  0  0  0  0  0  0  0  0  0  0
  -20.0202  -57.0672  -11.5572 H   0  0  0  0  0  0  0  0  0  0  0  0
  -22.4330  -57.0566  -12.1742 H   0  0  0  0  0  0  0  0  0  0  0  0
  -26.2030  -55.9370  -14.4490 H   0  0  0  0  0  0  0  0  0  0  0  0
  -28.2240  -54.9817  -14.7329 H   0  0  0  0  0  0  0  0  0  0  0  0
  -30.5403  -55.6782  -15.3552 H   0  0  0  0  0  0  0  0  0  0  0  0
  -32.5390  -56.9070  -14.7590 H   0  0  0  0  0  0  0  0  0  0  0  0
  -32.9396  -59.1067  -11.1528 H   0  0  0  0  0  0  0  0  0  0  0  0
  -31.2020  -58.9530   -9.7190 H   0  0  0  0  0  0  0  0  0  0  0  0
  -28.5451  -57.1868  -11.0210 H   0  0  0  0  0  0  0  0  0  0  0  0
  -21.8172  -53.9580  -11.6860 H   0  0  0  0  0  0  0  0  0  0  0  0
  -19.3325  -53.8636  -11.6931 H   0  0  0  0  0  0  0  0  0  0  0  0
  -18.1764  -51.6681  -11.7582 H   0  0  0  0  0  0  0  0  0  0  0  0
  1  2  1  0
  2  3  2  0
  3  4  1  0
  4  5  2  0
  5  6  1  0
  6  7  1  0
  7  8  1  0
  8  9  1  0
  9 10  2  0
  9 11  1  0
 11 12  1  0
 12 13  1  0
 13 14  2  0
 14 15  1  0
 15 16  2  0
 16 17  1  0
 17 18  2  0
 11 19  1  0
 19 20  1  0
 20 21  2  0
 20 22  1  0
 22 23  2  0
 23 24  1  0
 24 25  2  0
 25 26  1  0
 26 27  1  0
 27 28  2  0
 27 29  1  0
 29 30  2  0
 30 31  1  0
 30 32  1  0
 32 33  2  0
  6 34  2  0
 34 35  1  0
 35 36  2  0
 36 37  1  0
 37 38  2  0
 38  2  1  0
 37  5  1  0
 18 13  1  0
 33 22  1  0
 32 25  1  0
  1 39  1  0
  1 40  1  0
  3 41  1  0
  4 42  1  0
  7 43  1  0
  7 44  1  0
  8 45  1  0
 11 46  1  1
 12 47  1  0
 12 48  1  0
 14 49  1  0
 15 50  1  0
 16 51  1  0
 17 52  1  0
 18 53  1  0
 19 54  1  0
 23 55  1  0
 24 56  1  0
 26 57  1  0
 29 58  1  0
 31 59  1  0
 33 60  1  0
 34 61  1  0
 35 62  1  0
 36 63  1  0
M  END
>  <meeko>  (9) 
{"is_sidechain": [false], "free_energy": -8.849, "intermolecular_energy": -12.158, "internal_energy": -2.049}

$$$$
