3g2n_ligand
     RDKit          3D

 37 38  0  0  0  0  0  0  0  0999 V2000
   33.9150   24.9030   29.6640 O   0  0  0  0  0  0  0  0  0  0  0  0
   34.8850   24.1670   29.5120 C   0  0  0  0  0  0  0  0  0  0  0  0
   34.9090   23.1720   28.5670 N   0  0  0  0  0  0  0  0  0  0  0  0
   33.7490   22.7920   27.7980 C   0  0  2  0  0  0  0  0  0  0  0  0
   33.5910   21.4160   28.1320 O   0  0  0  0  0  0  0  0  0  0  0  0
   32.4660   20.8080   27.4870 C   0  0  2  0  0  0  0  0  0  0  0  0
   32.3080   19.3720   28.0050 C   0  0  0  0  0  0  0  0  0  0  0  0
   30.9990   18.8630   27.7760 O   0  0  0  0  0  0  0  0  0  0  0  0
   32.6690   20.8280   25.9670 C   0  0  1  0  0  0  0  0  0  0  0  0
   31.5690   20.2170   25.2840 O   0  0  0  0  0  0  0  0  0  0  0  0
   32.8140   22.2760   25.5100 C   0  0  2  0  0  0  0  0  0  0  0  0
   33.0800   22.2930   24.0970 O   0  0  0  0  0  0  0  0  0  0  0  0
   33.9300   22.9990   26.2700 C   0  0  1  0  0  0  0  0  0  0  0  0
   33.8720   24.3690   25.8460 O   0  0  0  0  0  0  0  0  0  0  0  0
   36.0930   24.3100   30.3710 C   0  0  0  0  0  0  0  0  0  0  0  0
   37.1360   23.3750   30.3530 C   0  0  0  0  0  0  0  0  0  0  0  0
   38.2510   23.5560   31.1760 C   0  0  0  0  0  0  0  0  0  0  0  0
   38.3300   24.6700   32.0110 C   0  0  0  0  0  0  0  0  0  0  0  0
   37.3020   25.6130   32.0210 C   0  0  0  0  0  0  0  0  0  0  0  0
   36.1860   25.4360   31.2000 C   0  0  0  0  0  0  0  0  0  0  0  0
   35.6110   22.4500   28.6280 H   0  0  0  0  0  0  0  0  0  0  0  0
   32.8699   23.4098   28.0333 H   0  0  0  0  0  0  0  0  0  0  0  0
   31.5480   21.3691   27.7160 H   0  0  0  0  0  0  0  0  0  0  0  0
   33.0349   18.7268   27.4899 H   0  0  0  0  0  0  0  0  0  0  0  0
   32.4833   19.3816   29.0909 H   0  0  0  0  0  0  0  0  0  0  0  0
   30.3810   19.4230   28.2950 H   0  0  0  0  0  0  0  0  0  0  0  0
   33.5760   20.2544   25.7256 H   0  0  0  0  0  0  0  0  0  0  0  0
   31.8070   20.2650   24.3330 H   0  0  0  0  0  0  0  0  0  0  0  0
   31.8760   22.8093   25.7241 H   0  0  0  0  0  0  0  0  0  0  0  0
   33.6810   23.0570   23.9670 H   0  0  0  0  0  0  0  0  0  0  0  0
   34.9330   22.6036   26.0519 H   0  0  0  0  0  0  0  0  0  0  0  0
   34.0310   24.9320   26.6370 H   0  0  0  0  0  0  0  0  0  0  0  0
   37.0774   22.4984   29.6911 H   0  0  0  0  0  0  0  0  0  0  0  0
   39.0673   22.8187   31.1650 H   0  0  0  0  0  0  0  0  0  0  0  0
   39.2052   24.8056   32.6635 H   0  0  0  0  0  0  0  0  0  0  0  0
   37.3703   26.4950   32.6748 H   0  0  0  0  0  0  0  0  0  0  0  0
   35.3780   26.1824   31.2042 H   0  0  0  0  0  0  0  0  0  0  0  0
  1  2  2  0
  2  3  1  0
  3  4  1  0
  4  5  1  0
  5  6  1  0
  6  7  1  0
  7  8  1  0
  6  9  1  0
  9 10  1  0
  9 11  1  0
 11 12  1  0
 11 13  1  0
 13 14  1  0
  2 15  1  0
 15 16  2  0
 16 17  1  0
 17 18  2  0
 18 19  1  0
 19 20  2  0
 13  4  1  0
 20 15  1  0
  3 21  1  0
  4 22  1  1
  6 23  1  6
  7 24  1  0
  7 25  1  0
  8 26  1  0
  9 27  1  1
 10 28  1  0
 11 29  1  6
 12 30  1  0
 13 31  1  6
 14 32  1  0
 16 33  1  0
 17 34  1  0
 18 35  1  0
 19 36  1  0
 20 37  1  0
M  END
>  <meeko>  (1) 
{"is_sidechain": [false], "free_energy": -9.474, "intermolecular_energy": -12.243, "internal_energy": -0.616}

$$$$
3g2n_ligand
     RDKit          3D

 37 38  0  0  0  0  0  0  0  0999 V2000
   32.0410   24.5060   30.2720 O   0  0  0  0  0  0  0  0  0  0  0  0
   33.2400   24.2950   30.1230 C   0  0  0  0  0  0  0  0  0  0  0  0
   33.7430   23.6780   29.0050 N   0  0  0  0  0  0  0  0  0  0  0  0
   32.9040   23.0720   28.0000 C   0  0  2  0  0  0  0  0  0  0  0  0
   32.9480   21.6910   28.3490 O   0  0  0  0  0  0  0  0  0  0  0  0
   32.1580   20.8690   27.4820 C   0  0  2  0  0  0  0  0  0  0  0  0
   32.1700   19.4280   28.0120 C   0  0  0  0  0  0  0  0  0  0  0  0
   30.9730   18.7300   27.6880 O   0  0  0  0  0  0  0  0  0  0  0  0
   32.7150   20.9370   26.0550 C   0  0  1  0  0  0  0  0  0  0  0  0
   31.9590   20.1160   25.1580 O   0  0  0  0  0  0  0  0  0  0  0  0
   32.6750   22.3860   25.5810 C   0  0  2  0  0  0  0  0  0  0  0  0
   33.2660   22.4640   24.2720 O   0  0  0  0  0  0  0  0  0  0  0  0
   33.4050   23.3180   26.5510 C   0  0  1  0  0  0  0  0  0  0  0  0
   33.1790   24.6490   26.0640 O   0  0  0  0  0  0  0  0  0  0  0  0
   34.2200   24.6900   31.1720 C   0  0  0  0  0  0  0  0  0  0  0  0
   33.8350   24.9340   32.4970 C   0  0  0  0  0  0  0  0  0  0  0  0
   34.7940   25.3000   33.4470 C   0  0  0  0  0  0  0  0  0  0  0  0
   36.1340   25.4150   33.0790 C   0  0  0  0  0  0  0  0  0  0  0  0
   36.5240   25.1590   31.7650 C   0  0  0  0  0  0  0  0  0  0  0  0
   35.5700   24.7930   30.8130 C   0  0  0  0  0  0  0  0  0  0  0  0
   34.6840   23.3150   29.0220 H   0  0  0  0  0  0  0  0  0  0  0  0
   31.8890   23.4959   27.9909 H   0  0  0  0  0  0  0  0  0  0  0  0
   31.1190   21.2296   27.4596 H   0  0  0  0  0  0  0  0  0  0  0  0
   33.0234   18.8939   27.5688 H   0  0  0  0  0  0  0  0  0  0  0  0
   32.2522   19.4702   29.1081 H   0  0  0  0  0  0  0  0  0  0  0  0
   30.9740   17.9020   28.2170 H   0  0  0  0  0  0  0  0  0  0  0  0
   33.7492   20.5623   26.0625 H   0  0  0  0  0  0  0  0  0  0  0  0
   32.6010   19.4540   24.8230 H   0  0  0  0  0  0  0  0  0  0  0  0
   31.6262   22.7152   25.5414 H   0  0  0  0  0  0  0  0  0  0  0  0
   32.5090   22.3900   23.6530 H   0  0  0  0  0  0  0  0  0  0  0  0
   34.4890   23.1368   26.5962 H   0  0  0  0  0  0  0  0  0  0  0  0
   32.3580   24.9870   26.4900 H   0  0  0  0  0  0  0  0  0  0  0  0
   32.7791   24.8377   32.7899 H   0  0  0  0  0  0  0  0  0  0  0  0
   34.4907   25.4974   34.4858 H   0  0  0  0  0  0  0  0  0  0  0  0
   36.8852   25.7084   33.8271 H   0  0  0  0  0  0  0  0  0  0  0  0
   37.5825   25.2453   31.4784 H   0  0  0  0  0  0  0  0  0  0  0  0
   35.8797   24.5850   29.7782 H   0  0  0  0  0  0  0  0  0  0  0  0
  1  2  2  0
  2  3  1  0
  3  4  1  0
  4  5  1  0
  5  6  1  0
  6  7  1  0
  7  8  1  0
  6  9  1  0
  9 10  1  0
  9 11  1  0
 11 12  1  0
 11 13  1  0
 13 14  1  0
  2 15  1  0
 15 16  2  0
 16 17  1  0
 17 18  2  0
 18 19  1  0
 19 20  2  0
 13  4  1  0
 20 15  1  0
  3 21  1  0
  4 22  1  6
  6 23  1  6
  7 24  1  0
  7 25  1  0
  8 26  1  0
  9 27  1  1
 10 28  1  0
 11 29  1  6
 12 30  1  0
 13 31  1  1
 14 32  1  0
 16 33  1  0
 17 34  1  0
 18 35  1  0
 19 36  1  0
 20 37  1  0
M  END
>  <meeko>  (2) 
{"is_sidechain": [false], "free_energy": -9.456, "intermolecular_energy": -12.248, "internal_energy": -0.588}

$$$$
3g2n_ligand
     RDKit          3D

 37 38  0  0  0  0  0  0  0  0999 V2000
   33.8400   24.8340   31.0350 O   0  0  0  0  0  0  0  0  0  0  0  0
   34.7510   24.4090   30.3320 C   0  0  0  0  0  0  0  0  0  0  0  0
   34.5260   23.8370   29.1050 N   0  0  0  0  0  0  0  0  0  0  0  0
   33.2050   23.5300   28.6150 C   0  0  2  0  0  0  0  0  0  0  0  0
   33.4410   22.4080   27.7680 O   0  0  0  0  0  0  0  0  0  0  0  0
   32.2450   21.9010   27.1640 C   0  0  2  0  0  0  0  0  0  0  0  0
   32.5830   20.6260   26.3770 C   0  0  0  0  0  0  0  0  0  0  0  0
   32.7770   20.8890   24.9930 O   0  0  0  0  0  0  0  0  0  0  0  0
   31.6360   22.9690   26.2480 C   0  0  1  0  0  0  0  0  0  0  0  0
   30.4430   22.4960   25.6130 O   0  0  0  0  0  0  0  0  0  0  0  0
   31.3160   24.2060   27.0810 C   0  0  2  0  0  0  0  0  0  0  0  0
   30.8150   25.2360   26.2120 O   0  0  0  0  0  0  0  0  0  0  0  0
   32.5460   24.7060   27.8440 C   0  0  1  0  0  0  0  0  0  0  0  0
   32.0820   25.7760   28.6810 O   0  0  0  0  0  0  0  0  0  0  0  0
   36.1650   24.4790   30.7940 C   0  0  0  0  0  0  0  0  0  0  0  0
   37.0780   23.4420   30.5600 C   0  0  0  0  0  0  0  0  0  0  0  0
   38.3960   23.5560   31.0110 C   0  0  0  0  0  0  0  0  0  0  0  0
   38.8070   24.7050   31.6870 C   0  0  0  0  0  0  0  0  0  0  0  0
   37.9060   25.7470   31.9090 C   0  0  0  0  0  0  0  0  0  0  0  0
   36.5890   25.6360   31.4600 C   0  0  0  0  0  0  0  0  0  0  0  0
   35.2580   23.2960   28.6710 H   0  0  0  0  0  0  0  0  0  0  0  0
   32.4924   23.3315   29.4291 H   0  0  0  0  0  0  0  0  0  0  0  0
   31.5046   21.6529   27.9388 H   0  0  0  0  0  0  0  0  0  0  0  0
   33.5051   20.1891   26.7880 H   0  0  0  0  0  0  0  0  0  0  0  0
   31.7353   19.9319   26.4750 H   0  0  0  0  0  0  0  0  0  0  0  0
   33.3530   21.6830   24.9320 H   0  0  0  0  0  0  0  0  0  0  0  0
   32.3633   23.2122   25.4594 H   0  0  0  0  0  0  0  0  0  0  0  0
   29.7230   23.0410   25.9970 H   0  0  0  0  0  0  0  0  0  0  0  0
   30.5543   23.9402   27.8287 H   0  0  0  0  0  0  0  0  0  0  0  0
   30.0630   24.8190   25.7400 H   0  0  0  0  0  0  0  0  0  0  0  0
   33.3403   25.0889   27.1864 H   0  0  0  0  0  0  0  0  0  0  0  0
   31.7060   25.3740   29.4970 H   0  0  0  0  0  0  0  0  0  0  0  0
   36.7573   22.5381   30.0213 H   0  0  0  0  0  0  0  0  0  0  0  0
   39.1102   22.7386   30.8327 H   0  0  0  0  0  0  0  0  0  0  0  0
   39.8434   24.7897   32.0457 H   0  0  0  0  0  0  0  0  0  0  0  0
   38.2331   26.6548   32.4372 H   0  0  0  0  0  0  0  0  0  0  0  0
   35.8811   26.4606   31.6299 H   0  0  0  0  0  0  0  0  0  0  0  0
  1  2  2  0
  2  3  1  0
  3  4  1  0
  4  5  1  0
  5  6  1  0
  6  7  1  0
  7  8  1  0
  6  9  1  0
  9 10  1  0
  9 11  1  0
 11 12  1  0
 11 13  1  0
 13 14  1  0
  2 15  1  0
 15 16  2  0
 16 17  1  0
 17 18  2  0
 18 19  1  0
 19 20  2  0
 13  4  1  0
 20 15  1  0
  3 21  1  0
  4 22  1  1
  6 23  1  1
  7 24  1  0
  7 25  1  0
  8 26  1  0
  9 27  1  6
 10 28  1  0
 11 29  1  1
 12 30  1  0
 13 31  1  6
 14 32  1  0
 16 33  1  0
 17 34  1  0
 18 35  1  0
 19 36  1  0
 20 37  1  0
M  END
>  <meeko>  (3) 
{"is_sidechain": [false], "free_energy": -8.53, "intermolecular_energy": -10.889, "internal_energy": -0.75}

$$$$
3g2n_ligand
     RDKit          3D

 37 38  0  0  0  0  0  0  0  0999 V2000
   33.7820   24.7540   28.1530 O   0  0  0  0  0  0  0  0  0  0  0  0
   34.2470   23.6410   28.3740 C   0  0  0  0  0  0  0  0  0  0  0  0
   35.1650   23.4130   29.3690 N   0  0  0  0  0  0  0  0  0  0  0  0
   35.7880   24.4770   30.1180 C   0  0  2  0  0  0  0  0  0  0  0  0
   36.9840   23.8640   30.5920 O   0  0  0  0  0  0  0  0  0  0  0  0
   37.7980   24.7500   31.3690 C   0  0  2  0  0  0  0  0  0  0  0  0
   39.1130   24.0410   31.7240 C   0  0  0  0  0  0  0  0  0  0  0  0
   40.0290   24.9100   32.3770 O   0  0  0  0  0  0  0  0  0  0  0  0
   37.0410   25.1740   32.6330 C   0  0  1  0  0  0  0  0  0  0  0  0
   37.8270   26.0530   33.4450 O   0  0  0  0  0  0  0  0  0  0  0  0
   35.7510   25.8760   32.2210 C   0  0  2  0  0  0  0  0  0  0  0  0
   35.0030   26.2070   33.4020 O   0  0  0  0  0  0  0  0  0  0  0  0
   34.9080   25.0050   31.2840 C   0  0  1  0  0  0  0  0  0  0  0  0
   33.8050   25.8240   30.8700 O   0  0  0  0  0  0  0  0  0  0  0  0
   33.8440   22.4690   27.5490 C   0  0  0  0  0  0  0  0  0  0  0  0
   33.5270   21.2290   28.1190 C   0  0  0  0  0  0  0  0  0  0  0  0
   33.1520   20.1590   27.3010 C   0  0  0  0  0  0  0  0  0  0  0  0
   33.0840   20.3260   25.9180 C   0  0  0  0  0  0  0  0  0  0  0  0
   33.3840   21.5630   25.3470 C   0  0  0  0  0  0  0  0  0  0  0  0
   33.7590   22.6340   26.1600 C   0  0  0  0  0  0  0  0  0  0  0  0
   35.6920   22.5530   29.3680 H   0  0  0  0  0  0  0  0  0  0  0  0
   35.9606   25.3747   29.5062 H   0  0  0  0  0  0  0  0  0  0  0  0
   38.0300   25.6563   30.7904 H   0  0  0  0  0  0  0  0  0  0  0  0
   38.8909   23.1942   32.3900 H   0  0  0  0  0  0  0  0  0  0  0  0
   39.5780   23.7003   30.7872 H   0  0  0  0  0  0  0  0  0  0  0  0
   40.7200   25.1430   31.7180 H   0  0  0  0  0  0  0  0  0  0  0  0
   36.8190   24.2753   33.2272 H   0  0  0  0  0  0  0  0  0  0  0  0
   38.3770   25.4560   33.9980 H   0  0  0  0  0  0  0  0  0  0  0  0
   36.0094   26.7920   31.6695 H   0  0  0  0  0  0  0  0  0  0  0  0
   34.7370   25.3420   33.7790 H   0  0  0  0  0  0  0  0  0  0  0  0
   34.5138   24.0995   31.7684 H   0  0  0  0  0  0  0  0  0  0  0  0
   33.2160   25.2690   30.3100 H   0  0  0  0  0  0  0  0  0  0  0  0
   33.5732   21.0973   29.2101 H   0  0  0  0  0  0  0  0  0  0  0  0
   32.9102   19.1839   27.7489 H   0  0  0  0  0  0  0  0  0  0  0  0
   32.7934   19.4810   25.2765 H   0  0  0  0  0  0  0  0  0  0  0  0
   33.3251   21.6944   24.2565 H   0  0  0  0  0  0  0  0  0  0  0  0
   33.9885   23.6106   25.7089 H   0  0  0  0  0  0  0  0  0  0  0  0
  1  2  2  0
  2  3  1  0
  3  4  1  0
  4  5  1  0
  5  6  1  0
  6  7  1  0
  7  8  1  0
  6  9  1  0
  9 10  1  0
  9 11  1  0
 11 12  1  0
 11 13  1  0
 13 14  1  0
  2 15  1  0
 15 16  2  0
 16 17  1  0
 17 18  2  0
 18 19  1  0
 19 20  2  0
 13  4  1  0
 20 15  1  0
  3 21  1  0
  4 22  1  6
  6 23  1  6
  7 24  1  0
  7 25  1  0
  8 26  1  0
  9 27  1  1
 10 28  1  0
 11 29  1  6
 12 30  1  0
 13 31  1  1
 14 32  1  0
 16 33  1  0
 17 34  1  0
 18 35  1  0
 19 36  1  0
 20 37  1  0
M  END
>  <meeko>  (4) 
{"is_sidechain": [false], "free_energy": -8.002, "intermolecular_energy": -10.322, "internal_energy": -0.634}

$$$$
3g2n_ligand
     RDKit          3D

 37 38  0  0  0  0  0  0  0  0999 V2000
   31.9410   24.2820   28.5580 O   0  0  0  0  0  0  0  0  0  0  0  0
   32.8200   23.4270   28.5190 C   0  0  0  0  0  0  0  0  0  0  0  0
   33.8910   23.4360   29.3770 N   0  0  0  0  0  0  0  0  0  0  0  0
   34.1680   24.5320   30.2740 C   0  0  2  0  0  0  0  0  0  0  0  0
   35.5830   24.4570   30.4280 O   0  0  0  0  0  0  0  0  0  0  0  0
   36.1070   25.4790   31.2840 C   0  0  2  0  0  0  0  0  0  0  0  0
   37.6400   25.3920   31.2860 C   0  0  0  0  0  0  0  0  0  0  0  0
   38.1320   24.6680   32.4070 O   0  0  0  0  0  0  0  0  0  0  0  0
   35.5420   25.3080   32.7000 C   0  0  1  0  0  0  0  0  0  0  0  0
   36.0540   26.3050   33.5910 O   0  0  0  0  0  0  0  0  0  0  0  0
   34.0220   25.4090   32.6380 C   0  0  2  0  0  0  0  0  0  0  0  0
   33.4860   25.1740   33.9510 O   0  0  0  0  0  0  0  0  0  0  0  0
   33.4310   24.4130   31.6360 C   0  0  1  0  0  0  0  0  0  0  0  0
   32.0260   24.7010   31.5760 O   0  0  0  0  0  0  0  0  0  0  0  0
   32.7750   22.3330   27.5100 C   0  0  0  0  0  0  0  0  0  0  0  0
   33.8820   21.5180   27.2430 C   0  0  0  0  0  0  0  0  0  0  0  0
   33.7890   20.5020   26.2880 C   0  0  0  0  0  0  0  0  0  0  0  0
   32.5910   20.2930   25.6050 C   0  0  0  0  0  0  0  0  0  0  0  0
   31.4800   21.0910   25.8780 C   0  0  0  0  0  0  0  0  0  0  0  0
   31.5700   22.1070   26.8310 C   0  0  0  0  0  0  0  0  0  0  0  0
   34.6980   22.8690   29.1660 H   0  0  0  0  0  0  0  0  0  0  0  0
   33.8141   25.4960   29.8798 H   0  0  0  0  0  0  0  0  0  0  0  0
   35.8093   26.4720   30.9160 H   0  0  0  0  0  0  0  0  0  0  0  0
   37.9681   24.8870   30.3655 H   0  0  0  0  0  0  0  0  0  0  0  0
   38.0379   26.4160   31.3421 H   0  0  0  0  0  0  0  0  0  0  0  0
   38.8280   25.2230   32.8220 H   0  0  0  0  0  0  0  0  0  0  0  0
   35.8473   24.3236   33.0845 H   0  0  0  0  0  0  0  0  0  0  0  0
   35.5020   26.2250   34.3990 H   0  0  0  0  0  0  0  0  0  0  0  0
   33.7490   26.4177   32.2945 H   0  0  0  0  0  0  0  0  0  0  0  0
   34.2210   25.3910   34.5620 H   0  0  0  0  0  0  0  0  0  0  0  0
   33.5650   23.3630   31.9353 H   0  0  0  0  0  0  0  0  0  0  0  0
   31.6420   24.4940   32.4590 H   0  0  0  0  0  0  0  0  0  0  0  0
   34.8255   21.6777   27.7854 H   0  0  0  0  0  0  0  0  0  0  0  0
   34.6613   19.8666   26.0748 H   0  0  0  0  0  0  0  0  0  0  0  0
   32.5221   19.4968   24.8491 H   0  0  0  0  0  0  0  0  0  0  0  0
   30.5342   20.9199   25.3430 H   0  0  0  0  0  0  0  0  0  0  0  0
   30.6920   22.7325   27.0498 H   0  0  0  0  0  0  0  0  0  0  0  0
  1  2  2  0
  2  3  1  0
  3  4  1  0
  4  5  1  0
  5  6  1  0
  6  7  1  0
  7  8  1  0
  6  9  1  0
  9 10  1  0
  9 11  1  0
 11 12  1  0
 11 13  1  0
 13 14  1  0
  2 15  1  0
 15 16  2  0
 16 17  1  0
 17 18  2  0
 18 19  1  0
 19 20  2  0
 13  4  1  0
 20 15  1  0
  3 21  1  0
  4 22  1  6
  6 23  1  6
  7 24  1  0
  7 25  1  0
  8 26  1  0
  9 27  1  1
 10 28  1  0
 11 29  1  6
 12 30  1  0
 13 31  1  1
 14 32  1  0
 16 33  1  0
 17 34  1  0
 18 35  1  0
 19 36  1  0
 20 37  1  0
M  END
>  <meeko>  (5) 
{"is_sidechain": [false], "free_energy": -7.866, "intermolecular_energy": -10.03, "internal_energy": -0.751}

$$$$
3g2n_ligand
     RDKit          3D

 37 38  0  0  0  0  0  0  0  0999 V2000
   36.5150   23.0000   30.2080 O   0  0  0  0  0  0  0  0  0  0  0  0
   36.2540   24.0890   30.7080 C   0  0  0  0  0  0  0  0  0  0  0  0
   35.0460   24.7130   30.5170 N   0  0  0  0  0  0  0  0  0  0  0  0
   34.0570   24.2360   29.5830 C   0  0  2  0  0  0  0  0  0  0  0  0
   34.6860   24.4570   28.3230 O   0  0  0  0  0  0  0  0  0  0  0  0
   33.8830   24.0360   27.2140 C   0  0  2  0  0  0  0  0  0  0  0  0
   34.6920   24.1980   25.9190 C   0  0  0  0  0  0  0  0  0  0  0  0
   34.2180   23.3470   24.8830 O   0  0  0  0  0  0  0  0  0  0  0  0
   32.5930   24.8650   27.1660 C   0  0  1  0  0  0  0  0  0  0  0  0
   31.7660   24.4820   26.0610 O   0  0  0  0  0  0  0  0  0  0  0  0
   31.8290   24.6610   28.4700 C   0  0  2  0  0  0  0  0  0  0  0  0
   30.6580   25.4950   28.4590 O   0  0  0  0  0  0  0  0  0  0  0  0
   32.6990   24.9820   29.6890 C   0  0  1  0  0  0  0  0  0  0  0  0
   31.9150   24.6250   30.8370 O   0  0  0  0  0  0  0  0  0  0  0  0
   37.2570   24.8040   31.5450 C   0  0  0  0  0  0  0  0  0  0  0  0
   38.6300   24.5480   31.4440 C   0  0  0  0  0  0  0  0  0  0  0  0
   39.5320   25.2480   32.2500 C   0  0  0  0  0  0  0  0  0  0  0  0
   39.0680   26.2070   33.1500 C   0  0  0  0  0  0  0  0  0  0  0  0
   37.7020   26.4770   33.2430 C   0  0  0  0  0  0  0  0  0  0  0  0
   36.7980   25.7790   32.4390 C   0  0  0  0  0  0  0  0  0  0  0  0
   34.9560   25.6930   30.7410 H   0  0  0  0  0  0  0  0  0  0  0  0
   33.7823   23.1865   29.7652 H   0  0  0  0  0  0  0  0  0  0  0  0
   33.6053   22.9777   27.3271 H   0  0  0  0  0  0  0  0  0  0  0  0
   34.6173   25.2425   25.5822 H   0  0  0  0  0  0  0  0  0  0  0  0
   35.7349   23.9220   26.1340 H   0  0  0  0  0  0  0  0  0  0  0  0
   34.4390   22.4270   25.1470 H   0  0  0  0  0  0  0  0  0  0  0  0
   32.8602   25.9242   27.0367 H   0  0  0  0  0  0  0  0  0  0  0  0
   32.2130   23.6990   25.6740 H   0  0  0  0  0  0  0  0  0  0  0  0
   31.5375   23.6031   28.5466 H   0  0  0  0  0  0  0  0  0  0  0  0
   30.0130   25.0080   27.9030 H   0  0  0  0  0  0  0  0  0  0  0  0
   32.9707   26.0454   29.7618 H   0  0  0  0  0  0  0  0  0  0  0  0
   32.2660   23.7730   31.1840 H   0  0  0  0  0  0  0  0  0  0  0  0
   38.9985   23.7962   30.7305 H   0  0  0  0  0  0  0  0  0  0  0  0
   40.6099   25.0422   32.1744 H   0  0  0  0  0  0  0  0  0  0  0  0
   39.7800   26.7515   33.7877 H   0  0  0  0  0  0  0  0  0  0  0  0
   37.3378   27.2384   33.9484 H   0  0  0  0  0  0  0  0  0  0  0  0
   35.7218   25.9960   32.5084 H   0  0  0  0  0  0  0  0  0  0  0  0
  1  2  2  0
  2  3  1  0
  3  4  1  0
  4  5  1  0
  5  6  1  0
  6  7  1  0
  7  8  1  0
  6  9  1  0
  9 10  1  0
  9 11  1  0
 11 12  1  0
 11 13  1  0
 13 14  1  0
  2 15  1  0
 15 16  2  0
 16 17  1  0
 17 18  2  0
 18 19  1  0
 19 20  2  0
 13  4  1  0
 20 15  1  0
  3 21  1  0
  4 22  1  1
  6 23  1  1
  7 24  1  0
  7 25  1  0
  8 26  1  0
  9 27  1  6
 10 28  1  0
 11 29  1  1
 12 30  1  0
 13 31  1  1
 14 32  1  0
 16 33  1  0
 17 34  1  0
 18 35  1  0
 19 36  1  0
 20 37  1  0
M  END
>  <meeko>  (6) 
{"is_sidechain": [false], "free_energy": -7.861, "intermolecular_energy": -10.315, "internal_energy": -0.46}

$$$$
3g2n_ligand
     RDKit          3D

 37 38  0  0  0  0  0  0  0  0999 V2000
   35.0900   24.3940   27.7780 O   0  0  0  0  0  0  0  0  0  0  0  0
   35.1480   23.5510   28.6660 C   0  0  0  0  0  0  0  0  0  0  0  0
   34.4870   22.3500   28.5820 N   0  0  0  0  0  0  0  0  0  0  0  0
   33.5390   22.0490   27.5390 C   0  0  2  0  0  0  0  0  0  0  0  0
   32.6830   23.1890   27.5590 O   0  0  0  0  0  0  0  0  0  0  0  0
   31.6440   23.1260   26.5740 C   0  0  2  0  0  0  0  0  0  0  0  0
   30.8580   24.4450   26.5910 C   0  0  0  0  0  0  0  0  0  0  0  0
   31.7080   25.5750   26.4360 O   0  0  0  0  0  0  0  0  0  0  0  0
   30.7260   21.9330   26.8660 C   0  0  1  0  0  0  0  0  0  0  0  0
   29.6640   21.8430   25.9090 O   0  0  0  0  0  0  0  0  0  0  0  0
   31.5560   20.6540   26.8310 C   0  0  2  0  0  0  0  0  0  0  0  0
   30.7140   19.5420   27.1770 O   0  0  0  0  0  0  0  0  0  0  0  0
   32.7530   20.7320   27.7820 C   0  0  1  0  0  0  0  0  0  0  0  0
   33.5160   19.5370   27.5550 O   0  0  0  0  0  0  0  0  0  0  0  0
   35.9370   23.8010   29.9040 C   0  0  0  0  0  0  0  0  0  0  0  0
   37.2540   23.3500   30.0530 C   0  0  0  0  0  0  0  0  0  0  0  0
   37.9540   23.6120   31.2340 C   0  0  0  0  0  0  0  0  0  0  0  0
   37.3440   24.3290   32.2630 C   0  0  0  0  0  0  0  0  0  0  0  0
   36.0370   24.7940   32.1140 C   0  0  0  0  0  0  0  0  0  0  0  0
   35.3360   24.5330   30.9360 C   0  0  0  0  0  0  0  0  0  0  0  0
   34.3670   21.7940   29.4150 H   0  0  0  0  0  0  0  0  0  0  0  0
   34.0262   21.8750   26.5683 H   0  0  0  0  0  0  0  0  0  0  0  0
   32.0781   22.9853   25.5731 H   0  0  0  0  0  0  0  0  0  0  0  0
   30.1284   24.4341   25.7678 H   0  0  0  0  0  0  0  0  0  0  0  0
   30.3567   24.5287   27.5666 H   0  0  0  0  0  0  0  0  0  0  0  0
   31.7700   26.0090   27.3160 H   0  0  0  0  0  0  0  0  0  0  0  0
   30.2737   22.0721   27.8590 H   0  0  0  0  0  0  0  0  0  0  0  0
   28.9520   22.4130   26.2720 H   0  0  0  0  0  0  0  0  0  0  0  0
   31.9558   20.5210   25.8149 H   0  0  0  0  0  0  0  0  0  0  0  0
   30.8970   19.3780   28.1270 H   0  0  0  0  0  0  0  0  0  0  0  0
   32.4634   20.7718   28.8424 H   0  0  0  0  0  0  0  0  0  0  0  0
   34.2780   19.7750   26.9790 H   0  0  0  0  0  0  0  0  0  0  0  0
   37.7382   22.7891   29.2400 H   0  0  0  0  0  0  0  0  0  0  0  0
   38.9868   23.2524   31.3520 H   0  0  0  0  0  0  0  0  0  0  0  0
   37.8946   24.5284   33.1942 H   0  0  0  0  0  0  0  0  0  0  0  0
   35.5599   25.3654   32.9238 H   0  0  0  0  0  0  0  0  0  0  0  0
   34.3071   24.9036   30.8173 H   0  0  0  0  0  0  0  0  0  0  0  0
  1  2  2  0
  2  3  1  0
  3  4  1  0
  4  5  1  0
  5  6  1  0
  6  7  1  0
  7  8  1  0
  6  9  1  0
  9 10  1  0
  9 11  1  0
 11 12  1  0
 11 13  1  0
 13 14  1  0
  2 15  1  0
 15 16  2  0
 16 17  1  0
 17 18  2  0
 18 19  1  0
 19 20  2  0
 13  4  1  0
 20 15  1  0
  3 21  1  0
  4 22  1  6
  6 23  1  6
  7 24  1  0
  7 25  1  0
  8 26  1  0
  9 27  1  1
 10 28  1  0
 11 29  1  6
 12 30  1  0
 13 31  1  1
 14 32  1  0
 16 33  1  0
 17 34  1  0
 18 35  1  0
 19 36  1  0
 20 37  1  0
M  END
>  <meeko>  (7) 
{"is_sidechain": [false], "free_energy": -7.839, "intermolecular_energy": -10.759, "internal_energy": 0.013}

$$$$
3g2n_ligand
     RDKit          3D

 37 38  0  0  0  0  0  0  0  0999 V2000
   34.2610   24.7220   29.9490 O   0  0  0  0  0  0  0  0  0  0  0  0
   35.3290   24.4390   29.4170 C   0  0  0  0  0  0  0  0  0  0  0  0
   35.4210   24.1020   28.0900 N   0  0  0  0  0  0  0  0  0  0  0  0
   34.2660   23.8830   27.2550 C   0  0  2  0  0  0  0  0  0  0  0  0
   33.3390   24.8470   27.7480 O   0  0  0  0  0  0  0  0  0  0  0  0
   32.0890   24.8310   27.0480 C   0  0  2  0  0  0  0  0  0  0  0  0
   31.2110   25.9800   27.5650 C   0  0  0  0  0  0  0  0  0  0  0  0
   31.0190   25.9120   28.9730 O   0  0  0  0  0  0  0  0  0  0  0  0
   31.4000   23.4760   27.2490 C   0  0  1  0  0  0  0  0  0  0  0  0
   30.1390   23.4250   26.5740 O   0  0  0  0  0  0  0  0  0  0  0  0
   32.3120   22.3770   26.7140 C   0  0  2  0  0  0  0  0  0  0  0  0
   31.7020   21.1010   26.9690 O   0  0  0  0  0  0  0  0  0  0  0  0
   33.7040   22.4380   27.3500 C   0  0  1  0  0  0  0  0  0  0  0  0
   34.4920   21.4500   26.6700 O   0  0  0  0  0  0  0  0  0  0  0  0
   36.5930   24.4310   30.2040 C   0  0  0  0  0  0  0  0  0  0  0  0
   37.2430   25.6130   30.5840 C   0  0  0  0  0  0  0  0  0  0  0  0
   38.4270   25.5520   31.3240 C   0  0  0  0  0  0  0  0  0  0  0  0
   38.9590   24.3170   31.6930 C   0  0  0  0  0  0  0  0  0  0  0  0
   38.3080   23.1380   31.3300 C   0  0  0  0  0  0  0  0  0  0  0  0
   37.1250   23.1940   30.5900 C   0  0  0  0  0  0  0  0  0  0  0  0
   36.2600   23.6550   27.7510 H   0  0  0  0  0  0  0  0  0  0  0  0
   34.4951   23.9937   26.1848 H   0  0  0  0  0  0  0  0  0  0  0  0
   32.2565   24.9712   25.9699 H   0  0  0  0  0  0  0  0  0  0  0  0
   31.6959   26.9361   27.3185 H   0  0  0  0  0  0  0  0  0  0  0  0
   30.2255   25.8978   27.0833 H   0  0  0  0  0  0  0  0  0  0  0  0
   31.7710   25.3960   29.3390 H   0  0  0  0  0  0  0  0  0  0  0  0
   31.2126   23.3324   28.3234 H   0  0  0  0  0  0  0  0  0  0  0  0
   30.2560   23.9920   25.7810 H   0  0  0  0  0  0  0  0  0  0  0  0
   32.4424   22.5232   25.6316 H   0  0  0  0  0  0  0  0  0  0  0  0
   31.1230   21.2530   27.7460 H   0  0  0  0  0  0  0  0  0  0  0  0
   33.7017   22.2093   28.4260 H   0  0  0  0  0  0  0  0  0  0  0  0
   34.9840   20.9400   27.3540 H   0  0  0  0  0  0  0  0  0  0  0  0
   36.8214   26.5885   30.2999 H   0  0  0  0  0  0  0  0  0  0  0  0
   38.9403   26.4801   31.6159 H   0  0  0  0  0  0  0  0  0  0  0  0
   39.8936   24.2725   32.2713 H   0  0  0  0  0  0  0  0  0  0  0  0
   38.7262   22.1647   31.6264 H   0  0  0  0  0  0  0  0  0  0  0  0
   36.6093   22.2638   30.3093 H   0  0  0  0  0  0  0  0  0  0  0  0
  1  2  2  0
  2  3  1  0
  3  4  1  0
  4  5  1  0
  5  6  1  0
  6  7  1  0
  7  8  1  0
  6  9  1  0
  9 10  1  0
  9 11  1  0
 11 12  1  0
 11 13  1  0
 13 14  1  0
  2 15  1  0
 15 16  2  0
 16 17  1  0
 17 18  2  0
 18 19  1  0
 19 20  2  0
 13  4  1  0
 20 15  1  0
  3 21  1  0
  4 22  1  6
  6 23  1  6
  7 24  1  0
  7 25  1  0
  8 26  1  0
  9 27  1  1
 10 28  1  0
 11 29  1  6
 12 30  1  0
 13 31  1  1
 14 32  1  0
 16 33  1  0
 17 34  1  0
 18 35  1  0
 19 36  1  0
 20 37  1  0
M  END
>  <meeko>  (8) 
{"is_sidechain": [false], "free_energy": -7.439, "intermolecular_energy": -10.592, "internal_energy": 0.363}

$$$$
3g2n_ligand
     RDKit          3D

 37 38  0  0  0  0  0  0  0  0999 V2000
   36.6490   23.5220   29.8500 O   0  0  0  0  0  0  0  0  0  0  0  0
   35.5130   23.7100   30.2720 C   0  0  0  0  0  0  0  0  0  0  0  0
   34.3980   23.2700   29.6030 N   0  0  0  0  0  0  0  0  0  0  0  0
   34.4530   22.7080   28.2750 C   0  0  2  0  0  0  0  0  0  0  0  0
   34.6110   23.8640   27.4560 O   0  0  0  0  0  0  0  0  0  0  0  0
   34.7080   23.5520   26.0610 C   0  0  2  0  0  0  0  0  0  0  0  0
   35.0000   24.8410   25.2790 C   0  0  0  0  0  0  0  0  0  0  0  0
   35.8990   24.6180   24.1990 O   0  0  0  0  0  0  0  0  0  0  0  0
   33.4030   22.9020   25.5850 C   0  0  1  0  0  0  0  0  0  0  0  0
   33.4540   22.5860   24.1890 O   0  0  0  0  0  0  0  0  0  0  0  0
   33.1670   21.6280   26.3900 C   0  0  2  0  0  0  0  0  0  0  0  0
   31.9070   21.0560   25.9980 O   0  0  0  0  0  0  0  0  0  0  0  0
   33.1820   21.9010   27.8960 C   0  0  1  0  0  0  0  0  0  0  0  0
   33.0850   20.6170   28.5300 O   0  0  0  0  0  0  0  0  0  0  0  0
   35.2850   24.4530   31.5430 C   0  0  0  0  0  0  0  0  0  0  0  0
   34.0050   24.8340   31.9650 C   0  0  0  0  0  0  0  0  0  0  0  0
   33.8440   25.5280   33.1680 C   0  0  0  0  0  0  0  0  0  0  0  0
   34.9550   25.8350   33.9520 C   0  0  0  0  0  0  0  0  0  0  0  0
   36.2300   25.4450   33.5440 C   0  0  0  0  0  0  0  0  0  0  0  0
   36.3950   24.7510   32.3430 C   0  0  0  0  0  0  0  0  0  0  0  0
   33.4940   23.6410   29.8510 H   0  0  0  0  0  0  0  0  0  0  0  0
   35.2615   21.9703   28.1649 H   0  0  0  0  0  0  0  0  0  0  0  0
   35.5278   22.8393   25.8876 H   0  0  0  0  0  0  0  0  0  0  0  0
   34.0544   25.2350   24.8782 H   0  0  0  0  0  0  0  0  0  0  0  0
   35.4695   25.5576   25.9690 H   0  0  0  0  0  0  0  0  0  0  0  0
   35.8420   25.4050   23.6140 H   0  0  0  0  0  0  0  0  0  0  0  0
   32.5787   23.6139   25.7389 H   0  0  0  0  0  0  0  0  0  0  0  0
   32.7650   21.8980   24.0630 H   0  0  0  0  0  0  0  0  0  0  0  0
   33.9834   20.9215   26.1793 H   0  0  0  0  0  0  0  0  0  0  0  0
   31.3820   21.0230   26.8250 H   0  0  0  0  0  0  0  0  0  0  0  0
   32.3429   22.5272   28.2334 H   0  0  0  0  0  0  0  0  0  0  0  0
   32.9870   19.9410   27.8210 H   0  0  0  0  0  0  0  0  0  0  0  0
   33.1268   24.5873   31.3502 H   0  0  0  0  0  0  0  0  0  0  0  0
   32.8392   25.8322   33.4963 H   0  0  0  0  0  0  0  0  0  0  0  0
   34.8255   26.3864   34.8950 H   0  0  0  0  0  0  0  0  0  0  0  0
   37.1047   25.6835   34.1670 H   0  0  0  0  0  0  0  0  0  0  0  0
   37.4002   24.4376   32.0246 H   0  0  0  0  0  0  0  0  0  0  0  0
  1  2  2  0
  2  3  1  0
  3  4  1  0
  4  5  1  0
  5  6  1  0
  6  7  1  0
  7  8  1  0
  6  9  1  0
  9 10  1  0
  9 11  1  0
 11 12  1  0
 11 13  1  0
 13 14  1  0
  2 15  1  0
 15 16  2  0
 16 17  1  0
 17 18  2  0
 18 19  1  0
 19 20  2  0
 13  4  1  0
 20 15  1  0
  3 21  1  0
  4 22  1  1
  6 23  1  1
  7 24  1  0
  7 25  1  0
  8 26  1  0
  9 27  1  6
 10 28  1  0
 11 29  1  1
 12 30  1  0
 13 31  1  6
 14 32  1  0
 16 33  1  0
 17 34  1  0
 18 35  1  0
 19 36  1  0
 20 37  1  0
M  END
>  <meeko>  (9) 
{"is_sidechain": [false], "free_energy": -7.169, "intermolecular_energy": -9.386, "internal_energy": -0.495}

$$$$
