2zb1_ligand
     RDKit          3D

 47 50  0  0  0  0  0  0  0  0999 V2000
   36.8460   26.3970   35.8580 C   0  0  0  0  0  0  0  0  0  0  0  0
   37.9810   27.2650   35.5030 C   0  0  0  0  0  0  0  0  0  0  0  0
   39.0600   27.5620   36.1930 N   0  0  0  0  0  0  0  0  0  0  0  0
   39.8000   28.4180   35.4010 N   0  0  0  0  0  0  0  0  0  0  0  0
   39.1200   28.5820   34.2830 C   0  0  0  0  0  0  0  0  0  0  0  0
   39.4330   29.3770   33.1030 C   0  0  0  0  0  0  0  0  0  0  0  0
   38.5830   29.4220   31.9920 C   0  0  0  0  0  0  0  0  0  0  0  0
   38.9140   30.1910   30.8740 C   0  0  0  0  0  0  0  0  0  0  0  0
   40.1060   30.9330   30.8360 C   0  0  0  0  0  0  0  0  0  0  0  0
   40.4170   31.7480   29.6090 C   0  0  0  0  0  0  0  0  0  0  0  0
   40.9700   30.9120   31.9510 C   0  0  0  0  0  0  0  0  0  0  0  0
   42.2240   31.6780   31.9890 C   0  0  0  0  0  0  0  0  0  0  0  0
   43.4420   31.0710   31.6470 C   0  0  0  0  0  0  0  0  0  0  0  0
   44.6400   31.7930   31.6870 C   0  0  0  0  0  0  0  0  0  0  0  0
   44.6350   33.1360   32.0790 C   0  0  0  0  0  0  0  0  0  0  0  0
   45.8820   33.9480   32.1330 C   0  0  0  0  0  0  0  0  0  0  0  0
   45.8330   35.1550   31.9260 O   0  0  0  0  0  0  0  0  0  0  0  0
   47.0360   33.2640   32.4530 N   0  0  0  0  0  0  0  0  0  0  0  0
   48.2900   33.9510   32.6580 C   0  0  0  0  0  0  0  0  0  0  0  0
   49.3740   33.2420   31.9070 C   0  0  0  0  0  0  0  0  0  0  0  0
   49.3780   33.2350   30.4000 C   0  0  0  0  0  0  0  0  0  0  0  0
   50.4170   34.0220   31.1480 C   0  0  0  0  0  0  0  0  0  0  0  0
   43.4240   33.7540   32.4090 C   0  0  0  0  0  0  0  0  0  0  0  0
   42.2300   33.0280   32.3720 C   0  0  0  0  0  0  0  0  0  0  0  0
   40.6180   30.1270   33.0670 C   0  0  0  0  0  0  0  0  0  0  0  0
   37.9450   27.8730   34.2780 O   0  0  0  0  0  0  0  0  0  0  0  0
   36.7620   26.3327   36.9529 H   0  0  0  0  0  0  0  0  0  0  0  0
   35.9184   26.8183   35.4432 H   0  0  0  0  0  0  0  0  0  0  0  0
   37.0096   25.3914   35.4432 H   0  0  0  0  0  0  0  0  0  0  0  0
   37.6456   28.8464   31.9994 H   0  0  0  0  0  0  0  0  0  0  0  0
   38.2318   30.2159   30.0114 H   0  0  0  0  0  0  0  0  0  0  0  0
   40.7941   32.7362   29.9111 H   0  0  0  0  0  0  0  0  0  0  0  0
   41.1812   31.2314   29.0097 H   0  0  0  0  0  0  0  0  0  0  0  0
   39.5029   31.8718   29.0097 H   0  0  0  0  0  0  0  0  0  0  0  0
   43.4553   30.0138   31.3435 H   0  0  0  0  0  0  0  0  0  0  0  0
   45.5859   31.3045   31.4102 H   0  0  0  0  0  0  0  0  0  0  0  0
   46.9630   32.3220   32.8070 H   0  0  0  0  0  0  0  0  0  0  0  0
   48.2060   34.9850   32.2923 H   0  0  0  0  0  0  0  0  0  0  0  0
   48.5324   33.9610   33.7309 H   0  0  0  0  0  0  0  0  0  0  0  0
   49.3970   32.4705   32.6907 H   0  0  0  0  0  0  0  0  0  0  0  0
   49.6654   32.3236   29.8553 H   0  0  0  0  0  0  0  0  0  0  0  0
   48.6386   33.4687   29.6198 H   0  0  0  0  0  0  0  0  0  0  0  0
   51.4645   33.6863   31.1507 H   0  0  0  0  0  0  0  0  0  0  0  0
   50.7524   35.0696   31.1416 H   0  0  0  0  0  0  0  0  0  0  0  0
   43.4114   34.8151   32.6986 H   0  0  0  0  0  0  0  0  0  0  0  0
   41.2852   33.5201   32.6460 H   0  0  0  0  0  0  0  0  0  0  0  0
   41.2924   30.1015   33.9357 H   0  0  0  0  0  0  0  0  0  0  0  0
  1  2  1  0
  2  3  2  0
  3  4  1  0
  4  5  2  0
  5  6  1  0
  6  7  2  0
  7  8  1  0
  8  9  2  0
  9 10  1  0
  9 11  1  0
 11 12  1  0
 12 13  2  0
 13 14  1  0
 14 15  2  0
 15 16  1  0
 16 17  2  0
 16 18  1  0
 18 19  1  0
 19 20  1  0
 20 21  1  0
 21 22  1  0
 15 23  1  0
 23 24  2  0
 11 25  2  0
  5 26  1  0
 26  2  1  0
 25  6  1  0
 24 12  1  0
 22 20  1  0
  1 27  1  0
  1 28  1  0
  1 29  1  0
  7 30  1  0
  8 31  1  0
 10 32  1  0
 10 33  1  0
 10 34  1  0
 13 35  1  0
 14 36  1  0
 18 37  1  0
 19 38  1  0
 19 39  1  0
 20 40  1  0
 21 41  1  0
 21 42  1  0
 22 43  1  0
 22 44  1  0
 23 45  1  0
 24 46  1  0
 25 47  1  0
M  END
>  <meeko>  (1) 
{"is_sidechain": [false], "free_energy": -11.006, "intermolecular_energy": -14.223, "internal_energy": -0.983}

$$$$
2zb1_ligand
     RDKit          3D

 47 50  0  0  0  0  0  0  0  0999 V2000
   49.0880   38.3710   26.8680 C   0  0  0  0  0  0  0  0  0  0  0  0
   49.5260   37.0830   27.4300 C   0  0  0  0  0  0  0  0  0  0  0  0
   50.4440   36.2450   26.9980 N   0  0  0  0  0  0  0  0  0  0  0  0
   50.4570   35.1930   27.8910 N   0  0  0  0  0  0  0  0  0  0  0  0
   49.5460   35.4630   28.8060 C   0  0  0  0  0  0  0  0  0  0  0  0
   49.1420   34.7000   29.9790 C   0  0  0  0  0  0  0  0  0  0  0  0
   50.0550   34.3170   30.9670 C   0  0  0  0  0  0  0  0  0  0  0  0
   49.6360   33.5820   32.0790 C   0  0  0  0  0  0  0  0  0  0  0  0
   48.2920   33.2070   32.2300 C   0  0  0  0  0  0  0  0  0  0  0  0
   47.8880   32.4170   33.4470 C   0  0  0  0  0  0  0  0  0  0  0  0
   47.3520   33.5950   31.2520 C   0  0  0  0  0  0  0  0  0  0  0  0
   45.9250   33.2540   31.3530 C   0  0  0  0  0  0  0  0  0  0  0  0
   45.4210   32.0990   30.7350 C   0  0  0  0  0  0  0  0  0  0  0  0
   44.0630   31.7730   30.8240 C   0  0  0  0  0  0  0  0  0  0  0  0
   43.1870   32.6060   31.5280 C   0  0  0  0  0  0  0  0  0  0  0  0
   41.7360   32.2990   31.6540 C   0  0  0  0  0  0  0  0  0  0  0  0
   41.1690   32.4620   32.7290 O   0  0  0  0  0  0  0  0  0  0  0  0
   41.1050   31.8700   30.5050 N   0  0  0  0  0  0  0  0  0  0  0  0
   39.6770   31.6560   30.4610 C   0  0  0  0  0  0  0  0  0  0  0  0
   39.3770   30.2300   30.8040 C   0  0  0  0  0  0  0  0  0  0  0  0
   39.0090   29.8470   32.2140 C   0  0  0  0  0  0  0  0  0  0  0  0
   37.9690   29.8000   31.1290 C   0  0  0  0  0  0  0  0  0  0  0  0
   43.6820   33.7530   32.1590 C   0  0  0  0  0  0  0  0  0  0  0  0
   45.0390   34.0770   32.0650 C   0  0  0  0  0  0  0  0  0  0  0  0
   47.7970   34.3330   30.1370 C   0  0  0  0  0  0  0  0  0  0  0  0
   48.9110   36.6580   28.5750 O   0  0  0  0  0  0  0  0  0  0  0  0
   48.8514   39.0667   27.6865 H   0  0  0  0  0  0  0  0  0  0  0  0
   49.8930   38.7936   26.2487 H   0  0  0  0  0  0  0  0  0  0  0  0
   48.1923   38.2152   26.2487 H   0  0  0  0  0  0  0  0  0  0  0  0
   51.1140   34.5974   30.8675 H   0  0  0  0  0  0  0  0  0  0  0  0
   50.3694   33.2934   32.8464 H   0  0  0  0  0  0  0  0  0  0  0  0
   48.1712   32.9708   34.3543 H   0  0  0  0  0  0  0  0  0  0  0  0
   46.7992   32.2606   33.4378 H   0  0  0  0  0  0  0  0  0  0  0  0
   48.3985   31.4427   33.4378 H   0  0  0  0  0  0  0  0  0  0  0  0
   46.1018   31.4420   30.1738 H   0  0  0  0  0  0  0  0  0  0  0  0
   43.6840   30.8608   30.3399 H   0  0  0  0  0  0  0  0  0  0  0  0
   41.5860   31.9580   29.6230 H   0  0  0  0  0  0  0  0  0  0  0  0
   39.1840   32.3195   31.1867 H   0  0  0  0  0  0  0  0  0  0  0  0
   39.3033   31.8772   29.4503 H   0  0  0  0  0  0  0  0  0  0  0  0
   40.1419   29.9068   30.0825 H   0  0  0  0  0  0  0  0  0  0  0  0
   39.3935   28.9121   32.6478 H   0  0  0  0  0  0  0  0  0  0  0  0
   39.0852   30.3349   33.1969 H   0  0  0  0  0  0  0  0  0  0  0  0
   37.5931   28.8308   30.7692 H   0  0  0  0  0  0  0  0  0  0  0  0
   36.9702   30.2392   30.9898 H   0  0  0  0  0  0  0  0  0  0  0  0
   43.0016   34.4014   32.7305 H   0  0  0  0  0  0  0  0  0  0  0  0
   45.4162   34.9870   32.5545 H   0  0  0  0  0  0  0  0  0  0  0  0
   47.0686   34.6300   29.3681 H   0  0  0  0  0  0  0  0  0  0  0  0
  1  2  1  0
  2  3  2  0
  3  4  1  0
  4  5  2  0
  5  6  1  0
  6  7  2  0
  7  8  1  0
  8  9  2  0
  9 10  1  0
  9 11  1  0
 11 12  1  0
 12 13  2  0
 13 14  1  0
 14 15  2  0
 15 16  1  0
 16 17  2  0
 16 18  1  0
 18 19  1  0
 19 20  1  0
 20 21  1  0
 21 22  1  0
 15 23  1  0
 23 24  2  0
 11 25  2  0
  5 26  1  0
 26  2  1  0
 25  6  1  0
 24 12  1  0
 22 20  1  0
  1 27  1  0
  1 28  1  0
  1 29  1  0
  7 30  1  0
  8 31  1  0
 10 32  1  0
 10 33  1  0
 10 34  1  0
 13 35  1  0
 14 36  1  0
 18 37  1  0
 19 38  1  0
 19 39  1  0
 20 40  1  0
 21 41  1  0
 21 42  1  0
 22 43  1  0
 22 44  1  0
 23 45  1  0
 24 46  1  0
 25 47  1  0
M  END
>  <meeko>  (2) 
{"is_sidechain": [false], "free_energy": -9.369, "intermolecular_energy": -12.108, "internal_energy": -0.983}

$$$$
2zb1_ligand
     RDKit          3D

 47 50  0  0  0  0  0  0  0  0999 V2000
   49.9830   32.3310   27.4310 C   0  0  0  0  0  0  0  0  0  0  0  0
   49.7470   32.5490   28.8670 C   0  0  0  0  0  0  0  0  0  0  0  0
   50.5650   32.4000   29.8870 N   0  0  0  0  0  0  0  0  0  0  0  0
   49.8420   32.7360   31.0130 N   0  0  0  0  0  0  0  0  0  0  0  0
   48.6330   33.0660   30.6030 C   0  0  0  0  0  0  0  0  0  0  0  0
   47.4710   33.5020   31.3650 C   0  0  0  0  0  0  0  0  0  0  0  0
   47.4730   34.6860   32.1100 C   0  0  0  0  0  0  0  0  0  0  0  0
   46.3430   35.0750   32.8340 C   0  0  0  0  0  0  0  0  0  0  0  0
   45.1810   34.2870   32.8340 C   0  0  0  0  0  0  0  0  0  0  0  0
   43.9880   34.7490   33.6280 C   0  0  0  0  0  0  0  0  0  0  0  0
   45.1530   33.0960   32.0780 C   0  0  0  0  0  0  0  0  0  0  0  0
   43.9650   32.2320   32.0160 C   0  0  0  0  0  0  0  0  0  0  0  0
   44.0670   30.8580   32.2870 C   0  0  0  0  0  0  0  0  0  0  0  0
   42.9410   30.0290   32.2240 C   0  0  0  0  0  0  0  0  0  0  0  0
   41.6960   30.5650   31.8790 C   0  0  0  0  0  0  0  0  0  0  0  0
   40.4690   29.7260   31.8030 C   0  0  0  0  0  0  0  0  0  0  0  0
   39.7310   29.8110   30.8280 O   0  0  0  0  0  0  0  0  0  0  0  0
   40.2610   28.8610   32.8570 N   0  0  0  0  0  0  0  0  0  0  0  0
   39.1770   27.9060   32.8490 C   0  0  0  0  0  0  0  0  0  0  0  0
   39.1410   27.1830   34.1590 C   0  0  0  0  0  0  0  0  0  0  0  0
   38.9460   27.9460   35.4450 C   0  0  0  0  0  0  0  0  0  0  0  0
   37.8510   27.0540   34.9290 C   0  0  0  0  0  0  0  0  0  0  0  0
   41.5820   31.9350   31.6200 C   0  0  0  0  0  0  0  0  0  0  0  0
   42.7090   32.7590   31.6800 C   0  0  0  0  0  0  0  0  0  0  0  0
   46.3050   32.7220   31.3580 C   0  0  0  0  0  0  0  0  0  0  0  0
   48.5000   32.9710   29.2400 O   0  0  0  0  0  0  0  0  0  0  0  0
   50.7852   31.5900   27.2996 H   0  0  0  0  0  0  0  0  0  0  0  0
   49.0607   31.9603   26.9600 H   0  0  0  0  0  0  0  0  0  0  0  0
   50.2795   33.2798   26.9600 H   0  0  0  0  0  0  0  0  0  0  0  0
   48.3736   35.3174   32.1260 H   0  0  0  0  0  0  0  0  0  0  0  0
   46.3641   36.0109   33.4116 H   0  0  0  0  0  0  0  0  0  0  0  0
   44.2075   34.6640   34.7025 H   0  0  0  0  0  0  0  0  0  0  0  0
   43.7668   35.7978   33.3808 H   0  0  0  0  0  0  0  0  0  0  0  0
   43.1181   34.1227   33.3808 H   0  0  0  0  0  0  0  0  0  0  0  0
   45.0440   30.4278   32.5521 H   0  0  0  0  0  0  0  0  0  0  0  0
   43.0352   28.9557   32.4459 H   0  0  0  0  0  0  0  0  0  0  0  0
   41.0110   28.7020   33.5130 H   0  0  0  0  0  0  0  0  0  0  0  0
   38.2242   28.4337   32.6949 H   0  0  0  0  0  0  0  0  0  0  0  0
   39.3308   27.1828   32.0346 H   0  0  0  0  0  0  0  0  0  0  0  0
   39.8925   26.4763   33.7771 H   0  0  0  0  0  0  0  0  0  0  0  0
   39.5100   27.6598   36.3450 H   0  0  0  0  0  0  0  0  0  0  0  0
   39.0131   29.0039   35.7390 H   0  0  0  0  0  0  0  0  0  0  0  0
   37.6143   26.1155   35.4517 H   0  0  0  0  0  0  0  0  0  0  0  0
   36.7860   27.1897   34.6895 H   0  0  0  0  0  0  0  0  0  0  0  0
   40.6015   32.3653   31.3682 H   0  0  0  0  0  0  0  0  0  0  0  0
   42.6103   33.8325   31.4614 H   0  0  0  0  0  0  0  0  0  0  0  0
   46.2896   31.7906   30.7730 H   0  0  0  0  0  0  0  0  0  0  0  0
  1  2  1  0
  2  3  2  0
  3  4  1  0
  4  5  2  0
  5  6  1  0
  6  7  2  0
  7  8  1  0
  8  9  2  0
  9 10  1  0
  9 11  1  0
 11 12  1  0
 12 13  2  0
 13 14  1  0
 14 15  2  0
 15 16  1  0
 16 17  2  0
 16 18  1  0
 18 19  1  0
 19 20  1  0
 20 21  1  0
 21 22  1  0
 15 23  1  0
 23 24  2  0
 11 25  2  0
  5 26  1  0
 26  2  1  0
 25  6  1  0
 24 12  1  0
 22 20  1  0
  1 27  1  0
  1 28  1  0
  1 29  1  0
  7 30  1  0
  8 31  1  0
 10 32  1  0
 10 33  1  0
 10 34  1  0
 13 35  1  0
 14 36  1  0
 18 37  1  0
 19 38  1  0
 19 39  1  0
 20 40  1  0
 21 41  1  0
 21 42  1  0
 22 43  1  0
 22 44  1  0
 23 45  1  0
 24 46  1  0
 25 47  1  0
M  END
>  <meeko>  (3) 
{"is_sidechain": [false], "free_energy": -8.798, "intermolecular_energy": -11.833, "internal_energy": -0.519}

$$$$
