3jvs_ligand
     RDKit          3D

 52 54  0  0  0  0  0  0  0  0999 V2000
   25.4140   -4.9450   25.0890 C   0  0  0  0  0  0  0  0  0  0  0  0
   26.3400   -3.7760   24.6970 C   0  0  0  0  0  0  0  0  0  0  0  0
   25.4210   -2.5630   24.3760 C   0  0  0  0  0  0  0  0  0  0  0  0
   27.1600   -3.3340   25.9310 C   0  0  0  0  0  0  0  0  0  0  0  0
   27.2100   -4.2050   23.4880 C   0  0  0  0  0  0  0  0  0  0  0  0
   26.9780   -3.6180   22.2230 C   0  0  0  0  0  0  0  0  0  0  0  0
   27.7220   -3.9550   21.0780 C   0  0  0  0  0  0  0  0  0  0  0  0
   28.7280   -4.9190   21.1480 C   0  0  0  0  0  0  0  0  0  0  0  0
   29.5470   -5.3110   19.9700 C   0  0  0  0  0  0  0  0  0  0  0  0
   29.2660   -6.3110   19.3140 O   0  0  0  0  0  0  0  0  0  0  0  0
   30.6040   -4.4830   19.6370 N   0  0  0  0  0  0  0  0  0  0  0  0
   31.1980   -4.7100   18.3680 N   0  0  0  0  0  0  0  0  0  0  0  0
   30.7530   -3.8770   17.3450 C   0  0  0  0  0  0  0  0  0  0  0  0
   30.0310   -2.9140   17.5840 O   0  0  0  0  0  0  0  0  0  0  0  0
   31.2560   -4.2780   16.1270 N   0  0  0  0  0  0  0  0  0  0  0  0
   30.9890   -3.7380   14.8430 C   0  0  0  0  0  0  0  0  0  0  0  0
   30.0240   -4.3150   14.0060 C   0  0  0  0  0  0  0  0  0  0  0  0
   29.7680   -3.7930   12.7410 C   0  0  0  0  0  0  0  0  0  0  0  0
   30.4770   -2.6870   12.2890 C   0  0  0  0  0  0  0  0  0  0  0  0
   31.4550   -2.0870   13.0900 C   0  0  0  0  0  0  0  0  0  0  0  0
   32.1550   -0.9720   12.5980 C   0  0  0  0  0  0  0  0  0  0  0  0
   33.1360   -0.3440   13.3590 C   0  0  0  0  0  0  0  0  0  0  0  0
   33.4300   -0.8240   14.6260 C   0  0  0  0  0  0  0  0  0  0  0  0
   32.7410   -1.9320   15.1310 C   0  0  0  0  0  0  0  0  0  0  0  0
   31.7340   -2.6010   14.3860 C   0  0  0  0  0  0  0  0  0  0  0  0
   28.9890   -5.5300   22.3720 C   0  0  0  0  0  0  0  0  0  0  0  0
   28.2340   -5.1830   23.5090 C   0  0  0  0  0  0  0  0  0  0  0  0
   28.5790   -5.9330   24.7000 N   0  0  0  0  0  0  0  0  0  0  0  0
   29.5090   -5.4930   25.3880 O   0  0  0  0  0  0  0  0  0  0  0  0
   27.9500   -6.9770   24.9110 O   0  0  0  0  0  0  0  0  0  0  0  0
   25.3575   -5.0163   26.1852 H   0  0  0  0  0  0  0  0  0  0  0  0
   24.4079   -4.7686   24.6807 H   0  0  0  0  0  0  0  0  0  0  0  0
   25.8160   -5.8840   24.6807 H   0  0  0  0  0  0  0  0  0  0  0  0
   25.0751   -2.1064   25.3151 H   0  0  0  0  0  0  0  0  0  0  0  0
   25.9849   -1.8200   23.7929 H   0  0  0  0  0  0  0  0  0  0  0  0
   24.5531   -2.9047   23.7929 H   0  0  0  0  0  0  0  0  0  0  0  0
   26.6258   -3.6219   26.8485 H   0  0  0  0  0  0  0  0  0  0  0  0
   28.1449   -3.8234   25.9112 H   0  0  0  0  0  0  0  0  0  0  0  0
   27.2926   -2.2422   25.9112 H   0  0  0  0  0  0  0  0  0  0  0  0
   26.1813   -2.8653   22.1302 H   0  0  0  0  0  0  0  0  0  0  0  0
   27.5093   -3.4554   20.1214 H   0  0  0  0  0  0  0  0  0  0  0  0
   30.5930   -3.4990   19.9120 H   0  0  0  0  0  0  0  0  0  0  0  0
   31.2680   -5.7030   18.1460 H   0  0  0  0  0  0  0  0  0  0  0  0
   31.9860   -4.9670   16.1910 H   0  0  0  0  0  0  0  0  0  0  0  0
   29.4606   -5.1934   14.3538 H   0  0  0  0  0  0  0  0  0  0  0  0
   29.0042   -4.2564   12.0992 H   0  0  0  0  0  0  0  0  0  0  0  0
   30.2671   -2.2781   11.2896 H   0  0  0  0  0  0  0  0  0  0  0  0
   31.9231   -0.5889   11.5933 H   0  0  0  0  0  0  0  0  0  0  0  0
   33.6746    0.5273   12.9581 H   0  0  0  0  0  0  0  0  0  0  0  0
   34.2047   -0.3339   15.2340 H   0  0  0  0  0  0  0  0  0  0  0  0
   32.9876   -2.2972   16.1389 H   0  0  0  0  0  0  0  0  0  0  0  0
   29.7857   -6.2844   22.4507 H   0  0  0  0  0  0  0  0  0  0  0  0
  1  2  1  0
  2  3  1  0
  2  4  1  0
  2  5  1  0
  5  6  2  0
  6  7  1  0
  7  8  2  0
  8  9  1  0
  9 10  2  0
  9 11  1  0
 11 12  1  0
 12 13  1  0
 13 14  2  0
 13 15  1  0
 15 16  1  0
 16 17  2  0
 17 18  1  0
 18 19  2  0
 19 20  1  0
 20 21  2  0
 21 22  1  0
 22 23  2  0
 23 24  1  0
 24 25  2  0
  8 26  1  0
 26 27  2  0
 27 28  1  0
 28 29  2  0
 28 30  1  0
 27  5  1  0
 25 16  1  0
 25 20  1  0
  1 31  1  0
  1 32  1  0
  1 33  1  0
  3 34  1  0
  3 35  1  0
  3 36  1  0
  4 37  1  0
  4 38  1  0
  4 39  1  0
  6 40  1  0
  7 41  1  0
 11 42  1  0
 12 43  1  0
 15 44  1  0
 17 45  1  0
 18 46  1  0
 19 47  1  0
 21 48  1  0
 22 49  1  0
 23 50  1  0
 24 51  1  0
 26 52  1  0
M  CHG  2  28   1  30  -1
M  END
>  <meeko>  (1) 
{"is_sidechain": [false], "free_energy": -7.006, "intermolecular_energy": -9.053, "internal_energy": -0.44}

$$$$
3jvs_ligand
     RDKit          3D

 52 54  0  0  0  0  0  0  0  0999 V2000
   27.3320   -5.1680   25.6770 C   0  0  0  0  0  0  0  0  0  0  0  0
   26.5630   -5.8850   24.5490 C   0  0  0  0  0  0  0  0  0  0  0  0
   26.5910   -7.4040   24.8800 C   0  0  0  0  0  0  0  0  0  0  0  0
   25.0690   -5.4940   24.6170 C   0  0  0  0  0  0  0  0  0  0  0  0
   27.2360   -5.5550   23.1910 C   0  0  0  0  0  0  0  0  0  0  0  0
   28.0480   -6.5280   22.5650 C   0  0  0  0  0  0  0  0  0  0  0  0
   28.6940   -6.3040   21.3360 C   0  0  0  0  0  0  0  0  0  0  0  0
   28.5680   -5.0770   20.6840 C   0  0  0  0  0  0  0  0  0  0  0  0
   29.2260   -4.7890   19.3810 C   0  0  0  0  0  0  0  0  0  0  0  0
   29.5280   -5.7000   18.6150 O   0  0  0  0  0  0  0  0  0  0  0  0
   29.4430   -3.4590   19.0690 N   0  0  0  0  0  0  0  0  0  0  0  0
   29.8090   -3.1860   17.7250 N   0  0  0  0  0  0  0  0  0  0  0  0
   31.1680   -2.9770   17.5080 C   0  0  0  0  0  0  0  0  0  0  0  0
   31.9880   -3.1890   18.3960 O   0  0  0  0  0  0  0  0  0  0  0  0
   31.4040   -2.5580   16.2170 N   0  0  0  0  0  0  0  0  0  0  0  0
   32.6360   -2.1780   15.6260 C   0  0  0  0  0  0  0  0  0  0  0  0
   33.2290   -2.9660   14.6300 C   0  0  0  0  0  0  0  0  0  0  0  0
   34.4430   -2.5990   14.0560 C   0  0  0  0  0  0  0  0  0  0  0  0
   35.0870   -1.4400   14.4710 C   0  0  0  0  0  0  0  0  0  0  0  0
   34.5320   -0.6300   15.4680 C   0  0  0  0  0  0  0  0  0  0  0  0
   35.2140    0.5320   15.8660 C   0  0  0  0  0  0  0  0  0  0  0  0
   34.7000    1.3660   16.8550 C   0  0  0  0  0  0  0  0  0  0  0  0
   33.4940    1.0480   17.4580 C   0  0  0  0  0  0  0  0  0  0  0  0
   32.8020   -0.1050   17.0730 C   0  0  0  0  0  0  0  0  0  0  0  0
   33.2930   -0.9830   16.0690 C   0  0  0  0  0  0  0  0  0  0  0  0
   27.7820   -4.0850   21.2660 C   0  0  0  0  0  0  0  0  0  0  0  0
   27.1440   -4.3230   22.4990 C   0  0  0  0  0  0  0  0  0  0  0  0
   26.4030   -3.1870   23.0100 N   0  0  0  0  0  0  0  0  0  0  0  0
   25.3360   -2.9160   22.4450 O   0  0  0  0  0  0  0  0  0  0  0  0
   26.9160   -2.5510   23.9390 O   0  0  0  0  0  0  0  0  0  0  0  0
   26.9600   -5.5149   26.6523 H   0  0  0  0  0  0  0  0  0  0  0  0
   28.4048   -5.3957   25.5917 H   0  0  0  0  0  0  0  0  0  0  0  0
   27.1798   -4.0819   25.5917 H   0  0  0  0  0  0  0  0  0  0  0  0
   26.5935   -7.5415   25.9714 H   0  0  0  0  0  0  0  0  0  0  0  0
   25.7016   -7.8891   24.4514 H   0  0  0  0  0  0  0  0  0  0  0  0
   27.4976   -7.8560   24.4514 H   0  0  0  0  0  0  0  0  0  0  0  0
   24.7588   -5.4128   25.6692 H   0  0  0  0  0  0  0  0  0  0  0  0
   24.9200   -4.5266   24.1151 H   0  0  0  0  0  0  0  0  0  0  0  0
   24.4652   -6.2644   24.1151 H   0  0  0  0  0  0  0  0  0  0  0  0
   28.1802   -7.5014   23.0599 H   0  0  0  0  0  0  0  0  0  0  0  0
   29.3029   -7.1018   20.8857 H   0  0  0  0  0  0  0  0  0  0  0  0
   28.8620   -2.7310   19.4890 H   0  0  0  0  0  0  0  0  0  0  0  0
   29.1720   -2.5270   17.2770 H   0  0  0  0  0  0  0  0  0  0  0  0
   30.6100   -2.6470   15.6060 H   0  0  0  0  0  0  0  0  0  0  0  0
   32.7282   -3.8871   14.2973 H   0  0  0  0  0  0  0  0  0  0  0  0
   34.8928   -3.2273   13.2731 H   0  0  0  0  0  0  0  0  0  0  0  0
   36.0446   -1.1557   14.0103 H   0  0  0  0  0  0  0  0  0  0  0  0
   36.1711    0.7873   15.3877 H   0  0  0  0  0  0  0  0  0  0  0  0
   35.2477    2.2713   17.1556 H   0  0  0  0  0  0  0  0  0  0  0  0
   33.0806    1.7023   18.2396 H   0  0  0  0  0  0  0  0  0  0  0  0
   31.8459   -0.3400   17.5636 H   0  0  0  0  0  0  0  0  0  0  0  0
   27.6595   -3.1149   20.7622 H   0  0  0  0  0  0  0  0  0  0  0  0
  1  2  1  0
  2  3  1  0
  2  4  1  0
  2  5  1  0
  5  6  2  0
  6  7  1  0
  7  8  2  0
  8  9  1  0
  9 10  2  0
  9 11  1  0
 11 12  1  0
 12 13  1  0
 13 14  2  0
 13 15  1  0
 15 16  1  0
 16 17  2  0
 17 18  1  0
 18 19  2  0
 19 20  1  0
 20 21  2  0
 21 22  1  0
 22 23  2  0
 23 24  1  0
 24 25  2  0
  8 26  1  0
 26 27  2  0
 27 28  1  0
 28 29  2  0
 28 30  1  0
 27  5  1  0
 25 16  1  0
 25 20  1  0
  1 31  1  0
  1 32  1  0
  1 33  1  0
  3 34  1  0
  3 35  1  0
  3 36  1  0
  4 37  1  0
  4 38  1  0
  4 39  1  0
  6 40  1  0
  7 41  1  0
 11 42  1  0
 12 43  1  0
 15 44  1  0
 17 45  1  0
 18 46  1  0
 19 47  1  0
 21 48  1  0
 22 49  1  0
 23 50  1  0
 24 51  1  0
 26 52  1  0
M  CHG  2  28   1  30  -1
M  END
>  <meeko>  (2) 
{"is_sidechain": [false], "free_energy": -6.883, "intermolecular_energy": -9.164, "internal_energy": -0.171}

$$$$
3jvs_ligand
     RDKit          3D

 52 54  0  0  0  0  0  0  0  0999 V2000
   25.4630   -2.5990   24.3800 C   0  0  0  0  0  0  0  0  0  0  0  0
   26.4040   -3.7900   24.6490 C   0  0  0  0  0  0  0  0  0  0  0  0
   27.2940   -3.3960   25.8630 C   0  0  0  0  0  0  0  0  0  0  0  0
   25.5760   -4.9980   25.1420 C   0  0  0  0  0  0  0  0  0  0  0  0
   27.2310   -4.0790   23.3690 C   0  0  0  0  0  0  0  0  0  0  0  0
   26.8890   -3.4290   22.1610 C   0  0  0  0  0  0  0  0  0  0  0  0
   27.5870   -3.6400   20.9590 C   0  0  0  0  0  0  0  0  0  0  0  0
   28.6570   -4.5320   20.9100 C   0  0  0  0  0  0  0  0  0  0  0  0
   29.4330   -4.7900   19.6660 C   0  0  0  0  0  0  0  0  0  0  0  0
   30.1040   -5.8110   19.5460 O   0  0  0  0  0  0  0  0  0  0  0  0
   29.3300   -3.8490   18.6570 N   0  0  0  0  0  0  0  0  0  0  0  0
   29.8420   -4.2360   17.3910 N   0  0  0  0  0  0  0  0  0  0  0  0
   30.8050   -3.3870   16.8530 C   0  0  0  0  0  0  0  0  0  0  0  0
   31.2850   -2.4740   17.5190 O   0  0  0  0  0  0  0  0  0  0  0  0
   31.1170   -3.7490   15.5610 N   0  0  0  0  0  0  0  0  0  0  0  0
   31.9940   -3.1030   14.6520 C   0  0  0  0  0  0  0  0  0  0  0  0
   31.5040   -2.2070   13.6930 C   0  0  0  0  0  0  0  0  0  0  0  0
   32.3620   -1.5800   12.7940 C   0  0  0  0  0  0  0  0  0  0  0  0
   33.7260   -1.8430   12.8360 C   0  0  0  0  0  0  0  0  0  0  0  0
   34.2540   -2.7380   13.7720 C   0  0  0  0  0  0  0  0  0  0  0  0
   35.6380   -2.9820   13.7820 C   0  0  0  0  0  0  0  0  0  0  0  0
   36.2070   -3.8660   14.6950 C   0  0  0  0  0  0  0  0  0  0  0  0
   35.3970   -4.5160   15.6130 C   0  0  0  0  0  0  0  0  0  0  0  0
   34.0180   -4.2830   15.6170 C   0  0  0  0  0  0  0  0  0  0  0  0
   33.3980   -3.3900   14.7020 C   0  0  0  0  0  0  0  0  0  0  0  0
   29.0280   -5.2010   22.0740 C   0  0  0  0  0  0  0  0  0  0  0  0
   28.3170   -4.9810   23.2700 C   0  0  0  0  0  0  0  0  0  0  0  0
   28.7790   -5.7810   24.3880 N   0  0  0  0  0  0  0  0  0  0  0  0
   29.7900   -5.3820   24.9800 O   0  0  0  0  0  0  0  0  0  0  0  0
   28.1560   -6.8210   24.6320 O   0  0  0  0  0  0  0  0  0  0  0  0
   25.1270   -2.1737   25.3372 H   0  0  0  0  0  0  0  0  0  0  0  0
   26.0000   -1.8299   23.8054 H   0  0  0  0  0  0  0  0  0  0  0  0
   24.5905   -2.9435   23.8054 H   0  0  0  0  0  0  0  0  0  0  0  0
   26.7638   -3.6307   26.7978 H   0  0  0  0  0  0  0  0  0  0  0  0
   28.2372   -3.9606   25.8247 H   0  0  0  0  0  0  0  0  0  0  0  0
   27.5101   -2.3181   25.8247 H   0  0  0  0  0  0  0  0  0  0  0  0
   25.5666   -5.0117   26.2419 H   0  0  0  0  0  0  0  0  0  0  0  0
   24.5452   -4.9133   24.7675 H   0  0  0  0  0  0  0  0  0  0  0  0
   26.0268   -5.9289   24.7675 H   0  0  0  0  0  0  0  0  0  0  0  0
   26.0409   -2.7285   22.1616 H   0  0  0  0  0  0  0  0  0  0  0  0
   27.2866   -3.0972   20.0506 H   0  0  0  0  0  0  0  0  0  0  0  0
   28.5080   -3.2470   18.5970 H   0  0  0  0  0  0  0  0  0  0  0  0
   29.1070   -4.5480   16.7560 H   0  0  0  0  0  0  0  0  0  0  0  0
   30.7530   -4.6460   15.2870 H   0  0  0  0  0  0  0  0  0  0  0  0
   30.4253   -1.9959   13.6498 H   0  0  0  0  0  0  0  0  0  0  0  0
   31.9603   -0.8762   12.0501 H   0  0  0  0  0  0  0  0  0  0  0  0
   34.3984   -1.3412   12.1245 H   0  0  0  0  0  0  0  0  0  0  0  0
   36.2830   -2.4656   13.0559 H   0  0  0  0  0  0  0  0  0  0  0  0
   37.2919   -4.0473   14.6878 H   0  0  0  0  0  0  0  0  0  0  0  0
   35.8388   -5.2151   16.3383 H   0  0  0  0  0  0  0  0  0  0  0  0
   33.3923   -4.8087   16.3533 H   0  0  0  0  0  0  0  0  0  0  0  0
   29.8763   -5.9012   22.0593 H   0  0  0  0  0  0  0  0  0  0  0  0
  1  2  1  0
  2  3  1  0
  2  4  1  0
  2  5  1  0
  5  6  2  0
  6  7  1  0
  7  8  2  0
  8  9  1  0
  9 10  2  0
  9 11  1  0
 11 12  1  0
 12 13  1  0
 13 14  2  0
 13 15  1  0
 15 16  1  0
 16 17  2  0
 17 18  1  0
 18 19  2  0
 19 20  1  0
 20 21  2  0
 21 22  1  0
 22 23  2  0
 23 24  1  0
 24 25  2  0
  8 26  1  0
 26 27  2  0
 27 28  1  0
 28 29  2  0
 28 30  1  0
 27  5  1  0
 25 16  1  0
 25 20  1  0
  1 31  1  0
  1 32  1  0
  1 33  1  0
  3 34  1  0
  3 35  1  0
  3 36  1  0
  4 37  1  0
  4 38  1  0
  4 39  1  0
  6 40  1  0
  7 41  1  0
 11 42  1  0
 12 43  1  0
 15 44  1  0
 17 45  1  0
 18 46  1  0
 19 47  1  0
 21 48  1  0
 22 49  1  0
 23 50  1  0
 24 51  1  0
 26 52  1  0
M  CHG  2  28   1  30  -1
M  END
>  <meeko>  (3) 
{"is_sidechain": [false], "free_energy": -6.85, "intermolecular_energy": -8.848, "internal_energy": -0.444}

$$$$
3jvs_ligand
     RDKit          3D

 52 54  0  0  0  0  0  0  0  0999 V2000
   25.5220   -2.5560   24.3990 C   0  0  0  0  0  0  0  0  0  0  0  0
   26.5240   -3.7010   24.6540 C   0  0  0  0  0  0  0  0  0  0  0  0
   27.4660   -3.2280   25.7980 C   0  0  0  0  0  0  0  0  0  0  0  0
   25.7750   -4.9200   25.2370 C   0  0  0  0  0  0  0  0  0  0  0  0
   27.2870   -4.0050   23.3380 C   0  0  0  0  0  0  0  0  0  0  0  0
   26.9140   -3.3350   22.1500 C   0  0  0  0  0  0  0  0  0  0  0  0
   27.5530   -3.5580   20.9170 C   0  0  0  0  0  0  0  0  0  0  0  0
   28.5920   -4.4840   20.8170 C   0  0  0  0  0  0  0  0  0  0  0  0
   29.3060   -4.7550   19.5410 C   0  0  0  0  0  0  0  0  0  0  0  0
   29.6870   -5.8900   19.2630 O   0  0  0  0  0  0  0  0  0  0  0  0
   29.4830   -3.6860   18.6810 N   0  0  0  0  0  0  0  0  0  0  0  0
   29.9090   -4.0080   17.3660 N   0  0  0  0  0  0  0  0  0  0  0  0
   31.2420   -3.7220   17.0840 C   0  0  0  0  0  0  0  0  0  0  0  0
   32.0160   -3.3800   17.9740 O   0  0  0  0  0  0  0  0  0  0  0  0
   31.5160   -3.9100   15.7480 N   0  0  0  0  0  0  0  0  0  0  0  0
   32.7290   -3.6650   15.0540 C   0  0  0  0  0  0  0  0  0  0  0  0
   33.8290   -4.5210   15.2030 C   0  0  0  0  0  0  0  0  0  0  0  0
   35.0230   -4.2760   14.5310 C   0  0  0  0  0  0  0  0  0  0  0  0
   35.1400   -3.1680   13.7010 C   0  0  0  0  0  0  0  0  0  0  0  0
   34.0680   -2.2840   13.5320 C   0  0  0  0  0  0  0  0  0  0  0  0
   34.2230   -1.1720   12.6870 C   0  0  0  0  0  0  0  0  0  0  0  0
   33.1840   -0.2670   12.4900 C   0  0  0  0  0  0  0  0  0  0  0  0
   31.9740   -0.4640   13.1350 C   0  0  0  0  0  0  0  0  0  0  0  0
   31.8020   -1.5680   13.9780 C   0  0  0  0  0  0  0  0  0  0  0  0
   32.8370   -2.5140   14.2060 C   0  0  0  0  0  0  0  0  0  0  0  0
   28.9910   -5.1720   21.9610 C   0  0  0  0  0  0  0  0  0  0  0  0
   28.3390   -4.9400   23.1870 C   0  0  0  0  0  0  0  0  0  0  0  0
   28.8220   -5.7620   24.2790 N   0  0  0  0  0  0  0  0  0  0  0  0
   29.7500   -5.3010   24.9570 O   0  0  0  0  0  0  0  0  0  0  0  0
   28.3020   -6.8760   24.4190 O   0  0  0  0  0  0  0  0  0  0  0  0
   25.1710   -2.1549   25.3612 H   0  0  0  0  0  0  0  0  0  0  0  0
   26.0162   -1.7569   23.8270 H   0  0  0  0  0  0  0  0  0  0  0  0
   24.6644   -2.9398   23.8270 H   0  0  0  0  0  0  0  0  0  0  0  0
   27.0064   -3.4588   26.7704 H   0  0  0  0  0  0  0  0  0  0  0  0
   28.4319   -3.7480   25.7163 H   0  0  0  0  0  0  0  0  0  0  0  0
   27.6258   -2.1427   25.7163 H   0  0  0  0  0  0  0  0  0  0  0  0
   25.8021   -4.8759   26.3358 H   0  0  0  0  0  0  0  0  0  0  0  0
   24.7296   -4.9058   24.8952 H   0  0  0  0  0  0  0  0  0  0  0  0
   26.2600   -5.8462   24.8952 H   0  0  0  0  0  0  0  0  0  0  0  0
   26.0891   -2.6085   22.1919 H   0  0  0  0  0  0  0  0  0  0  0  0
   27.2316   -2.9989   20.0259 H   0  0  0  0  0  0  0  0  0  0  0  0
   28.8510   -2.8850   18.7200 H   0  0  0  0  0  0  0  0  0  0  0  0
   29.2270   -3.7300   16.6600 H   0  0  0  0  0  0  0  0  0  0  0  0
   30.7880   -4.3860   15.2420 H   0  0  0  0  0  0  0  0  0  0  0  0
   33.7474   -5.3991   15.8605 H   0  0  0  0  0  0  0  0  0  0  0  0
   35.8749   -4.9604   14.6572 H   0  0  0  0  0  0  0  0  0  0  0  0
   36.0858   -2.9834   13.1706 H   0  0  0  0  0  0  0  0  0  0  0  0
   35.1822   -1.0140   12.1722 H   0  0  0  0  0  0  0  0  0  0  0  0
   33.3228    0.5992   11.8263 H   0  0  0  0  0  0  0  0  0  0  0  0
   31.1484    0.2472   12.9847 H   0  0  0  0  0  0  0  0  0  0  0  0
   30.8335   -1.7077   14.4805 H   0  0  0  0  0  0  0  0  0  0  0  0
   29.8163   -5.8972   21.9062 H   0  0  0  0  0  0  0  0  0  0  0  0
  1  2  1  0
  2  3  1  0
  2  4  1  0
  2  5  1  0
  5  6  2  0
  6  7  1  0
  7  8  2  0
  8  9  1  0
  9 10  2  0
  9 11  1  0
 11 12  1  0
 12 13  1  0
 13 14  2  0
 13 15  1  0
 15 16  1  0
 16 17  2  0
 17 18  1  0
 18 19  2  0
 19 20  1  0
 20 21  2  0
 21 22  1  0
 22 23  2  0
 23 24  1  0
 24 25  2  0
  8 26  1  0
 26 27  2  0
 27 28  1  0
 28 29  2  0
 28 30  1  0
 27  5  1  0
 25 16  1  0
 25 20  1  0
  1 31  1  0
  1 32  1  0
  1 33  1  0
  3 34  1  0
  3 35  1  0
  3 36  1  0
  4 37  1  0
  4 38  1  0
  4 39  1  0
  6 40  1  0
  7 41  1  0
 11 42  1  0
 12 43  1  0
 15 44  1  0
 17 45  1  0
 18 46  1  0
 19 47  1  0
 21 48  1  0
 22 49  1  0
 23 50  1  0
 24 51  1  0
 26 52  1  0
M  CHG  2  28   1  30  -1
M  END
>  <meeko>  (4) 
{"is_sidechain": [false], "free_energy": -6.749, "intermolecular_energy": -8.71, "internal_energy": -0.451}

$$$$
3jvs_ligand
     RDKit          3D

 52 54  0  0  0  0  0  0  0  0999 V2000
   28.0390   -8.6440   22.4890 C   0  0  0  0  0  0  0  0  0  0  0  0
   27.9270   -7.1450   22.8330 C   0  0  0  0  0  0  0  0  0  0  0  0
   26.4380   -6.8750   23.1920 C   0  0  0  0  0  0  0  0  0  0  0  0
   28.7060   -6.8580   24.1370 C   0  0  0  0  0  0  0  0  0  0  0  0
   28.4110   -6.3120   21.6180 C   0  0  0  0  0  0  0  0  0  0  0  0
   29.1110   -6.9540   20.5710 C   0  0  0  0  0  0  0  0  0  0  0  0
   29.5850   -6.2680   19.4380 C   0  0  0  0  0  0  0  0  0  0  0  0
   29.3910   -4.8920   19.3130 C   0  0  0  0  0  0  0  0  0  0  0  0
   29.8660   -4.1180   18.1350 C   0  0  0  0  0  0  0  0  0  0  0  0
   29.2460   -4.1440   17.0750 O   0  0  0  0  0  0  0  0  0  0  0  0
   31.0050   -3.3520   18.3060 N   0  0  0  0  0  0  0  0  0  0  0  0
   31.2860   -2.4150   17.2770 N   0  0  0  0  0  0  0  0  0  0  0  0
   32.5870   -1.9190   17.2610 C   0  0  0  0  0  0  0  0  0  0  0  0
   33.4540   -2.4000   17.9830 O   0  0  0  0  0  0  0  0  0  0  0  0
   32.7160   -0.9010   16.3420 N   0  0  0  0  0  0  0  0  0  0  0  0
   33.8540   -0.0980   16.0720 C   0  0  0  0  0  0  0  0  0  0  0  0
   34.7500   -0.4400   15.0500 C   0  0  0  0  0  0  0  0  0  0  0  0
   35.8720    0.3430   14.7910 C   0  0  0  0  0  0  0  0  0  0  0  0
   36.1200    1.4780   15.5520 C   0  0  0  0  0  0  0  0  0  0  0  0
   35.2540    1.8490   16.5870 C   0  0  0  0  0  0  0  0  0  0  0  0
   35.5390    3.0020   17.3380 C   0  0  0  0  0  0  0  0  0  0  0  0
   34.7060    3.4080   18.3770 C   0  0  0  0  0  0  0  0  0  0  0  0
   33.5750    2.6650   18.6770 C   0  0  0  0  0  0  0  0  0  0  0  0
   33.2760    1.5160   17.9370 C   0  0  0  0  0  0  0  0  0  0  0  0
   34.1010    1.0680   16.8710 C   0  0  0  0  0  0  0  0  0  0  0  0
   28.7100   -4.2150   20.3230 C   0  0  0  0  0  0  0  0  0  0  0  0
   28.2450   -4.9160   21.4520 C   0  0  0  0  0  0  0  0  0  0  0  0
   27.6020   -4.0770   22.4440 N   0  0  0  0  0  0  0  0  0  0  0  0
   26.4310   -3.7450   22.2210 O   0  0  0  0  0  0  0  0  0  0  0  0
   28.2870   -3.7220   23.4120 O   0  0  0  0  0  0  0  0  0  0  0  0
   28.0829   -9.2311   23.4182 H   0  0  0  0  0  0  0  0  0  0  0  0
   27.1614   -8.9520   21.9017 H   0  0  0  0  0  0  0  0  0  0  0  0
   28.9527   -8.8182   21.9017 H   0  0  0  0  0  0  0  0  0  0  0  0
   26.3225   -6.8541   24.2857 H   0  0  0  0  0  0  0  0  0  0  0  0
   26.1294   -5.9063   22.7721 H   0  0  0  0  0  0  0  0  0  0  0  0
   25.8089   -7.6737   22.7721 H   0  0  0  0  0  0  0  0  0  0  0  0
   28.0699   -7.0924   25.0033 H   0  0  0  0  0  0  0  0  0  0  0  0
   29.6117   -7.4815   24.1678 H   0  0  0  0  0  0  0  0  0  0  0  0
   28.9907   -5.7959   24.1678 H   0  0  0  0  0  0  0  0  0  0  0  0
   29.2928   -8.0363   20.6454 H   0  0  0  0  0  0  0  0  0  0  0  0
   30.1119   -6.8199   18.6457 H   0  0  0  0  0  0  0  0  0  0  0  0
   31.2710   -3.0270   19.2360 H   0  0  0  0  0  0  0  0  0  0  0  0
   30.5380   -1.7300   17.1640 H   0  0  0  0  0  0  0  0  0  0  0  0
   31.9310   -0.8070   15.7200 H   0  0  0  0  0  0  0  0  0  0  0  0
   34.5644   -1.3392   14.4442 H   0  0  0  0  0  0  0  0  0  0  0  0
   36.5629    0.0621   13.9825 H   0  0  0  0  0  0  0  0  0  0  0  0
   37.0072    2.0924   15.3388 H   0  0  0  0  0  0  0  0  0  0  0  0
   36.4354    3.5938   17.1009 H   0  0  0  0  0  0  0  0  0  0  0  0
   34.9438    4.3125   18.9560 H   0  0  0  0  0  0  0  0  0  0  0  0
   32.9124    2.9788   19.4971 H   0  0  0  0  0  0  0  0  0  0  0  0
   32.3728    0.9409   18.1888 H   0  0  0  0  0  0  0  0  0  0  0  0
   28.5357   -3.1322   20.2381 H   0  0  0  0  0  0  0  0  0  0  0  0
  1  2  1  0
  2  3  1  0
  2  4  1  0
  2  5  1  0
  5  6  2  0
  6  7  1  0
  7  8  2  0
  8  9  1  0
  9 10  2  0
  9 11  1  0
 11 12  1  0
 12 13  1  0
 13 14  2  0
 13 15  1  0
 15 16  1  0
 16 17  2  0
 17 18  1  0
 18 19  2  0
 19 20  1  0
 20 21  2  0
 21 22  1  0
 22 23  2  0
 23 24  1  0
 24 25  2  0
  8 26  1  0
 26 27  2  0
 27 28  1  0
 28 29  2  0
 28 30  1  0
 27  5  1  0
 25 16  1  0
 25 20  1  0
  1 31  1  0
  1 32  1  0
  1 33  1  0
  3 34  1  0
  3 35  1  0
  3 36  1  0
  4 37  1  0
  4 38  1  0
  4 39  1  0
  6 40  1  0
  7 41  1  0
 11 42  1  0
 12 43  1  0
 15 44  1  0
 17 45  1  0
 18 46  1  0
 19 47  1  0
 21 48  1  0
 22 49  1  0
 23 50  1  0
 24 51  1  0
 26 52  1  0
M  CHG  2  28   1  30  -1
M  END
>  <meeko>  (5) 
{"is_sidechain": [false], "free_energy": -6.605, "intermolecular_energy": -8.575, "internal_energy": -0.401}

$$$$
3jvs_ligand
     RDKit          3D

 52 54  0  0  0  0  0  0  0  0999 V2000
   29.0060   -5.3600   26.1600 C   0  0  0  0  0  0  0  0  0  0  0  0
   27.8380   -4.7030   25.3970 C   0  0  0  0  0  0  0  0  0  0  0  0
   26.5570   -5.5080   25.7570 C   0  0  0  0  0  0  0  0  0  0  0  0
   27.5860   -3.2870   25.9610 C   0  0  0  0  0  0  0  0  0  0  0  0
   28.1520   -4.7260   23.8780 C   0  0  0  0  0  0  0  0  0  0  0  0
   29.4170   -5.1800   23.4380 C   0  0  0  0  0  0  0  0  0  0  0  0
   29.7790   -5.2280   22.0800 C   0  0  0  0  0  0  0  0  0  0  0  0
   28.8880   -4.8010   21.0960 C   0  0  0  0  0  0  0  0  0  0  0  0
   29.2170   -4.8330   19.6450 C   0  0  0  0  0  0  0  0  0  0  0  0
   29.4950   -5.8930   19.0890 O   0  0  0  0  0  0  0  0  0  0  0  0
   29.1590   -3.6320   18.9620 N   0  0  0  0  0  0  0  0  0  0  0  0
   29.2000   -3.7190   17.5460 N   0  0  0  0  0  0  0  0  0  0  0  0
   30.4470   -3.4850   16.9700 C   0  0  0  0  0  0  0  0  0  0  0  0
   31.4530   -3.3850   17.6650 O   0  0  0  0  0  0  0  0  0  0  0  0
   30.3530   -3.4260   15.5970 N   0  0  0  0  0  0  0  0  0  0  0  0
   31.3760   -3.1410   14.6560 C   0  0  0  0  0  0  0  0  0  0  0  0
   31.6010   -1.8300   14.2130 C   0  0  0  0  0  0  0  0  0  0  0  0
   32.5980   -1.5500   13.2830 C   0  0  0  0  0  0  0  0  0  0  0  0
   33.3840   -2.5770   12.7750 C   0  0  0  0  0  0  0  0  0  0  0  0
   33.1850   -3.9010   13.1850 C   0  0  0  0  0  0  0  0  0  0  0  0
   33.9960   -4.9140   12.6470 C   0  0  0  0  0  0  0  0  0  0  0  0
   33.8330   -6.2440   13.0250 C   0  0  0  0  0  0  0  0  0  0  0  0
   32.8560   -6.5770   13.9490 C   0  0  0  0  0  0  0  0  0  0  0  0
   32.0410   -5.5800   14.4950 C   0  0  0  0  0  0  0  0  0  0  0  0
   32.1750   -4.2120   14.1350 C   0  0  0  0  0  0  0  0  0  0  0  0
   27.6310   -4.3390   21.4820 C   0  0  0  0  0  0  0  0  0  0  0  0
   27.2850   -4.2950   22.8460 C   0  0  0  0  0  0  0  0  0  0  0  0
   25.9680   -3.7440   23.1040 N   0  0  0  0  0  0  0  0  0  0  0  0
   25.0270   -4.5470   23.1510 O   0  0  0  0  0  0  0  0  0  0  0  0
   25.8820   -2.5150   23.2120 O   0  0  0  0  0  0  0  0  0  0  0  0
   28.8365   -5.2646   27.2427 H   0  0  0  0  0  0  0  0  0  0  0  0
   29.0670   -6.4248   25.8908 H   0  0  0  0  0  0  0  0  0  0  0  0
   29.9477   -4.8592   25.8908 H   0  0  0  0  0  0  0  0  0  0  0  0
   26.4582   -5.5701   26.8508 H   0  0  0  0  0  0  0  0  0  0  0  0
   25.6755   -5.0012   25.3374 H   0  0  0  0  0  0  0  0  0  0  0  0
   26.6312   -6.5221   25.3374 H   0  0  0  0  0  0  0  0  0  0  0  0
   27.5925   -3.3237   27.0604 H   0  0  0  0  0  0  0  0  0  0  0  0
   28.3773   -2.6072   25.6121 H   0  0  0  0  0  0  0  0  0  0  0  0
   26.6088   -2.9219   25.6121 H   0  0  0  0  0  0  0  0  0  0  0  0
   30.1490   -5.5096   24.1900 H   0  0  0  0  0  0  0  0  0  0  0  0
   30.7715   -5.6048   21.7921 H   0  0  0  0  0  0  0  0  0  0  0  0
   28.5700   -2.8720   19.3060 H   0  0  0  0  0  0  0  0  0  0  0  0
   28.4040   -3.2560   17.1070 H   0  0  0  0  0  0  0  0  0  0  0  0
   29.4690   -3.7360   15.2320 H   0  0  0  0  0  0  0  0  0  0  0  0
   30.9807   -1.0110   14.6060 H   0  0  0  0  0  0  0  0  0  0  0  0
   32.7638   -0.5148   12.9499 H   0  0  0  0  0  0  0  0  0  0  0  0
   34.1717   -2.3473   12.0423 H   0  0  0  0  0  0  0  0  0  0  0  0
   34.7734   -4.6518   11.9143 H   0  0  0  0  0  0  0  0  0  0  0  0
   34.4757   -7.0252   12.5929 H   0  0  0  0  0  0  0  0  0  0  0  0
   32.7212   -7.6255   14.2533 H   0  0  0  0  0  0  0  0  0  0  0  0
   31.2709   -5.8643   15.2272 H   0  0  0  0  0  0  0  0  0  0  0  0
   26.9090   -4.0086   20.7207 H   0  0  0  0  0  0  0  0  0  0  0  0
  1  2  1  0
  2  3  1  0
  2  4  1  0
  2  5  1  0
  5  6  2  0
  6  7  1  0
  7  8  2  0
  8  9  1  0
  9 10  2  0
  9 11  1  0
 11 12  1  0
 12 13  1  0
 13 14  2  0
 13 15  1  0
 15 16  1  0
 16 17  2  0
 17 18  1  0
 18 19  2  0
 19 20  1  0
 20 21  2  0
 21 22  1  0
 22 23  2  0
 23 24  1  0
 24 25  2  0
  8 26  1  0
 26 27  2  0
 27 28  1  0
 28 29  2  0
 28 30  1  0
 27  5  1  0
 25 16  1  0
 25 20  1  0
  1 31  1  0
  1 32  1  0
  1 33  1  0
  3 34  1  0
  3 35  1  0
  3 36  1  0
  4 37  1  0
  4 38  1  0
  4 39  1  0
  6 40  1  0
  7 41  1  0
 11 42  1  0
 12 43  1  0
 15 44  1  0
 17 45  1  0
 18 46  1  0
 19 47  1  0
 21 48  1  0
 22 49  1  0
 23 50  1  0
 24 51  1  0
 26 52  1  0
M  CHG  2  28   1  30  -1
M  END
>  <meeko>  (6) 
{"is_sidechain": [false], "free_energy": -6.545, "intermolecular_energy": -8.499, "internal_energy": -0.399}

$$$$
3jvs_ligand
     RDKit          3D

 52 54  0  0  0  0  0  0  0  0999 V2000
   35.9230   -0.9850   15.1930 C   0  0  0  0  0  0  0  0  0  0  0  0
   35.8640   -1.0630   16.7320 C   0  0  0  0  0  0  0  0  0  0  0  0
   37.2490   -1.5830   17.2100 C   0  0  0  0  0  0  0  0  0  0  0  0
   35.7550    0.3640   17.3160 C   0  0  0  0  0  0  0  0  0  0  0  0
   34.6980   -1.9990   17.1450 C   0  0  0  0  0  0  0  0  0  0  0  0
   34.9650   -3.3580   17.4270 C   0  0  0  0  0  0  0  0  0  0  0  0
   33.9630   -4.2690   17.8040 C   0  0  0  0  0  0  0  0  0  0  0  0
   32.6340   -3.8590   17.8980 C   0  0  0  0  0  0  0  0  0  0  0  0
   31.5350   -4.7790   18.2970 C   0  0  0  0  0  0  0  0  0  0  0  0
   31.7120   -5.9950   18.3190 O   0  0  0  0  0  0  0  0  0  0  0  0
   30.3350   -4.2000   18.6680 N   0  0  0  0  0  0  0  0  0  0  0  0
   29.4000   -5.0580   19.3040 N   0  0  0  0  0  0  0  0  0  0  0  0
   29.1650   -4.7900   20.6500 C   0  0  0  0  0  0  0  0  0  0  0  0
   29.6120   -3.7780   21.1790 O   0  0  0  0  0  0  0  0  0  0  0  0
   28.3780   -5.7690   21.2180 N   0  0  0  0  0  0  0  0  0  0  0  0
   27.9730   -5.8970   22.5710 C   0  0  0  0  0  0  0  0  0  0  0  0
   28.4320   -6.9590   23.3620 C   0  0  0  0  0  0  0  0  0  0  0  0
   28.0270   -7.0930   24.6880 C   0  0  0  0  0  0  0  0  0  0  0  0
   27.1530   -6.1680   25.2440 C   0  0  0  0  0  0  0  0  0  0  0  0
   26.6650   -5.0980   24.4860 C   0  0  0  0  0  0  0  0  0  0  0  0
   25.7780   -4.1840   25.0810 C   0  0  0  0  0  0  0  0  0  0  0  0
   25.2670   -3.1060   24.3640 C   0  0  0  0  0  0  0  0  0  0  0  0
   25.6380   -2.9260   23.0410 C   0  0  0  0  0  0  0  0  0  0  0  0
   26.5210   -3.8260   22.4340 C   0  0  0  0  0  0  0  0  0  0  0  0
   27.0640   -4.9390   23.1300 C   0  0  0  0  0  0  0  0  0  0  0  0
   32.3200   -2.5290   17.6240 C   0  0  0  0  0  0  0  0  0  0  0  0
   33.3350   -1.6290   17.2450 C   0  0  0  0  0  0  0  0  0  0  0  0
   32.8580   -0.2950   16.9400 N   0  0  0  0  0  0  0  0  0  0  0  0
   32.7810    0.0120   15.7430 O   0  0  0  0  0  0  0  0  0  0  0  0
   32.6080    0.4470   17.8990 O   0  0  0  0  0  0  0  0  0  0  0  0
   36.5614   -0.1410   14.8928 H   0  0  0  0  0  0  0  0  0  0  0  0
   36.3411   -1.9210   14.7942 H   0  0  0  0  0  0  0  0  0  0  0  0
   34.9085   -0.8373   14.7942 H   0  0  0  0  0  0  0  0  0  0  0  0
   37.2771   -1.5936   18.3096 H   0  0  0  0  0  0  0  0  0  0  0  0
   37.4092   -2.6025   16.8293 H   0  0  0  0  0  0  0  0  0  0  0  0
   38.0406   -0.9208   16.8293 H   0  0  0  0  0  0  0  0  0  0  0  0
   35.7590    0.3118   18.4148 H   0  0  0  0  0  0  0  0  0  0  0  0
   36.6098    0.9663   16.9744 H   0  0  0  0  0  0  0  0  0  0  0  0
   34.8187    0.8294   16.9744 H   0  0  0  0  0  0  0  0  0  0  0  0
   36.0013   -3.7182   17.3481 H   0  0  0  0  0  0  0  0  0  0  0  0
   34.2295   -5.3128   18.0264 H   0  0  0  0  0  0  0  0  0  0  0  0
   30.3140   -3.2420   19.0210 H   0  0  0  0  0  0  0  0  0  0  0  0
   29.5410   -6.0370   19.0540 H   0  0  0  0  0  0  0  0  0  0  0  0
   27.9590   -6.3960   20.5530 H   0  0  0  0  0  0  0  0  0  0  0  0
   29.1225   -7.6978   22.9292 H   0  0  0  0  0  0  0  0  0  0  0  0
   28.3995   -7.9315   25.2948 H   0  0  0  0  0  0  0  0  0  0  0  0
   26.8406   -6.2779   26.2930 H   0  0  0  0  0  0  0  0  0  0  0  0
   25.4827   -4.3232   26.1314 H   0  0  0  0  0  0  0  0  0  0  0  0
   24.5727   -2.4011   24.8447 H   0  0  0  0  0  0  0  0  0  0  0  0
   25.2386   -2.0760   22.4683 H   0  0  0  0  0  0  0  0  0  0  0  0
   26.8040   -3.6664   21.3831 H   0  0  0  0  0  0  0  0  0  0  0  0
   31.2792   -2.1821   17.7038 H   0  0  0  0  0  0  0  0  0  0  0  0
  1  2  1  0
  2  3  1  0
  2  4  1  0
  2  5  1  0
  5  6  2  0
  6  7  1  0
  7  8  2  0
  8  9  1  0
  9 10  2  0
  9 11  1  0
 11 12  1  0
 12 13  1  0
 13 14  2  0
 13 15  1  0
 15 16  1  0
 16 17  2  0
 17 18  1  0
 18 19  2  0
 19 20  1  0
 20 21  2  0
 21 22  1  0
 22 23  2  0
 23 24  1  0
 24 25  2  0
  8 26  1  0
 26 27  2  0
 27 28  1  0
 28 29  2  0
 28 30  1  0
 27  5  1  0
 25 16  1  0
 25 20  1  0
  1 31  1  0
  1 32  1  0
  1 33  1  0
  3 34  1  0
  3 35  1  0
  3 36  1  0
  4 37  1  0
  4 38  1  0
  4 39  1  0
  6 40  1  0
  7 41  1  0
 11 42  1  0
 12 43  1  0
 15 44  1  0
 17 45  1  0
 18 46  1  0
 19 47  1  0
 21 48  1  0
 22 49  1  0
 23 50  1  0
 24 51  1  0
 26 52  1  0
M  CHG  2  28   1  30  -1
M  END
>  <meeko>  (7) 
{"is_sidechain": [false], "free_energy": -6.512, "intermolecular_energy": -8.762, "internal_energy": -0.093}

$$$$
3jvs_ligand
     RDKit          3D

 52 54  0  0  0  0  0  0  0  0999 V2000
   32.7000   -1.2030   12.8300 C   0  0  0  0  0  0  0  0  0  0  0  0
   33.1500   -0.8490   14.2620 C   0  0  0  0  0  0  0  0  0  0  0  0
   34.7020   -0.9490   14.2830 C   0  0  0  0  0  0  0  0  0  0  0  0
   32.8460    0.6400   14.5430 C   0  0  0  0  0  0  0  0  0  0  0  0
   32.4740   -1.8260   15.2590 C   0  0  0  0  0  0  0  0  0  0  0  0
   31.6800   -2.8860   14.7620 C   0  0  0  0  0  0  0  0  0  0  0  0
   31.0330   -3.8100   15.6000 C   0  0  0  0  0  0  0  0  0  0  0  0
   31.1380   -3.7010   16.9870 C   0  0  0  0  0  0  0  0  0  0  0  0
   30.4770   -4.6530   17.9200 C   0  0  0  0  0  0  0  0  0  0  0  0
   30.0790   -5.7460   17.5240 O   0  0  0  0  0  0  0  0  0  0  0  0
   30.3700   -4.2630   19.2430 N   0  0  0  0  0  0  0  0  0  0  0  0
   29.9980   -5.2770   20.1630 N   0  0  0  0  0  0  0  0  0  0  0  0
   28.8170   -5.0430   20.8640 C   0  0  0  0  0  0  0  0  0  0  0  0
   28.0830   -4.1060   20.5660 O   0  0  0  0  0  0  0  0  0  0  0  0
   28.6280   -5.9920   21.8440 N   0  0  0  0  0  0  0  0  0  0  0  0
   27.5910   -6.0660   22.8100 C   0  0  0  0  0  0  0  0  0  0  0  0
   26.6310   -7.0850   22.7570 C   0  0  0  0  0  0  0  0  0  0  0  0
   25.6070   -7.1540   23.6980 C   0  0  0  0  0  0  0  0  0  0  0  0
   25.5220   -6.2000   24.7050 C   0  0  0  0  0  0  0  0  0  0  0  0
   26.4570   -5.1610   24.7870 C   0  0  0  0  0  0  0  0  0  0  0  0
   26.3370   -4.2130   25.8170 C   0  0  0  0  0  0  0  0  0  0  0  0
   27.2430   -3.1620   25.9360 C   0  0  0  0  0  0  0  0  0  0  0  0
   28.2820   -3.0480   25.0260 C   0  0  0  0  0  0  0  0  0  0  0  0
   28.4150   -3.9850   23.9960 C   0  0  0  0  0  0  0  0  0  0  0  0
   27.5120   -5.0700   23.8390 C   0  0  0  0  0  0  0  0  0  0  0  0
   31.9050   -2.6690   17.5240 C   0  0  0  0  0  0  0  0  0  0  0  0
   32.5450   -1.7490   16.6710 C   0  0  0  0  0  0  0  0  0  0  0  0
   33.2640   -0.7000   17.3660 N   0  0  0  0  0  0  0  0  0  0  0  0
   34.4890   -0.8410   17.4760 O   0  0  0  0  0  0  0  0  0  0  0  0
   32.5940    0.2280   17.8340 O   0  0  0  0  0  0  0  0  0  0  0  0
   31.8362   -1.8826   12.8746 H   0  0  0  0  0  0  0  0  0  0  0  0
   32.4161   -0.2836   12.2970 H   0  0  0  0  0  0  0  0  0  0  0  0
   33.5267   -1.6954   12.2970 H   0  0  0  0  0  0  0  0  0  0  0  0
   35.0539   -0.9717   15.3249 H   0  0  0  0  0  0  0  0  0  0  0  0
   35.0171   -1.8693   13.7695 H   0  0  0  0  0  0  0  0  0  0  0  0
   35.1326   -0.0767   13.7695 H   0  0  0  0  0  0  0  0  0  0  0  0
   32.8116    0.8085   15.6295 H   0  0  0  0  0  0  0  0  0  0  0  0
   33.6350    1.2653   14.0998 H   0  0  0  0  0  0  0  0  0  0  0  0
   31.8750    0.9060   14.0998 H   0  0  0  0  0  0  0  0  0  0  0  0
   31.5641   -2.9915   13.6732 H   0  0  0  0  0  0  0  0  0  0  0  0
   30.4397   -4.6248   15.1595 H   0  0  0  0  0  0  0  0  0  0  0  0
   31.0210   -3.5800   19.6320 H   0  0  0  0  0  0  0  0  0  0  0  0
   30.7900   -5.6130   20.7100 H   0  0  0  0  0  0  0  0  0  0  0  0
   29.2490   -6.7800   21.7780 H   0  0  0  0  0  0  0  0  0  0  0  0
   26.6870   -7.8415   21.9604 H   0  0  0  0  0  0  0  0  0  0  0  0
   24.8648   -7.9641   23.6443 H   0  0  0  0  0  0  0  0  0  0  0  0
   24.7112   -6.2618   25.4458 H   0  0  0  0  0  0  0  0  0  0  0  0
   25.5140   -4.3024   26.5413 H   0  0  0  0  0  0  0  0  0  0  0  0
   27.1346   -2.4270   26.7472 H   0  0  0  0  0  0  0  0  0  0  0  0
   29.0019   -2.2209   25.1137 H   0  0  0  0  0  0  0  0  0  0  0  0
   29.2466   -3.8780   23.2839 H   0  0  0  0  0  0  0  0  0  0  0  0
   32.0107   -2.5728   18.6147 H   0  0  0  0  0  0  0  0  0  0  0  0
  1  2  1  0
  2  3  1  0
  2  4  1  0
  2  5  1  0
  5  6  2  0
  6  7  1  0
  7  8  2  0
  8  9  1  0
  9 10  2  0
  9 11  1  0
 11 12  1  0
 12 13  1  0
 13 14  2  0
 13 15  1  0
 15 16  1  0
 16 17  2  0
 17 18  1  0
 18 19  2  0
 19 20  1  0
 20 21  2  0
 21 22  1  0
 22 23  2  0
 23 24  1  0
 24 25  2  0
  8 26  1  0
 26 27  2  0
 27 28  1  0
 28 29  2  0
 28 30  1  0
 27  5  1  0
 25 16  1  0
 25 20  1  0
  1 31  1  0
  1 32  1  0
  1 33  1  0
  3 34  1  0
  3 35  1  0
  3 36  1  0
  4 37  1  0
  4 38  1  0
  4 39  1  0
  6 40  1  0
  7 41  1  0
 11 42  1  0
 12 43  1  0
 15 44  1  0
 17 45  1  0
 18 46  1  0
 19 47  1  0
 21 48  1  0
 22 49  1  0
 23 50  1  0
 24 51  1  0
 26 52  1  0
M  CHG  2  28   1  30  -1
M  END
>  <meeko>  (8) 
{"is_sidechain": [false], "free_energy": -6.449, "intermolecular_energy": -8.471, "internal_energy": -0.303}

$$$$
3jvs_ligand
     RDKit          3D

 52 54  0  0  0  0  0  0  0  0999 V2000
   26.4810   -7.3950   24.2810 C   0  0  0  0  0  0  0  0  0  0  0  0
   26.5090   -5.8660   24.0790 C   0  0  0  0  0  0  0  0  0  0  0  0
   25.0280   -5.3910   24.0360 C   0  0  0  0  0  0  0  0  0  0  0  0
   27.1030   -5.1920   25.3360 C   0  0  0  0  0  0  0  0  0  0  0  0
   27.2790   -5.5440   22.7710 C   0  0  0  0  0  0  0  0  0  0  0  0
   28.0590   -6.5520   22.1600 C   0  0  0  0  0  0  0  0  0  0  0  0
   28.7880   -6.3380   20.9770 C   0  0  0  0  0  0  0  0  0  0  0  0
   28.7820   -5.0880   20.3590 C   0  0  0  0  0  0  0  0  0  0  0  0
   29.5310   -4.8080   19.1040 C   0  0  0  0  0  0  0  0  0  0  0  0
   30.1020   -5.7120   18.5000 O   0  0  0  0  0  0  0  0  0  0  0  0
   29.5200   -3.5040   18.6450 N   0  0  0  0  0  0  0  0  0  0  0  0
   29.9940   -3.3050   17.3220 N   0  0  0  0  0  0  0  0  0  0  0  0
   31.3160   -2.8800   17.2200 C   0  0  0  0  0  0  0  0  0  0  0  0
   32.0480   -2.8530   18.2050 O   0  0  0  0  0  0  0  0  0  0  0  0
   31.6320   -2.5560   15.9190 N   0  0  0  0  0  0  0  0  0  0  0  0
   32.8460   -2.0230   15.4140 C   0  0  0  0  0  0  0  0  0  0  0  0
   32.9960   -0.6450   15.2070 C   0  0  0  0  0  0  0  0  0  0  0  0
   34.1830   -0.1220   14.7020 C   0  0  0  0  0  0  0  0  0  0  0  0
   35.2390   -0.9680   14.3900 C   0  0  0  0  0  0  0  0  0  0  0  0
   35.1270   -2.3510   14.5740 C   0  0  0  0  0  0  0  0  0  0  0  0
   36.2150   -3.1770   14.2430 C   0  0  0  0  0  0  0  0  0  0  0  0
   36.1460   -4.5580   14.4080 C   0  0  0  0  0  0  0  0  0  0  0  0
   34.9880   -5.1300   14.9080 C   0  0  0  0  0  0  0  0  0  0  0  0
   33.8960   -4.3220   15.2440 C   0  0  0  0  0  0  0  0  0  0  0  0
   33.9250   -2.9100   15.0890 C   0  0  0  0  0  0  0  0  0  0  0  0
   28.0320   -4.0610   20.9280 C   0  0  0  0  0  0  0  0  0  0  0  0
   27.3090   -4.2900   22.1150 C   0  0  0  0  0  0  0  0  0  0  0  0
   26.6170   -3.1210   22.6210 N   0  0  0  0  0  0  0  0  0  0  0  0
   25.6410   -2.7250   21.9710 O   0  0  0  0  0  0  0  0  0  0  0  0
   27.0830   -2.5850   23.6340 O   0  0  0  0  0  0  0  0  0  0  0  0
   26.4768   -7.6227   25.3572 H   0  0  0  0  0  0  0  0  0  0  0  0
   25.5751   -7.8099   23.8149 H   0  0  0  0  0  0  0  0  0  0  0  0
   27.3711   -7.8428   23.8149 H   0  0  0  0  0  0  0  0  0  0  0  0
   24.6517   -5.2703   25.0626 H   0  0  0  0  0  0  0  0  0  0  0  0
   24.9669   -4.4282   23.5075 H   0  0  0  0  0  0  0  0  0  0  0  0
   24.4183   -6.1387   23.5075 H   0  0  0  0  0  0  0  0  0  0  0  0
   26.6861   -5.6651   26.2373 H   0  0  0  0  0  0  0  0  0  0  0  0
   28.1967   -5.3094   25.3328 H   0  0  0  0  0  0  0  0  0  0  0  0
   26.8491   -4.1217   25.3328 H   0  0  0  0  0  0  0  0  0  0  0  0
   28.0973   -7.5459   22.6299 H   0  0  0  0  0  0  0  0  0  0  0  0
   29.3672   -7.1625   20.5358 H   0  0  0  0  0  0  0  0  0  0  0  0
   28.7590   -2.8740   18.9030 H   0  0  0  0  0  0  0  0  0  0  0  0
   29.3150   -2.8180   16.7370 H   0  0  0  0  0  0  0  0  0  0  0  0
   30.9430   -2.8450   15.2450 H   0  0  0  0  0  0  0  0  0  0  0  0
   32.1637    0.0330   15.4471 H   0  0  0  0  0  0  0  0  0  0  0  0
   34.2846    0.9627   14.5499 H   0  0  0  0  0  0  0  0  0  0  0  0
   36.1745   -0.5464   13.9936 H   0  0  0  0  0  0  0  0  0  0  0  0
   37.1364   -2.7250   13.8470 H   0  0  0  0  0  0  0  0  0  0  0  0
   37.0059   -5.1907   14.1429 H   0  0  0  0  0  0  0  0  0  0  0  0
   34.9266   -6.2202   15.0411 H   0  0  0  0  0  0  0  0  0  0  0  0
   32.9858   -4.7953   15.6409 H   0  0  0  0  0  0  0  0  0  0  0  0
   28.0044   -3.0707   20.4500 H   0  0  0  0  0  0  0  0  0  0  0  0
  1  2  1  0
  2  3  1  0
  2  4  1  0
  2  5  1  0
  5  6  2  0
  6  7  1  0
  7  8  2  0
  8  9  1  0
  9 10  2  0
  9 11  1  0
 11 12  1  0
 12 13  1  0
 13 14  2  0
 13 15  1  0
 15 16  1  0
 16 17  2  0
 17 18  1  0
 18 19  2  0
 19 20  1  0
 20 21  2  0
 21 22  1  0
 22 23  2  0
 23 24  1  0
 24 25  2  0
  8 26  1  0
 26 27  2  0
 27 28  1  0
 28 29  2  0
 28 30  1  0
 27  5  1  0
 25 16  1  0
 25 20  1  0
  1 31  1  0
  1 32  1  0
  1 33  1  0
  3 34  1  0
  3 35  1  0
  3 36  1  0
  4 37  1  0
  4 38  1  0
  4 39  1  0
  6 40  1  0
  7 41  1  0
 11 42  1  0
 12 43  1  0
 15 44  1  0
 17 45  1  0
 18 46  1  0
 19 47  1  0
 21 48  1  0
 22 49  1  0
 23 50  1  0
 24 51  1  0
 26 52  1  0
M  CHG  2  28   1  30  -1
M  END
>  <meeko>  (9) 
{"is_sidechain": [false], "free_energy": -6.44, "intermolecular_energy": -8.486, "internal_energy": -0.277}

$$$$
