3uuo_ligand
     RDKit          3D

 45 48  0  0  0  0  0  0  0  0999 V2000
    3.0960   14.8040   41.3480 C   0  0  0  0  0  0  0  0  0  0  0  0
    4.1520   13.9300   41.7370 O   0  0  0  0  0  0  0  0  0  0  0  0
    4.2830   13.6830   43.0740 C   0  0  0  0  0  0  0  0  0  0  0  0
    3.7130   14.4070   44.1080 C   0  0  0  0  0  0  0  0  0  0  0  0
    3.9410   14.0320   45.4460 C   0  0  0  0  0  0  0  0  0  0  0  0
    3.3080   14.8470   46.5470 C   0  0  0  0  0  0  0  0  0  0  0  0
    4.7380   12.9250   45.7680 C   0  0  0  0  0  0  0  0  0  0  0  0
    4.9140   12.6290   47.0570 N   0  0  0  0  0  0  0  0  0  0  0  0
    5.6810   11.5620   47.3050 C   0  0  0  0  0  0  0  0  0  0  0  0
    5.9780   11.1000   48.5500 N   0  0  0  0  0  0  0  0  0  0  0  0
    6.7590   10.0100   48.5460 N   0  0  0  0  0  0  0  0  0  0  0  0
    6.9630    9.7640   47.2430 C   0  0  0  0  0  0  0  0  0  0  0  0
    7.8020    8.5910   46.9040 C   0  0  0  0  0  0  0  0  0  0  0  0
    6.3150   10.7250   46.4000 C   0  0  0  0  0  0  0  0  0  0  0  0
    6.1410   11.0300   45.0260 C   0  0  0  0  0  0  0  0  0  0  0  0
    6.6870   10.3080   43.9410 N   0  0  0  0  0  0  0  0  0  0  0  0
    8.1330   10.4280   43.7320 C   0  0  0  0  0  0  0  0  0  0  0  0
    8.4810    9.9600   42.3030 C   0  0  0  0  0  0  0  0  0  0  0  0
    7.9150    8.5790   42.0500 N   0  0  0  0  0  0  0  0  0  0  0  0
    6.4200    8.5110   42.2810 C   0  0  0  0  0  0  0  0  0  0  0  0
    6.0680    8.9960   43.7030 C   0  0  0  0  0  0  0  0  0  0  0  0
    5.3200   12.1720   44.7210 C   0  0  0  0  0  0  0  0  0  0  0  0
    5.0760   12.5800   43.3880 C   0  0  0  0  0  0  0  0  0  0  0  0
    2.6062   15.2094   42.2456 H   0  0  0  0  0  0  0  0  0  0  0  0
    3.5060   15.6305   40.7491 H   0  0  0  0  0  0  0  0  0  0  0  0
    2.3607   14.2467   40.7491 H   0  0  0  0  0  0  0  0  0  0  0  0
    3.0799   15.2780   43.8832 H   0  0  0  0  0  0  0  0  0  0  0  0
    3.6183   14.4474   47.5237 H   0  0  0  0  0  0  0  0  0  0  0  0
    3.6314   15.8948   46.4599 H   0  0  0  0  0  0  0  0  0  0  0  0
    2.2128   14.7929   46.4599 H   0  0  0  0  0  0  0  0  0  0  0  0
    5.6730   11.4910   49.4330 H   0  0  0  0  0  0  0  0  0  0  0  0
    8.1477    8.1077   47.8297 H   0  0  0  0  0  0  0  0  0  0  0  0
    7.2101    7.8747   46.3153 H   0  0  0  0  0  0  0  0  0  0  0  0
    8.6711    8.9197   46.3153 H   0  0  0  0  0  0  0  0  0  0  0  0
    8.4371   11.4774   43.8595 H   0  0  0  0  0  0  0  0  0  0  0  0
    8.6649    9.8034   44.4647 H   0  0  0  0  0  0  0  0  0  0  0  0
    8.0537   10.6661   41.5758 H   0  0  0  0  0  0  0  0  0  0  0  0
    9.5751    9.9236   42.1949 H   0  0  0  0  0  0  0  0  0  0  0  0
    8.1210    8.2990   41.0820 H   0  0  0  0  0  0  0  0  0  0  0  0
    8.3840    7.9000   42.6620 H   0  0  0  0  0  0  0  0  0  0  0  0
    5.9109    9.1501   41.5446 H   0  0  0  0  0  0  0  0  0  0  0  0
    6.0910    7.4672   42.1705 H   0  0  0  0  0  0  0  0  0  0  0  0
    4.9758    9.0828   43.8008 H   0  0  0  0  0  0  0  0  0  0  0  0
    6.4462    8.2731   44.4408 H   0  0  0  0  0  0  0  0  0  0  0  0
    5.5297   12.0045   42.5676 H   0  0  0  0  0  0  0  0  0  0  0  0
  1  2  1  0
  2  3  1  0
  3  4  2  0
  4  5  1  0
  5  6  1  0
  5  7  2  0
  7  8  1  0
  8  9  2  0
  9 10  1  0
 10 11  1  0
 11 12  2  0
 12 13  1  0
 12 14  1  0
 14 15  2  0
 15 16  1  0
 16 17  1  0
 17 18  1  0
 18 19  1  0
 19 20  1  0
 20 21  1  0
 15 22  1  0
 22 23  2  0
 23  3  1  0
 22  7  1  0
 14  9  1  0
 21 16  1  0
  1 24  1  0
  1 25  1  0
  1 26  1  0
  4 27  1  0
  6 28  1  0
  6 29  1  0
  6 30  1  0
 10 31  1  0
 13 32  1  0
 13 33  1  0
 13 34  1  0
 17 35  1  0
 17 36  1  0
 18 37  1  0
 18 38  1  0
 19 39  1  0
 19 40  1  0
 20 41  1  0
 20 42  1  0
 21 43  1  0
 21 44  1  0
 23 45  1  0
M  CHG  1  19   1
M  END
>  <meeko>  (1) 
{"is_sidechain": [false], "free_energy": -8.172, "intermolecular_energy": -9.127, "internal_energy": -0.51}

$$$$
3uuo_ligand
     RDKit          3D

 45 48  0  0  0  0  0  0  0  0999 V2000
    6.2570   10.5700   40.2410 C   0  0  0  0  0  0  0  0  0  0  0  0
    5.4630   11.5920   39.6450 O   0  0  0  0  0  0  0  0  0  0  0  0
    4.8620   12.4770   40.4950 C   0  0  0  0  0  0  0  0  0  0  0  0
    4.0880   13.5680   40.1380 C   0  0  0  0  0  0  0  0  0  0  0  0
    3.5320   14.3980   41.1300 C   0  0  0  0  0  0  0  0  0  0  0  0
    2.6980   15.5820   40.7040 C   0  0  0  0  0  0  0  0  0  0  0  0
    3.7390   14.1450   42.4920 C   0  0  0  0  0  0  0  0  0  0  0  0
    3.1850   14.9750   43.3790 N   0  0  0  0  0  0  0  0  0  0  0  0
    3.4140   14.6830   44.6640 C   0  0  0  0  0  0  0  0  0  0  0  0
    2.9360   15.4060   45.7140 N   0  0  0  0  0  0  0  0  0  0  0  0
    3.2910   14.9130   46.9100 N   0  0  0  0  0  0  0  0  0  0  0  0
    4.0210   13.8280   46.6080 C   0  0  0  0  0  0  0  0  0  0  0  0
    4.5620   13.0460   47.7440 C   0  0  0  0  0  0  0  0  0  0  0  0
    4.1480   13.6340   45.1940 C   0  0  0  0  0  0  0  0  0  0  0  0
    4.7470   12.7460   44.2650 C   0  0  0  0  0  0  0  0  0  0  0  0
    5.5260   11.6130   44.5850 N   0  0  0  0  0  0  0  0  0  0  0  0
    6.8580   11.8650   45.1430 C   0  0  0  0  0  0  0  0  0  0  0  0
    7.7120   10.5850   45.0210 C   0  0  0  0  0  0  0  0  0  0  0  0
    6.9810    9.4060   45.6290 N   0  0  0  0  0  0  0  0  0  0  0  0
    5.6130    9.1910   45.0170 C   0  0  0  0  0  0  0  0  0  0  0  0
    4.7640   10.4750   45.1210 C   0  0  0  0  0  0  0  0  0  0  0  0
    4.5220   13.0280   42.8710 C   0  0  0  0  0  0  0  0  0  0  0  0
    5.0710   12.2190   41.8480 C   0  0  0  0  0  0  0  0  0  0  0  0
    6.1952   10.6496   41.3364 H   0  0  0  0  0  0  0  0  0  0  0  0
    5.8852    9.5847   39.9234 H   0  0  0  0  0  0  0  0  0  0  0  0
    7.3037   10.6867   39.9234 H   0  0  0  0  0  0  0  0  0  0  0  0
    3.9068   13.7871   39.0754 H   0  0  0  0  0  0  0  0  0  0  0  0
    2.3269   16.1088   41.5955 H   0  0  0  0  0  0  0  0  0  0  0  0
    3.3140   16.2672   40.1031 H   0  0  0  0  0  0  0  0  0  0  0  0
    1.8454   15.2327   40.1031 H   0  0  0  0  0  0  0  0  0  0  0  0
    2.3650   16.2400   45.6680 H   0  0  0  0  0  0  0  0  0  0  0  0
    4.2434   13.5065   48.6908 H   0  0  0  0  0  0  0  0  0  0  0  0
    4.1835   12.0145   47.6923 H   0  0  0  0  0  0  0  0  0  0  0  0
    5.6607   13.0364   47.6923 H   0  0  0  0  0  0  0  0  0  0  0  0
    7.3404   12.6830   44.5878 H   0  0  0  0  0  0  0  0  0  0  0  0
    6.7667   12.1478   46.2021 H   0  0  0  0  0  0  0  0  0  0  0  0
    7.9099   10.3806   43.9584 H   0  0  0  0  0  0  0  0  0  0  0  0
    8.6599   10.7345   45.5587 H   0  0  0  0  0  0  0  0  0  0  0  0
    7.5460    8.5560   45.5040 H   0  0  0  0  0  0  0  0  0  0  0  0
    6.8810    9.5510   46.6410 H   0  0  0  0  0  0  0  0  0  0  0  0
    5.7296    8.9195   43.9574 H   0  0  0  0  0  0  0  0  0  0  0  0
    5.1032    8.3834   45.5628 H   0  0  0  0  0  0  0  0  0  0  0  0
    3.8372   10.3493   44.5420 H   0  0  0  0  0  0  0  0  0  0  0  0
    4.5154   10.6651   46.1756 H   0  0  0  0  0  0  0  0  0  0  0  0
    5.6867   11.3528   42.1321 H   0  0  0  0  0  0  0  0  0  0  0  0
  1  2  1  0
  2  3  1  0
  3  4  2  0
  4  5  1  0
  5  6  1  0
  5  7  2  0
  7  8  1  0
  8  9  2  0
  9 10  1  0
 10 11  1  0
 11 12  2  0
 12 13  1  0
 12 14  1  0
 14 15  2  0
 15 16  1  0
 16 17  1  0
 17 18  1  0
 18 19  1  0
 19 20  1  0
 20 21  1  0
 15 22  1  0
 22 23  2  0
 23  3  1  0
 22  7  1  0
 14  9  1  0
 21 16  1  0
  1 24  1  0
  1 25  1  0
  1 26  1  0
  4 27  1  0
  6 28  1  0
  6 29  1  0
  6 30  1  0
 10 31  1  0
 13 32  1  0
 13 33  1  0
 13 34  1  0
 17 35  1  0
 17 36  1  0
 18 37  1  0
 18 38  1  0
 19 39  1  0
 19 40  1  0
 20 41  1  0
 20 42  1  0
 21 43  1  0
 21 44  1  0
 23 45  1  0
M  CHG  1  19   1
M  END
>  <meeko>  (2) 
{"is_sidechain": [false], "free_energy": -8.153, "intermolecular_energy": -9.098, "internal_energy": -0.518}

$$$$
3uuo_ligand
     RDKit          3D

 45 48  0  0  0  0  0  0  0  0999 V2000
    3.7930   14.1360   43.7190 C   0  0  0  0  0  0  0  0  0  0  0  0
    4.3740   12.8410   43.5920 O   0  0  0  0  0  0  0  0  0  0  0  0
    4.9590   12.3180   44.7110 C   0  0  0  0  0  0  0  0  0  0  0  0
    4.7000   12.6770   46.0230 C   0  0  0  0  0  0  0  0  0  0  0  0
    5.3860   12.0480   47.0780 C   0  0  0  0  0  0  0  0  0  0  0  0
    5.0820   12.4680   48.4960 C   0  0  0  0  0  0  0  0  0  0  0  0
    6.3380   11.0490   46.8360 C   0  0  0  0  0  0  0  0  0  0  0  0
    6.9540   10.4970   47.8850 N   0  0  0  0  0  0  0  0  0  0  0  0
    7.8510    9.5490   47.5950 C   0  0  0  0  0  0  0  0  0  0  0  0
    8.5800    8.8700   48.5220 N   0  0  0  0  0  0  0  0  0  0  0  0
    9.4080    7.9580   47.9900 N   0  0  0  0  0  0  0  0  0  0  0  0
    9.1930    8.0580   46.6700 C   0  0  0  0  0  0  0  0  0  0  0  0
    9.9730    7.1540   45.7920 C   0  0  0  0  0  0  0  0  0  0  0  0
    8.2220    9.0630   46.3510 C   0  0  0  0  0  0  0  0  0  0  0  0
    7.5800    9.6420   45.2270 C   0  0  0  0  0  0  0  0  0  0  0  0
    7.8000    9.2930   43.8760 N   0  0  0  0  0  0  0  0  0  0  0  0
    9.0960    9.6660   43.3020 C   0  0  0  0  0  0  0  0  0  0  0  0
    9.0040    9.6170   41.7620 C   0  0  0  0  0  0  0  0  0  0  0  0
    8.4720    8.2720   41.3100 N   0  0  0  0  0  0  0  0  0  0  0  0
    7.1330    7.9380   41.9330 C   0  0  0  0  0  0  0  0  0  0  0  0
    7.2180    8.0050   43.4720 C   0  0  0  0  0  0  0  0  0  0  0  0
    6.6070   10.6680   45.5000 C   0  0  0  0  0  0  0  0  0  0  0  0
    5.9040   11.3240   44.4630 C   0  0  0  0  0  0  0  0  0  0  0  0
    3.6813   14.3849   44.7846 H   0  0  0  0  0  0  0  0  0  0  0  0
    4.4440   14.8790   43.2352 H   0  0  0  0  0  0  0  0  0  0  0  0
    2.8051   14.1437   43.2352 H   0  0  0  0  0  0  0  0  0  0  0  0
    3.9553   13.4567   46.2411 H   0  0  0  0  0  0  0  0  0  0  0  0
    5.5793   11.7810   49.1965 H   0  0  0  0  0  0  0  0  0  0  0  0
    5.4502   13.4911   48.6623 H   0  0  0  0  0  0  0  0  0  0  0  0
    3.9951   12.4379   48.6623 H   0  0  0  0  0  0  0  0  0  0  0  0
    8.5490    8.9890   49.5260 H   0  0  0  0  0  0  0  0  0  0  0  0
   10.5673    6.4652   46.4103 H   0  0  0  0  0  0  0  0  0  0  0  0
    9.2853    6.5762   45.1570 H   0  0  0  0  0  0  0  0  0  0  0  0
   10.6453    7.7497   45.1570 H   0  0  0  0  0  0  0  0  0  0  0  0
    9.3604   10.6846   43.6222 H   0  0  0  0  0  0  0  0  0  0  0  0
    9.8685    8.9634   43.6479 H   0  0  0  0  0  0  0  0  0  0  0  0
    8.3271   10.4109   41.4134 H   0  0  0  0  0  0  0  0  0  0  0  0
   10.0082    9.7655   41.3384 H   0  0  0  0  0  0  0  0  0  0  0  0
    8.3810    8.2710   40.2860 H   0  0  0  0  0  0  0  0  0  0  0  0
    9.1500    7.5390   41.5490 H   0  0  0  0  0  0  0  0  0  0  0  0
    6.3806    8.6590   41.5808 H   0  0  0  0  0  0  0  0  0  0  0  0
    6.8494    6.9170   41.6377 H   0  0  0  0  0  0  0  0  0  0  0  0
    6.2090    7.9086   43.8993 H   0  0  0  0  0  0  0  0  0  0  0  0
    7.8523    7.1850   43.8398 H   0  0  0  0  0  0  0  0  0  0  0  0
    6.1109   11.0389   43.4209 H   0  0  0  0  0  0  0  0  0  0  0  0
  1  2  1  0
  2  3  1  0
  3  4  2  0
  4  5  1  0
  5  6  1  0
  5  7  2  0
  7  8  1  0
  8  9  2  0
  9 10  1  0
 10 11  1  0
 11 12  2  0
 12 13  1  0
 12 14  1  0
 14 15  2  0
 15 16  1  0
 16 17  1  0
 17 18  1  0
 18 19  1  0
 19 20  1  0
 20 21  1  0
 15 22  1  0
 22 23  2  0
 23  3  1  0
 22  7  1  0
 14  9  1  0
 21 16  1  0
  1 24  1  0
  1 25  1  0
  1 26  1  0
  4 27  1  0
  6 28  1  0
  6 29  1  0
  6 30  1  0
 10 31  1  0
 13 32  1  0
 13 33  1  0
 13 34  1  0
 17 35  1  0
 17 36  1  0
 18 37  1  0
 18 38  1  0
 19 39  1  0
 19 40  1  0
 20 41  1  0
 20 42  1  0
 21 43  1  0
 21 44  1  0
 23 45  1  0
M  CHG  1  19   1
M  END
>  <meeko>  (3) 
{"is_sidechain": [false], "free_energy": -7.888, "intermolecular_energy": -8.814, "internal_energy": -0.506}

$$$$
3uuo_ligand
     RDKit          3D

 45 48  0  0  0  0  0  0  0  0999 V2000
    9.5940    5.4450   40.0750 C   0  0  0  0  0  0  0  0  0  0  0  0
   10.9070    5.5270   40.6200 O   0  0  0  0  0  0  0  0  0  0  0  0
   11.0020    5.7150   41.9710 C   0  0  0  0  0  0  0  0  0  0  0  0
   11.9090    5.1130   42.8270 C   0  0  0  0  0  0  0  0  0  0  0  0
   11.8850    5.4030   44.2030 C   0  0  0  0  0  0  0  0  0  0  0  0
   12.8850    4.7250   45.1070 C   0  0  0  0  0  0  0  0  0  0  0  0
   10.9550    6.3020   44.7430 C   0  0  0  0  0  0  0  0  0  0  0  0
   10.9860    6.5280   46.0580 N   0  0  0  0  0  0  0  0  0  0  0  0
   10.0780    7.3960   46.5170 C   0  0  0  0  0  0  0  0  0  0  0  0
    9.9510    7.7570   47.8230 N   0  0  0  0  0  0  0  0  0  0  0  0
    8.9740    8.6500   48.0390 N   0  0  0  0  0  0  0  0  0  0  0  0
    8.4620    8.8700   46.8180 C   0  0  0  0  0  0  0  0  0  0  0  0
    7.3440    9.8380   46.7240 C   0  0  0  0  0  0  0  0  0  0  0  0
    9.1120    8.0910   45.8070 C   0  0  0  0  0  0  0  0  0  0  0  0
    9.0640    7.8590   44.4090 C   0  0  0  0  0  0  0  0  0  0  0  0
    8.1690    8.4630   43.4990 N   0  0  0  0  0  0  0  0  0  0  0  0
    6.7620    8.0610   43.5910 C   0  0  0  0  0  0  0  0  0  0  0  0
    6.0320    8.4590   42.2910 C   0  0  0  0  0  0  0  0  0  0  0  0
    6.2540    9.9270   41.9910 N   0  0  0  0  0  0  0  0  0  0  0  0
    7.7230   10.2880   41.9080 C   0  0  0  0  0  0  0  0  0  0  0  0
    8.4580    9.8740   43.1990 C   0  0  0  0  0  0  0  0  0  0  0  0
   10.0270    6.9290   43.8790 C   0  0  0  0  0  0  0  0  0  0  0  0
   10.0750    6.6100   42.5010 C   0  0  0  0  0  0  0  0  0  0  0  0
    8.8598    5.3991   40.8928 H   0  0  0  0  0  0  0  0  0  0  0  0
    9.3980    6.3327   39.4556 H   0  0  0  0  0  0  0  0  0  0  0  0
    9.5100    4.5399   39.4556 H   0  0  0  0  0  0  0  0  0  0  0  0
   12.6511    4.4052   42.4292 H   0  0  0  0  0  0  0  0  0  0  0  0
   12.6137    4.9089   46.1570 H   0  0  0  0  0  0  0  0  0  0  0  0
   12.8811    3.6425   44.9115 H   0  0  0  0  0  0  0  0  0  0  0  0
   13.8891    5.1293   44.9115 H   0  0  0  0  0  0  0  0  0  0  0  0
   10.5040    7.4260   48.6030 H   0  0  0  0  0  0  0  0  0  0  0  0
    7.0176   10.1206   47.7357 H   0  0  0  0  0  0  0  0  0  0  0  0
    7.6801   10.7350   46.1832 H   0  0  0  0  0  0  0  0  0  0  0  0
    6.5043    9.3770   46.1832 H   0  0  0  0  0  0  0  0  0  0  0  0
    6.6994    6.9715   43.7288 H   0  0  0  0  0  0  0  0  0  0  0  0
    6.2901    8.5645   44.4476 H   0  0  0  0  0  0  0  0  0  0  0  0
    6.4206    7.8556   41.4574 H   0  0  0  0  0  0  0  0  0  0  0  0
    4.9542    8.2788   42.4167 H   0  0  0  0  0  0  0  0  0  0  0  0
    5.7950   10.1650   41.1030 H   0  0  0  0  0  0  0  0  0  0  0  0
    5.8060   10.4960   42.7200 H   0  0  0  0  0  0  0  0  0  0  0  0
    8.1754    9.7667   41.0515 H   0  0  0  0  0  0  0  0  0  0  0  0
    7.8138   11.3770   41.7822 H   0  0  0  0  0  0  0  0  0  0  0  0
    9.5415   10.0048   43.0617 H   0  0  0  0  0  0  0  0  0  0  0  0
    8.1146   10.5032   44.0334 H   0  0  0  0  0  0  0  0  0  0  0  0
    9.3526    7.0870   41.8223 H   0  0  0  0  0  0  0  0  0  0  0  0
  1  2  1  0
  2  3  1  0
  3  4  2  0
  4  5  1  0
  5  6  1  0
  5  7  2  0
  7  8  1  0
  8  9  2  0
  9 10  1  0
 10 11  1  0
 11 12  2  0
 12 13  1  0
 12 14  1  0
 14 15  2  0
 15 16  1  0
 16 17  1  0
 17 18  1  0
 18 19  1  0
 19 20  1  0
 20 21  1  0
 15 22  1  0
 22 23  2  0
 23  3  1  0
 22  7  1  0
 14  9  1  0
 21 16  1  0
  1 24  1  0
  1 25  1  0
  1 26  1  0
  4 27  1  0
  6 28  1  0
  6 29  1  0
  6 30  1  0
 10 31  1  0
 13 32  1  0
 13 33  1  0
 13 34  1  0
 17 35  1  0
 17 36  1  0
 18 37  1  0
 18 38  1  0
 19 39  1  0
 19 40  1  0
 20 41  1  0
 20 42  1  0
 21 43  1  0
 21 44  1  0
 23 45  1  0
M  CHG  1  19   1
M  END
>  <meeko>  (4) 
{"is_sidechain": [false], "free_energy": -7.545, "intermolecular_energy": -8.426, "internal_energy": -0.51}

$$$$
3uuo_ligand
     RDKit          3D

 45 48  0  0  0  0  0  0  0  0999 V2000
    3.7600   12.6110   48.4530 C   0  0  0  0  0  0  0  0  0  0  0  0
    4.5190   13.5270   47.6700 O   0  0  0  0  0  0  0  0  0  0  0  0
    4.5210   13.3270   46.3190 C   0  0  0  0  0  0  0  0  0  0  0  0
    3.9600   14.1550   45.3610 C   0  0  0  0  0  0  0  0  0  0  0  0
    4.0380   13.8160   43.9970 C   0  0  0  0  0  0  0  0  0  0  0  0
    3.4120   14.7390   42.9810 C   0  0  0  0  0  0  0  0  0  0  0  0
    4.6810   12.6460   43.5720 C   0  0  0  0  0  0  0  0  0  0  0  0
    4.7150   12.3840   42.2640 N   0  0  0  0  0  0  0  0  0  0  0  0
    5.3430   11.2550   41.9160 C   0  0  0  0  0  0  0  0  0  0  0  0
    5.4840   10.8160   40.6360 N   0  0  0  0  0  0  0  0  0  0  0  0
    6.1600    9.6620   40.5360 N   0  0  0  0  0  0  0  0  0  0  0  0
    6.4670    9.3570   41.8060 C   0  0  0  0  0  0  0  0  0  0  0  0
    7.2380    8.1120   42.0300 C   0  0  0  0  0  0  0  0  0  0  0  0
    5.9640   10.3250   42.7350 C   0  0  0  0  0  0  0  0  0  0  0  0
    5.9330   10.5870   44.1290 C   0  0  0  0  0  0  0  0  0  0  0  0
    6.5060    9.7810   45.1370 N   0  0  0  0  0  0  0  0  0  0  0  0
    5.8790    8.4770   45.3750 C   0  0  0  0  0  0  0  0  0  0  0  0
    6.3280    7.9390   46.7500 C   0  0  0  0  0  0  0  0  0  0  0  0
    7.8400    7.9440   46.8480 N   0  0  0  0  0  0  0  0  0  0  0  0
    8.4350    9.3130   46.5930 C   0  0  0  0  0  0  0  0  0  0  0  0
    7.9720    9.8610   45.2270 C   0  0  0  0  0  0  0  0  0  0  0  0
    5.2640   11.7940   44.5410 C   0  0  0  0  0  0  0  0  0  0  0  0
    5.1620   12.1620   45.9030 C   0  0  0  0  0  0  0  0  0  0  0  0
    3.9284   12.8142   49.5209 H   0  0  0  0  0  0  0  0  0  0  0  0
    2.6911   12.7287   48.2215 H   0  0  0  0  0  0  0  0  0  0  0  0
    4.0743   11.5826   48.2215 H   0  0  0  0  0  0  0  0  0  0  0  0
    3.4515   15.0811   45.6672 H   0  0  0  0  0  0  0  0  0  0  0  0
    2.8678   15.5413   43.5007 H   0  0  0  0  0  0  0  0  0  0  0  0
    4.1992   15.1784   42.3507 H   0  0  0  0  0  0  0  0  0  0  0  0
    2.7126   14.1702   42.3507 H   0  0  0  0  0  0  0  0  0  0  0  0
    5.1390   11.2650   39.7970 H   0  0  0  0  0  0  0  0  0  0  0  0
    7.3463    7.9372   43.1106 H   0  0  0  0  0  0  0  0  0  0  0  0
    6.7065    7.2643   41.5729 H   0  0  0  0  0  0  0  0  0  0  0  0
    8.2337    8.2101   41.5729 H   0  0  0  0  0  0  0  0  0  0  0  0
    4.7847    8.5878   45.3632 H   0  0  0  0  0  0  0  0  0  0  0  0
    6.1825    7.7726   44.5865 H   0  0  0  0  0  0  0  0  0  0  0  0
    5.9108    8.5768   47.5432 H   0  0  0  0  0  0  0  0  0  0  0  0
    5.9651    6.9071   46.8665 H   0  0  0  0  0  0  0  0  0  0  0  0
    8.1200    7.6210   47.7820 H   0  0  0  0  0  0  0  0  0  0  0  0
    8.2280    7.2740   46.1720 H   0  0  0  0  0  0  0  0  0  0  0  0
    8.1110   10.0016   47.3873 H   0  0  0  0  0  0  0  0  0  0  0  0
    9.5316    9.2274   46.5873 H   0  0  0  0  0  0  0  0  0  0  0  0
    8.2887   10.9096   45.1264 H   0  0  0  0  0  0  0  0  0  0  0  0
    8.4217    9.2627   44.4209 H   0  0  0  0  0  0  0  0  0  0  0  0
    5.6061   11.5027   46.6633 H   0  0  0  0  0  0  0  0  0  0  0  0
  1  2  1  0
  2  3  1  0
  3  4  2  0
  4  5  1  0
  5  6  1  0
  5  7  2  0
  7  8  1  0
  8  9  2  0
  9 10  1  0
 10 11  1  0
 11 12  2  0
 12 13  1  0
 12 14  1  0
 14 15  2  0
 15 16  1  0
 16 17  1  0
 17 18  1  0
 18 19  1  0
 19 20  1  0
 20 21  1  0
 15 22  1  0
 22 23  2  0
 23  3  1  0
 22  7  1  0
 14  9  1  0
 21 16  1  0
  1 24  1  0
  1 25  1  0
  1 26  1  0
  4 27  1  0
  6 28  1  0
  6 29  1  0
  6 30  1  0
 10 31  1  0
 13 32  1  0
 13 33  1  0
 13 34  1  0
 17 35  1  0
 17 36  1  0
 18 37  1  0
 18 38  1  0
 19 39  1  0
 19 40  1  0
 20 41  1  0
 20 42  1  0
 21 43  1  0
 21 44  1  0
 23 45  1  0
M  CHG  1  19   1
M  END
>  <meeko>  (5) 
{"is_sidechain": [false], "free_energy": -7.269, "intermolecular_energy": -8.127, "internal_energy": -0.502}

$$$$
3uuo_ligand
     RDKit          3D

 45 48  0  0  0  0  0  0  0  0999 V2000
    4.8670   10.1640   44.6750 C   0  0  0  0  0  0  0  0  0  0  0  0
    5.8260   11.2020   44.4970 O   0  0  0  0  0  0  0  0  0  0  0  0
    5.3780   12.3630   43.9310 C   0  0  0  0  0  0  0  0  0  0  0  0
    5.4510   13.6310   44.4820 C   0  0  0  0  0  0  0  0  0  0  0  0
    4.9420   14.7390   43.7790 C   0  0  0  0  0  0  0  0  0  0  0  0
    5.0330   16.1070   44.4120 C   0  0  0  0  0  0  0  0  0  0  0  0
    4.3560   14.5940   42.5140 C   0  0  0  0  0  0  0  0  0  0  0  0
    3.8900   15.6880   41.9060 N   0  0  0  0  0  0  0  0  0  0  0  0
    3.3440   15.4900   40.7010 C   0  0  0  0  0  0  0  0  0  0  0  0
    2.8170   16.4750   39.9250 N   0  0  0  0  0  0  0  0  0  0  0  0
    2.3360   16.0350   38.7530 N   0  0  0  0  0  0  0  0  0  0  0  0
    2.5720   14.7140   38.7830 C   0  0  0  0  0  0  0  0  0  0  0  0
    2.1510   13.9300   37.5980 C   0  0  0  0  0  0  0  0  0  0  0  0
    3.2010   14.3020   40.0020 C   0  0  0  0  0  0  0  0  0  0  0  0
    3.6860   13.1310   40.6380 C   0  0  0  0  0  0  0  0  0  0  0  0
    3.6490   11.8230   40.1060 N   0  0  0  0  0  0  0  0  0  0  0  0
    2.3230   11.2270   39.9140 C   0  0  0  0  0  0  0  0  0  0  0  0
    2.4700    9.6980   39.7560 C   0  0  0  0  0  0  0  0  0  0  0  0
    3.4750    9.3770   38.6680 N   0  0  0  0  0  0  0  0  0  0  0  0
    4.8250   10.0170   38.9160 C   0  0  0  0  0  0  0  0  0  0  0  0
    4.6780   11.5430   39.0930 C   0  0  0  0  0  0  0  0  0  0  0  0
    4.2810   13.3040   41.9370 C   0  0  0  0  0  0  0  0  0  0  0  0
    4.7970   12.2120   42.6730 C   0  0  0  0  0  0  0  0  0  0  0  0
    4.7081    9.9920   45.7498 H   0  0  0  0  0  0  0  0  0  0  0  0
    3.9165   10.4587   44.2063 H   0  0  0  0  0  0  0  0  0  0  0  0
    5.2358    9.2397   44.2063 H   0  0  0  0  0  0  0  0  0  0  0  0
    5.9083   13.7730   45.4723 H   0  0  0  0  0  0  0  0  0  0  0  0
    5.0262   16.0054   45.5073 H   0  0  0  0  0  0  0  0  0  0  0  0
    5.9657   16.5964   44.0949 H   0  0  0  0  0  0  0  0  0  0  0  0
    4.1734   16.7157   44.0949 H   0  0  0  0  0  0  0  0  0  0  0  0
    2.7610   17.4610   40.1470 H   0  0  0  0  0  0  0  0  0  0  0  0
    1.6545   13.0054   37.9276 H   0  0  0  0  0  0  0  0  0  0  0  0
    1.4517   14.5262   36.9934 H   0  0  0  0  0  0  0  0  0  0  0  0
    3.0343   13.6764   36.9934 H   0  0  0  0  0  0  0  0  0  0  0  0
    1.6910   11.4473   40.7869 H   0  0  0  0  0  0  0  0  0  0  0  0
    1.8564   11.6480   39.0112 H   0  0  0  0  0  0  0  0  0  0  0  0
    2.8144    9.2661   40.7073 H   0  0  0  0  0  0  0  0  0  0  0  0
    1.4946    9.2709   39.4801 H   0  0  0  0  0  0  0  0  0  0  0  0
    3.5900    8.3580   38.6030 H   0  0  0  0  0  0  0  0  0  0  0  0
    3.1100    9.6940   37.7620 H   0  0  0  0  0  0  0  0  0  0  0  0
    5.2665    9.5881   39.8277 H   0  0  0  0  0  0  0  0  0  0  0  0
    5.4748    9.8212   38.0503 H   0  0  0  0  0  0  0  0  0  0  0  0
    5.6386   11.9684   39.4190 H   0  0  0  0  0  0  0  0  0  0  0  0
    4.3821   11.9960   38.1353 H   0  0  0  0  0  0  0  0  0  0  0  0
    4.7375   11.2044   42.2357 H   0  0  0  0  0  0  0  0  0  0  0  0
  1  2  1  0
  2  3  1  0
  3  4  2  0
  4  5  1  0
  5  6  1  0
  5  7  2  0
  7  8  1  0
  8  9  2  0
  9 10  1  0
 10 11  1  0
 11 12  2  0
 12 13  1  0
 12 14  1  0
 14 15  2  0
 15 16  1  0
 16 17  1  0
 17 18  1  0
 18 19  1  0
 19 20  1  0
 20 21  1  0
 15 22  1  0
 22 23  2  0
 23  3  1  0
 22  7  1  0
 14  9  1  0
 21 16  1  0
  1 24  1  0
  1 25  1  0
  1 26  1  0
  4 27  1  0
  6 28  1  0
  6 29  1  0
  6 30  1  0
 10 31  1  0
 13 32  1  0
 13 33  1  0
 13 34  1  0
 17 35  1  0
 17 36  1  0
 18 37  1  0
 18 38  1  0
 19 39  1  0
 19 40  1  0
 20 41  1  0
 20 42  1  0
 21 43  1  0
 21 44  1  0
 23 45  1  0
M  CHG  1  19   1
M  END
>  <meeko>  (6) 
{"is_sidechain": [false], "free_energy": -7.23, "intermolecular_energy": -8.12, "internal_energy": -0.465}

$$$$
3uuo_ligand
     RDKit          3D

 45 48  0  0  0  0  0  0  0  0999 V2000
    6.4510   10.3770   48.2010 C   0  0  0  0  0  0  0  0  0  0  0  0
    5.6950   11.5500   48.4860 O   0  0  0  0  0  0  0  0  0  0  0  0
    5.1690   12.2170   47.4150 C   0  0  0  0  0  0  0  0  0  0  0  0
    4.3560   13.3370   47.4580 C   0  0  0  0  0  0  0  0  0  0  0  0
    3.8850   13.9170   46.2660 C   0  0  0  0  0  0  0  0  0  0  0  0
    2.9960   15.1340   46.3510 C   0  0  0  0  0  0  0  0  0  0  0  0
    4.2250   13.3890   45.0140 C   0  0  0  0  0  0  0  0  0  0  0  0
    3.7400   13.9880   43.9230 N   0  0  0  0  0  0  0  0  0  0  0  0
    4.0990   13.4420   42.7560 C   0  0  0  0  0  0  0  0  0  0  0  0
    3.7100   13.9060   41.5380 N   0  0  0  0  0  0  0  0  0  0  0  0
    4.2050   13.1990   40.5120 N   0  0  0  0  0  0  0  0  0  0  0  0
    4.9440   12.2480   41.1020 C   0  0  0  0  0  0  0  0  0  0  0  0
    5.6420   11.2900   40.2120 C   0  0  0  0  0  0  0  0  0  0  0  0
    4.9080   12.3390   42.5310 C   0  0  0  0  0  0  0  0  0  0  0  0
    5.4270   11.6890   43.6800 C   0  0  0  0  0  0  0  0  0  0  0  0
    6.2730   10.5580   43.6810 N   0  0  0  0  0  0  0  0  0  0  0  0
    5.6820    9.2920   43.2360 C   0  0  0  0  0  0  0  0  0  0  0  0
    6.5730    8.1220   43.7050 C   0  0  0  0  0  0  0  0  0  0  0  0
    8.0060    8.3440   43.2650 N   0  0  0  0  0  0  0  0  0  0  0  0
    8.5660    9.6650   43.7510 C   0  0  0  0  0  0  0  0  0  0  0  0
    7.6660   10.8340   43.2990 C   0  0  0  0  0  0  0  0  0  0  0  0
    5.0620   12.2490   44.9550 C   0  0  0  0  0  0  0  0  0  0  0  0
    5.5120   11.6870   46.1730 C   0  0  0  0  0  0  0  0  0  0  0  0
    6.7580    9.9006   49.1438 H   0  0  0  0  0  0  0  0  0  0  0  0
    5.8345    9.6757   47.6196 H   0  0  0  0  0  0  0  0  0  0  0  0
    7.3443   10.6488   47.6196 H   0  0  0  0  0  0  0  0  0  0  0  0
    4.0774   13.7749   48.4278 H   0  0  0  0  0  0  0  0  0  0  0  0
    2.8145   15.3825   47.4071 H   0  0  0  0  0  0  0  0  0  0  0  0
    3.4881   15.9830   45.8539 H   0  0  0  0  0  0  0  0  0  0  0  0
    2.0376   14.9234   45.8539 H   0  0  0  0  0  0  0  0  0  0  0  0
    3.1100   14.7000   41.3530 H   0  0  0  0  0  0  0  0  0  0  0  0
    6.1814   10.5497   40.8212 H   0  0  0  0  0  0  0  0  0  0  0  0
    4.9054   10.7758   39.5772 H   0  0  0  0  0  0  0  0  0  0  0  0
    6.3572   11.8336   39.5772 H   0  0  0  0  0  0  0  0  0  0  0  0
    4.6760    9.1840   43.6676 H   0  0  0  0  0  0  0  0  0  0  0  0
    5.6098    9.2840   42.1384 H   0  0  0  0  0  0  0  0  0  0  0  0
    6.5364    8.0551   44.8024 H   0  0  0  0  0  0  0  0  0  0  0  0
    6.2019    7.1878   43.2583 H   0  0  0  0  0  0  0  0  0  0  0  0
    8.5910    7.5770   43.6190 H   0  0  0  0  0  0  0  0  0  0  0  0
    8.0580    8.3100   42.2400 H   0  0  0  0  0  0  0  0  0  0  0  0
    8.6191    9.6532   44.8497 H   0  0  0  0  0  0  0  0  0  0  0  0
    9.5700    9.8039   43.3237 H   0  0  0  0  0  0  0  0  0  0  0  0
    8.0015   11.7631   43.7830 H   0  0  0  0  0  0  0  0  0  0  0  0
    7.7309   10.9448   42.2065 H   0  0  0  0  0  0  0  0  0  0  0  0
    6.1577   10.7971   46.1380 H   0  0  0  0  0  0  0  0  0  0  0  0
  1  2  1  0
  2  3  1  0
  3  4  2  0
  4  5  1  0
  5  6  1  0
  5  7  2  0
  7  8  1  0
  8  9  2  0
  9 10  1  0
 10 11  1  0
 11 12  2  0
 12 13  1  0
 12 14  1  0
 14 15  2  0
 15 16  1  0
 16 17  1  0
 17 18  1  0
 18 19  1  0
 19 20  1  0
 20 21  1  0
 15 22  1  0
 22 23  2  0
 23  3  1  0
 22  7  1  0
 14  9  1  0
 21 16  1  0
  1 24  1  0
  1 25  1  0
  1 26  1  0
  4 27  1  0
  6 28  1  0
  6 29  1  0
  6 30  1  0
 10 31  1  0
 13 32  1  0
 13 33  1  0
 13 34  1  0
 17 35  1  0
 17 36  1  0
 18 37  1  0
 18 38  1  0
 19 39  1  0
 19 40  1  0
 20 41  1  0
 20 42  1  0
 21 43  1  0
 21 44  1  0
 23 45  1  0
M  CHG  1  19   1
M  END
>  <meeko>  (7) 
{"is_sidechain": [false], "free_energy": -7.165, "intermolecular_energy": -8.005, "internal_energy": -0.507}

$$$$
3uuo_ligand
     RDKit          3D

 45 48  0  0  0  0  0  0  0  0999 V2000
    3.4890   15.1840   45.6070 C   0  0  0  0  0  0  0  0  0  0  0  0
    3.9670   15.5950   44.3300 O   0  0  0  0  0  0  0  0  0  0  0  0
    4.0040   14.6430   43.3510 C   0  0  0  0  0  0  0  0  0  0  0  0
    3.4120   14.7190   42.1010 C   0  0  0  0  0  0  0  0  0  0  0  0
    3.5340   13.6520   41.1920 C   0  0  0  0  0  0  0  0  0  0  0  0
    2.8710   13.7680   39.8410 C   0  0  0  0  0  0  0  0  0  0  0  0
    4.2530   12.4940   41.5190 C   0  0  0  0  0  0  0  0  0  0  0  0
    4.3240   11.5190   40.6110 N   0  0  0  0  0  0  0  0  0  0  0  0
    5.0240   10.4390   40.9760 C   0  0  0  0  0  0  0  0  0  0  0  0
    5.2130    9.3430   40.1920 N   0  0  0  0  0  0  0  0  0  0  0  0
    5.9580    8.3910   40.7720 N   0  0  0  0  0  0  0  0  0  0  0  0
    6.2610    8.9050   41.9740 C   0  0  0  0  0  0  0  0  0  0  0  0
    7.1000    8.0740   42.8680 C   0  0  0  0  0  0  0  0  0  0  0  0
    5.6840   10.2020   42.1710 C   0  0  0  0  0  0  0  0  0  0  0  0
    5.6140   11.2270   43.1480 C   0  0  0  0  0  0  0  0  0  0  0  0
    6.2170   11.1980   44.4260 N   0  0  0  0  0  0  0  0  0  0  0  0
    5.6260   10.2880   45.4130 C   0  0  0  0  0  0  0  0  0  0  0  0
    6.1010   10.6920   46.8250 C   0  0  0  0  0  0  0  0  0  0  0  0
    7.6120   10.7810   46.8660 N   0  0  0  0  0  0  0  0  0  0  0  0
    8.1680   11.7320   45.8270 C   0  0  0  0  0  0  0  0  0  0  0  0
    7.6800   11.3410   44.4170 C   0  0  0  0  0  0  0  0  0  0  0  0
    4.8680   12.4050   42.7910 C   0  0  0  0  0  0  0  0  0  0  0  0
    4.7210   13.4940   43.6820 C   0  0  0  0  0  0  0  0  0  0  0  0
    4.0711   15.6845   46.3949 H   0  0  0  0  0  0  0  0  0  0  0  0
    2.4278   15.4560   45.7062 H   0  0  0  0  0  0  0  0  0  0  0  0
    3.5989   14.0940   45.7062 H   0  0  0  0  0  0  0  0  0  0  0  0
    2.8440   15.6174   41.8178 H   0  0  0  0  0  0  0  0  0  0  0  0
    1.7956   13.9562   39.9753 H   0  0  0  0  0  0  0  0  0  0  0  0
    3.3219   14.6009   39.2816 H   0  0  0  0  0  0  0  0  0  0  0  0
    3.0123   12.8315   39.2816 H   0  0  0  0  0  0  0  0  0  0  0  0
    4.8560    9.1960   39.2560 H   0  0  0  0  0  0  0  0  0  0  0  0
    6.8629    8.3088   43.9162 H   0  0  0  0  0  0  0  0  0  0  0  0
    6.8980    7.0099   42.6759 H   0  0  0  0  0  0  0  0  0  0  0  0
    8.1621    8.2861   42.6759 H   0  0  0  0  0  0  0  0  0  0  0  0
    4.5291   10.3519   45.3617 H   0  0  0  0  0  0  0  0  0  0  0  0
    5.9406    9.2560   45.1987 H   0  0  0  0  0  0  0  0  0  0  0  0
    5.6727   11.6711   47.0856 H   0  0  0  0  0  0  0  0  0  0  0  0
    5.7678    9.9309   47.5459 H   0  0  0  0  0  0  0  0  0  0  0  0
    7.9080   11.0880   47.8010 H   0  0  0  0  0  0  0  0  0  0  0  0
    8.0130    9.8460   46.7200 H   0  0  0  0  0  0  0  0  0  0  0  0
    7.8316   12.7540   46.0555 H   0  0  0  0  0  0  0  0  0  0  0  0
    9.2665   11.6791   45.8495 H   0  0  0  0  0  0  0  0  0  0  0  0
    7.9673   12.1238   43.6996 H   0  0  0  0  0  0  0  0  0  0  0  0
    8.1396   10.3861   44.1221 H   0  0  0  0  0  0  0  0  0  0  0  0
    5.1907   13.4318   44.6747 H   0  0  0  0  0  0  0  0  0  0  0  0
  1  2  1  0
  2  3  1  0
  3  4  2  0
  4  5  1  0
  5  6  1  0
  5  7  2  0
  7  8  1  0
  8  9  2  0
  9 10  1  0
 10 11  1  0
 11 12  2  0
 12 13  1  0
 12 14  1  0
 14 15  2  0
 15 16  1  0
 16 17  1  0
 17 18  1  0
 18 19  1  0
 19 20  1  0
 20 21  1  0
 15 22  1  0
 22 23  2  0
 23  3  1  0
 22  7  1  0
 14  9  1  0
 21 16  1  0
  1 24  1  0
  1 25  1  0
  1 26  1  0
  4 27  1  0
  6 28  1  0
  6 29  1  0
  6 30  1  0
 10 31  1  0
 13 32  1  0
 13 33  1  0
 13 34  1  0
 17 35  1  0
 17 36  1  0
 18 37  1  0
 18 38  1  0
 19 39  1  0
 19 40  1  0
 20 41  1  0
 20 42  1  0
 21 43  1  0
 21 44  1  0
 23 45  1  0
M  CHG  1  19   1
M  END
>  <meeko>  (8) 
{"is_sidechain": [false], "free_energy": -7.063, "intermolecular_energy": -7.888, "internal_energy": -0.511}

$$$$
3uuo_ligand
     RDKit          3D

 45 48  0  0  0  0  0  0  0  0999 V2000
    5.1220   10.4590   41.3840 C   0  0  0  0  0  0  0  0  0  0  0  0
    5.4660    9.3890   40.5090 O   0  0  0  0  0  0  0  0  0  0  0  0
    6.1140    8.3230   41.0670 C   0  0  0  0  0  0  0  0  0  0  0  0
    6.2740    7.0670   40.5050 C   0  0  0  0  0  0  0  0  0  0  0  0
    6.9670    6.0610   41.2030 C   0  0  0  0  0  0  0  0  0  0  0  0
    7.1180    4.7030   40.5620 C   0  0  0  0  0  0  0  0  0  0  0  0
    7.5140    6.2980   42.4710 C   0  0  0  0  0  0  0  0  0  0  0  0
    8.1560    5.2970   43.0780 N   0  0  0  0  0  0  0  0  0  0  0  0
    8.6590    5.5800   44.2840 C   0  0  0  0  0  0  0  0  0  0  0  0
    9.3460    4.6970   45.0590 N   0  0  0  0  0  0  0  0  0  0  0  0
    9.7590    5.2140   46.2250 N   0  0  0  0  0  0  0  0  0  0  0  0
    9.3220    6.4820   46.1880 C   0  0  0  0  0  0  0  0  0  0  0  0
    9.6360    7.3340   47.3590 C   0  0  0  0  0  0  0  0  0  0  0  0
    8.6020    6.7750   44.9850 C   0  0  0  0  0  0  0  0  0  0  0  0
    7.9200    7.8470   44.3550 C   0  0  0  0  0  0  0  0  0  0  0  0
    7.7500    9.1460   44.8830 N   0  0  0  0  0  0  0  0  0  0  0  0
    6.8230    9.2830   46.0110 C   0  0  0  0  0  0  0  0  0  0  0  0
    6.4280   10.7660   46.1690 C   0  0  0  0  0  0  0  0  0  0  0  0
    7.6670   11.6340   46.2550 N   0  0  0  0  0  0  0  0  0  0  0  0
    8.5880   11.4530   45.0660 C   0  0  0  0  0  0  0  0  0  0  0  0
    8.9690    9.9670   44.8960 C   0  0  0  0  0  0  0  0  0  0  0  0
    7.3640    7.5790   43.0540 C   0  0  0  0  0  0  0  0  0  0  0  0
    6.6560    8.5650   42.3280 C   0  0  0  0  0  0  0  0  0  0  0  0
    5.2284   10.1279   42.4276 H   0  0  0  0  0  0  0  0  0  0  0  0
    5.7910   11.3126   41.2001 H   0  0  0  0  0  0  0  0  0  0  0  0
    4.0809   10.7628   41.2001 H   0  0  0  0  0  0  0  0  0  0  0  0
    5.8576    6.8553   39.5091 H   0  0  0  0  0  0  0  0  0  0  0  0
    7.2034    3.9353   41.3452 H   0  0  0  0  0  0  0  0  0  0  0  0
    6.2377    4.4927   39.9368 H   0  0  0  0  0  0  0  0  0  0  0  0
    8.0230    4.6912   39.9368 H   0  0  0  0  0  0  0  0  0  0  0  0
    9.5590    3.7320   44.8380 H   0  0  0  0  0  0  0  0  0  0  0  0
    9.4303    6.7758   48.2843 H   0  0  0  0  0  0  0  0  0  0  0  0
   10.6981    7.6187   47.3310 H   0  0  0  0  0  0  0  0  0  0  0  0
    9.0127    8.2399   47.3310 H   0  0  0  0  0  0  0  0  0  0  0  0
    5.9221    8.6809   45.8215 H   0  0  0  0  0  0  0  0  0  0  0  0
    7.3095    8.9310   46.9326 H   0  0  0  0  0  0  0  0  0  0  0  0
    5.8273   11.0760   45.3012 H   0  0  0  0  0  0  0  0  0  0  0  0
    5.8436   10.8841   47.0934 H   0  0  0  0  0  0  0  0  0  0  0  0
    7.3870   12.6200   46.3190 H   0  0  0  0  0  0  0  0  0  0  0  0
    8.1790   11.4130   47.1180 H   0  0  0  0  0  0  0  0  0  0  0  0
    8.0770   11.8016   44.1564 H   0  0  0  0  0  0  0  0  0  0  0  0
    9.5046   12.0373   45.2349 H   0  0  0  0  0  0  0  0  0  0  0  0
    9.5107    9.8337   43.9480 H   0  0  0  0  0  0  0  0  0  0  0  0
    9.6114    9.6556   45.7329 H   0  0  0  0  0  0  0  0  0  0  0  0
    6.5282    9.5615   42.7760 H   0  0  0  0  0  0  0  0  0  0  0  0
  1  2  1  0
  2  3  1  0
  3  4  2  0
  4  5  1  0
  5  6  1  0
  5  7  2  0
  7  8  1  0
  8  9  2  0
  9 10  1  0
 10 11  1  0
 11 12  2  0
 12 13  1  0
 12 14  1  0
 14 15  2  0
 15 16  1  0
 16 17  1  0
 17 18  1  0
 18 19  1  0
 19 20  1  0
 20 21  1  0
 15 22  1  0
 22 23  2  0
 23  3  1  0
 22  7  1  0
 14  9  1  0
 21 16  1  0
  1 24  1  0
  1 25  1  0
  1 26  1  0
  4 27  1  0
  6 28  1  0
  6 29  1  0
  6 30  1  0
 10 31  1  0
 13 32  1  0
 13 33  1  0
 13 34  1  0
 17 35  1  0
 17 36  1  0
 18 37  1  0
 18 38  1  0
 19 39  1  0
 19 40  1  0
 20 41  1  0
 20 42  1  0
 21 43  1  0
 21 44  1  0
 23 45  1  0
M  CHG  1  19   1
M  END
>  <meeko>  (9) 
{"is_sidechain": [false], "free_energy": -7.058, "intermolecular_energy": -7.875, "internal_energy": -0.517}

$$$$
