4kzq_ligand
     RDKit          3D

 28 30  0  0  0  0  0  0  0  0999 V2000
   -7.8150   38.4500  -15.0800 O   0  0  0  0  0  0  0  0  0  0  0  0
   -7.1420   37.8360  -14.2630 C   0  0  0  0  0  0  0  0  0  0  0  0
   -7.1760   38.1900  -12.8350 C   0  0  0  0  0  0  0  0  0  0  0  0
   -6.4320   37.4880  -11.9670 C   0  0  0  0  0  0  0  0  0  0  0  0
   -6.4210   37.8030  -10.5260 C   0  0  0  0  0  0  0  0  0  0  0  0
   -5.8550   36.8980   -9.6150 C   0  0  0  0  0  0  0  0  0  0  0  0
   -5.8450   37.1760   -8.2460 C   0  0  0  0  0  0  0  0  0  0  0  0
   -6.4060   38.3570   -7.7790 C   0  0  0  0  0  0  0  0  0  0  0  0
   -6.3740   38.5880   -6.4360 O   0  0  0  0  0  0  0  0  0  0  0  0
   -6.9810   39.2670   -8.6580 C   0  0  0  0  0  0  0  0  0  0  0  0
   -6.9900   38.9880  -10.0280 C   0  0  0  0  0  0  0  0  0  0  0  0
   -5.5990   36.4390  -12.3240 O   0  0  0  0  0  0  0  0  0  0  0  0
   -5.5360   36.0750  -13.6460 C   0  0  0  0  0  0  0  0  0  0  0  0
   -4.6970   35.0110  -13.9760 C   0  0  0  0  0  0  0  0  0  0  0  0
   -4.5910   34.5960  -15.3050 C   0  0  0  0  0  0  0  0  0  0  0  0
   -5.3230   35.2420  -16.3030 C   0  0  0  0  0  0  0  0  0  0  0  0
   -6.1630   36.3070  -15.9750 C   0  0  0  0  0  0  0  0  0  0  0  0
   -6.2650   36.7180  -14.6420 C   0  0  0  0  0  0  0  0  0  0  0  0
   -7.8047   39.0212  -12.4831 H   0  0  0  0  0  0  0  0  0  0  0  0
   -5.4145   35.9596   -9.9828 H   0  0  0  0  0  0  0  0  0  0  0  0
   -5.3944   36.4620   -7.5408 H   0  0  0  0  0  0  0  0  0  0  0  0
   -7.2280   38.3260   -6.0540 H   0  0  0  0  0  0  0  0  0  0  0  0
   -7.4254   40.1991   -8.2790 H   0  0  0  0  0  0  0  0  0  0  0  0
   -7.4482   39.7050  -10.7251 H   0  0  0  0  0  0  0  0  0  0  0  0
   -4.1201   34.4999  -13.1912 H   0  0  0  0  0  0  0  0  0  0  0  0
   -3.9287   33.7575  -15.5664 H   0  0  0  0  0  0  0  0  0  0  0  0
   -5.2376   34.9113  -17.3486 H   0  0  0  0  0  0  0  0  0  0  0  0
   -6.7404   36.8192  -16.7587 H   0  0  0  0  0  0  0  0  0  0  0  0
  1  2  2  0
  2  3  1  0
  3  4  2  0
  4  5  1  0
  5  6  2  0
  6  7  1  0
  7  8  2  0
  8  9  1  0
  8 10  1  0
 10 11  2  0
  4 12  1  0
 12 13  1  0
 13 14  2  0
 14 15  1  0
 15 16  2  0
 16 17  1  0
 17 18  2  0
 18  2  1  0
 11  5  1  0
 18 13  1  0
  3 19  1  0
  6 20  1  0
  7 21  1  0
  9 22  1  0
 10 23  1  0
 11 24  1  0
 14 25  1  0
 15 26  1  0
 16 27  1  0
 17 28  1  0
M  END
>  <meeko>  (1) 
{"is_sidechain": [false], "free_energy": -10.946, "intermolecular_energy": -11.906, "internal_energy": -0.299}

$$$$
4kzq_ligand
     RDKit          3D

 28 30  0  0  0  0  0  0  0  0999 V2000
   -4.2580   39.2250   -8.6100 O   0  0  0  0  0  0  0  0  0  0  0  0
   -5.2380   38.6870   -9.1080 C   0  0  0  0  0  0  0  0  0  0  0  0
   -5.3040   38.4230  -10.5540 C   0  0  0  0  0  0  0  0  0  0  0  0
   -6.3890   37.8210  -11.0620 C   0  0  0  0  0  0  0  0  0  0  0  0
   -6.5130   37.5380  -12.5060 C   0  0  0  0  0  0  0  0  0  0  0  0
   -7.3960   38.2930  -13.2940 C   0  0  0  0  0  0  0  0  0  0  0  0
   -7.5320   38.0330  -14.6590 C   0  0  0  0  0  0  0  0  0  0  0  0
   -6.7920   37.0130  -15.2440 C   0  0  0  0  0  0  0  0  0  0  0  0
   -6.9570   36.7940  -16.5790 O   0  0  0  0  0  0  0  0  0  0  0  0
   -5.9180   36.2450  -14.4850 C   0  0  0  0  0  0  0  0  0  0  0  0
   -5.7810   36.5060  -13.1180 C   0  0  0  0  0  0  0  0  0  0  0  0
   -7.4890   37.4340  -10.3130 O   0  0  0  0  0  0  0  0  0  0  0  0
   -7.4700   37.6610   -8.9600 C   0  0  0  0  0  0  0  0  0  0  0  0
   -8.5870   37.2550   -8.2290 C   0  0  0  0  0  0  0  0  0  0  0  0
   -8.6250   37.4600   -6.8480 C   0  0  0  0  0  0  0  0  0  0  0  0
   -7.5500   38.0700   -6.1980 C   0  0  0  0  0  0  0  0  0  0  0  0
   -6.4330   38.4770   -6.9280 C   0  0  0  0  0  0  0  0  0  0  0  0
   -6.4000   38.2690   -8.3100 C   0  0  0  0  0  0  0  0  0  0  0  0
   -4.4721   38.7164  -11.2112 H   0  0  0  0  0  0  0  0  0  0  0  0
   -7.9866   39.0975  -12.8314 H   0  0  0  0  0  0  0  0  0  0  0  0
   -8.2226   38.6336  -15.2691 H   0  0  0  0  0  0  0  0  0  0  0  0
   -6.5100   35.9650  -16.8160 H   0  0  0  0  0  0  0  0  0  0  0  0
   -5.3380   35.4376  -14.9558 H   0  0  0  0  0  0  0  0  0  0  0  0
   -5.0922   35.8965  -12.5146 H   0  0  0  0  0  0  0  0  0  0  0  0
   -9.4352   36.7749   -8.7389 H   0  0  0  0  0  0  0  0  0  0  0  0
   -9.5047   37.1399   -6.2703 H   0  0  0  0  0  0  0  0  0  0  0  0
   -7.5840   38.2296   -5.1102 H   0  0  0  0  0  0  0  0  0  0  0  0
   -5.5843   38.9581   -6.4198 H   0  0  0  0  0  0  0  0  0  0  0  0
  1  2  2  0
  2  3  1  0
  3  4  2  0
  4  5  1  0
  5  6  2  0
  6  7  1  0
  7  8  2  0
  8  9  1  0
  8 10  1  0
 10 11  2  0
  4 12  1  0
 12 13  1  0
 13 14  2  0
 14 15  1  0
 15 16  2  0
 16 17  1  0
 17 18  2  0
 18  2  1  0
 11  5  1  0
 18 13  1  0
  3 19  1  0
  6 20  1  0
  7 21  1  0
  9 22  1  0
 10 23  1  0
 11 24  1  0
 14 25  1  0
 15 26  1  0
 16 27  1  0
 17 28  1  0
M  END
>  <meeko>  (2) 
{"is_sidechain": [false], "free_energy": -9.367, "intermolecular_energy": -10.234, "internal_energy": -0.254}

$$$$
4kzq_ligand
     RDKit          3D

 28 30  0  0  0  0  0  0  0  0999 V2000
   -4.4890   34.8550  -12.9450 O   0  0  0  0  0  0  0  0  0  0  0  0
   -5.1530   35.8600  -12.7310 C   0  0  0  0  0  0  0  0  0  0  0  0
   -5.2270   36.4470  -11.3840 C   0  0  0  0  0  0  0  0  0  0  0  0
   -5.9560   37.5560  -11.1900 C   0  0  0  0  0  0  0  0  0  0  0  0
   -6.0720   38.1820   -9.8580 C   0  0  0  0  0  0  0  0  0  0  0  0
   -5.7590   37.4440   -8.7070 C   0  0  0  0  0  0  0  0  0  0  0  0
   -5.8730   38.0180   -7.4390 C   0  0  0  0  0  0  0  0  0  0  0  0
   -6.3060   39.3310   -7.3130 C   0  0  0  0  0  0  0  0  0  0  0  0
   -6.4030   39.8520   -6.0570 O   0  0  0  0  0  0  0  0  0  0  0  0
   -6.6310   40.0820   -8.4360 C   0  0  0  0  0  0  0  0  0  0  0  0
   -6.5170   39.5070   -9.7060 C   0  0  0  0  0  0  0  0  0  0  0  0
   -6.6770   38.1990  -12.1830 O   0  0  0  0  0  0  0  0  0  0  0  0
   -6.6370   37.6860  -13.4560 C   0  0  0  0  0  0  0  0  0  0  0  0
   -7.3650   38.3570  -14.4380 C   0  0  0  0  0  0  0  0  0  0  0  0
   -7.3630   37.8830  -15.7510 C   0  0  0  0  0  0  0  0  0  0  0  0
   -6.6330   36.7390  -16.0830 C   0  0  0  0  0  0  0  0  0  0  0  0
   -5.9040   36.0660  -15.1020 C   0  0  0  0  0  0  0  0  0  0  0  0
   -5.9100   36.5460  -13.7890 C   0  0  0  0  0  0  0  0  0  0  0  0
   -4.6900   35.9812  -10.5446 H   0  0  0  0  0  0  0  0  0  0  0  0
   -5.4201   36.4020   -8.8041 H   0  0  0  0  0  0  0  0  0  0  0  0
   -5.6206   37.4318   -6.5431 H   0  0  0  0  0  0  0  0  0  0  0  0
   -6.8960   40.6870   -6.1020 H   0  0  0  0  0  0  0  0  0  0  0  0
   -6.9754   41.1210   -8.3271 H   0  0  0  0  0  0  0  0  0  0  0  0
   -6.7785   40.0982  -10.5960 H   0  0  0  0  0  0  0  0  0  0  0  0
   -7.9398   39.2582  -14.1784 H   0  0  0  0  0  0  0  0  0  0  0  0
   -7.9375   38.4114  -16.5260 H   0  0  0  0  0  0  0  0  0  0  0  0
   -6.6330   36.3685  -17.1187 H   0  0  0  0  0  0  0  0  0  0  0  0
   -5.3288   35.1645  -15.3598 H   0  0  0  0  0  0  0  0  0  0  0  0
  1  2  2  0
  2  3  1  0
  3  4  2  0
  4  5  1  0
  5  6  2  0
  6  7  1  0
  7  8  2  0
  8  9  1  0
  8 10  1  0
 10 11  2  0
  4 12  1  0
 12 13  1  0
 13 14  2  0
 14 15  1  0
 15 16  2  0
 16 17  1  0
 17 18  2  0
 18  2  1  0
 11  5  1  0
 18 13  1  0
  3 19  1  0
  6 20  1  0
  7 21  1  0
  9 22  1  0
 10 23  1  0
 11 24  1  0
 14 25  1  0
 15 26  1  0
 16 27  1  0
 17 28  1  0
M  END
>  <meeko>  (3) 
{"is_sidechain": [false], "free_energy": -9.323, "intermolecular_energy": -10.144, "internal_energy": -0.296}

$$$$
4kzq_ligand
     RDKit          3D

 28 30  0  0  0  0  0  0  0  0999 V2000
   -5.2570   36.4080   -7.8930 O   0  0  0  0  0  0  0  0  0  0  0  0
   -5.6990   37.2360   -8.6780 C   0  0  0  0  0  0  0  0  0  0  0  0
   -5.8570   36.9170  -10.1060 C   0  0  0  0  0  0  0  0  0  0  0  0
   -6.3550   37.8470  -10.9350 C   0  0  0  0  0  0  0  0  0  0  0  0
   -6.5270   37.5850  -12.3770 C   0  0  0  0  0  0  0  0  0  0  0  0
   -5.7900   36.5640  -12.9970 C   0  0  0  0  0  0  0  0  0  0  0  0
   -5.9340   36.3090  -14.3630 C   0  0  0  0  0  0  0  0  0  0  0  0
   -6.8100   37.0760  -15.1180 C   0  0  0  0  0  0  0  0  0  0  0  0
   -6.9200   36.7930  -16.4470 O   0  0  0  0  0  0  0  0  0  0  0  0
   -7.5460   38.0990  -14.5320 C   0  0  0  0  0  0  0  0  0  0  0  0
   -7.4020   38.3540  -13.1640 C   0  0  0  0  0  0  0  0  0  0  0  0
   -6.7260   39.1230  -10.5430 O   0  0  0  0  0  0  0  0  0  0  0  0
   -6.5950   39.4640   -9.2190 C   0  0  0  0  0  0  0  0  0  0  0  0
   -6.9840   40.7510   -8.8510 C   0  0  0  0  0  0  0  0  0  0  0  0
   -6.8740   41.1560   -7.5190 C   0  0  0  0  0  0  0  0  0  0  0  0
   -6.3770   40.2740   -6.5560 C   0  0  0  0  0  0  0  0  0  0  0  0
   -5.9880   38.9860   -6.9230 C   0  0  0  0  0  0  0  0  0  0  0  0
   -6.1010   38.5870   -8.2580 C   0  0  0  0  0  0  0  0  0  0  0  0
   -5.5699   35.9268  -10.4895 H   0  0  0  0  0  0  0  0  0  0  0  0
   -5.0916   35.9582  -12.4010 H   0  0  0  0  0  0  0  0  0  0  0  0
   -5.3552   35.5033  -14.8383 H   0  0  0  0  0  0  0  0  0  0  0  0
   -6.5760   37.5460  -16.9560 H   0  0  0  0  0  0  0  0  0  0  0  0
   -8.2362   38.7033  -15.1390 H   0  0  0  0  0  0  0  0  0  0  0  0
   -7.9803   39.1658  -12.6987 H   0  0  0  0  0  0  0  0  0  0  0  0
   -7.3767   41.4459   -9.6079 H   0  0  0  0  0  0  0  0  0  0  0  0
   -7.1793   42.1717   -7.2273 H   0  0  0  0  0  0  0  0  0  0  0  0
   -6.2925   40.5958   -5.5075 H   0  0  0  0  0  0  0  0  0  0  0  0
   -5.5952   38.2894   -6.1677 H   0  0  0  0  0  0  0  0  0  0  0  0
  1  2  2  0
  2  3  1  0
  3  4  2  0
  4  5  1  0
  5  6  2  0
  6  7  1  0
  7  8  2  0
  8  9  1  0
  8 10  1  0
 10 11  2  0
  4 12  1  0
 12 13  1  0
 13 14  2  0
 14 15  1  0
 15 16  2  0
 16 17  1  0
 17 18  2  0
 18  2  1  0
 11  5  1  0
 18 13  1  0
  3 19  1  0
  6 20  1  0
  7 21  1  0
  9 22  1  0
 10 23  1  0
 11 24  1  0
 14 25  1  0
 15 26  1  0
 16 27  1  0
 17 28  1  0
M  END
>  <meeko>  (4) 
{"is_sidechain": [false], "free_energy": -9.204, "intermolecular_energy": -10.016, "internal_energy": -0.295}

$$$$
4kzq_ligand
     RDKit          3D

 28 30  0  0  0  0  0  0  0  0999 V2000
   -7.1390   41.4800   -8.2680 O   0  0  0  0  0  0  0  0  0  0  0  0
   -6.6820   40.3540   -8.4100 C   0  0  0  0  0  0  0  0  0  0  0  0
   -6.6330   39.7180   -9.7360 C   0  0  0  0  0  0  0  0  0  0  0  0
   -6.1160   38.4860   -9.8550 C   0  0  0  0  0  0  0  0  0  0  0  0
   -6.0490   37.7970  -11.1580 C   0  0  0  0  0  0  0  0  0  0  0  0
   -6.8470   38.2380  -12.2250 C   0  0  0  0  0  0  0  0  0  0  0  0
   -6.8030   37.5920  -13.4630 C   0  0  0  0  0  0  0  0  0  0  0  0
   -5.9670   36.4970  -13.6390 C   0  0  0  0  0  0  0  0  0  0  0  0
   -5.9560   35.8960  -14.8630 O   0  0  0  0  0  0  0  0  0  0  0  0
   -5.1740   36.0340  -12.5970 C   0  0  0  0  0  0  0  0  0  0  0  0
   -5.2180   36.6810  -11.3580 C   0  0  0  0  0  0  0  0  0  0  0  0
   -5.6260   37.7400   -8.7940 O   0  0  0  0  0  0  0  0  0  0  0  0
   -5.6520   38.2950   -7.5390 C   0  0  0  0  0  0  0  0  0  0  0  0
   -5.1460   37.5260   -6.4910 C   0  0  0  0  0  0  0  0  0  0  0  0
   -5.1460   38.0370   -5.1920 C   0  0  0  0  0  0  0  0  0  0  0  0
   -5.6510   39.3140   -4.9390 C   0  0  0  0  0  0  0  0  0  0  0  0
   -6.1580   40.0850   -5.9860 C   0  0  0  0  0  0  0  0  0  0  0  0
   -6.1550   39.5680   -7.2850 C   0  0  0  0  0  0  0  0  0  0  0  0
   -7.0164   40.2475  -10.6207 H   0  0  0  0  0  0  0  0  0  0  0  0
   -7.5141   39.1014  -12.0851 H   0  0  0  0  0  0  0  0  0  0  0  0
   -7.4279   37.9491  -14.2949 H   0  0  0  0  0  0  0  0  0  0  0  0
   -6.7170   35.2950  -14.9220 H   0  0  0  0  0  0  0  0  0  0  0  0
   -4.5162   35.1649  -12.7452 H   0  0  0  0  0  0  0  0  0  0  0  0
   -4.5948   36.3122  -10.5300 H   0  0  0  0  0  0  0  0  0  0  0  0
   -4.7480   36.5196   -6.6877 H   0  0  0  0  0  0  0  0  0  0  0  0
   -4.7468   37.4316   -4.3648 H   0  0  0  0  0  0  0  0  0  0  0  0
   -5.6492   39.7126   -3.9137 H   0  0  0  0  0  0  0  0  0  0  0  0
   -6.5568   41.0914   -5.7908 H   0  0  0  0  0  0  0  0  0  0  0  0
  1  2  2  0
  2  3  1  0
  3  4  2  0
  4  5  1  0
  5  6  2  0
  6  7  1  0
  7  8  2  0
  8  9  1  0
  8 10  1  0
 10 11  2  0
  4 12  1  0
 12 13  1  0
 13 14  2  0
 14 15  1  0
 15 16  2  0
 16 17  1  0
 17 18  2  0
 18  2  1  0
 11  5  1  0
 18 13  1  0
  3 19  1  0
  6 20  1  0
  7 21  1  0
  9 22  1  0
 10 23  1  0
 11 24  1  0
 14 25  1  0
 15 26  1  0
 16 27  1  0
 17 28  1  0
M  END
>  <meeko>  (5) 
{"is_sidechain": [false], "free_energy": -9.192, "intermolecular_energy": -10.001, "internal_energy": -0.296}

$$$$
4kzq_ligand
     RDKit          3D

 28 30  0  0  0  0  0  0  0  0999 V2000
   -5.1050   39.9140   -6.4920 O   0  0  0  0  0  0  0  0  0  0  0  0
   -5.8640   39.1450   -7.0670 C   0  0  0  0  0  0  0  0  0  0  0  0
   -5.7080   38.8580   -8.5020 C   0  0  0  0  0  0  0  0  0  0  0  0
   -6.5520   38.0010   -9.0950 C   0  0  0  0  0  0  0  0  0  0  0  0
   -6.4480   37.6820  -10.5330 C   0  0  0  0  0  0  0  0  0  0  0  0
   -5.5110   36.7350  -10.9740 C   0  0  0  0  0  0  0  0  0  0  0  0
   -5.3930   36.4280  -12.3310 C   0  0  0  0  0  0  0  0  0  0  0  0
   -6.2040   37.0710  -13.2560 C   0  0  0  0  0  0  0  0  0  0  0  0
   -6.0550   36.7410  -14.5710 O   0  0  0  0  0  0  0  0  0  0  0  0
   -7.1330   38.0200  -12.8480 C   0  0  0  0  0  0  0  0  0  0  0  0
   -7.2520   38.3270  -11.4880 C   0  0  0  0  0  0  0  0  0  0  0  0
   -7.5980   37.3620   -8.4480 O   0  0  0  0  0  0  0  0  0  0  0  0
   -7.7800   37.6010   -7.1090 C   0  0  0  0  0  0  0  0  0  0  0  0
   -8.8350   36.9380   -6.4800 C   0  0  0  0  0  0  0  0  0  0  0  0
   -9.0700   37.1420   -5.1190 C   0  0  0  0  0  0  0  0  0  0  0  0
   -8.2530   38.0050   -4.3860 C   0  0  0  0  0  0  0  0  0  0  0  0
   -7.1980   38.6690   -5.0130 C   0  0  0  0  0  0  0  0  0  0  0  0
   -6.9670   38.4610   -6.3760 C   0  0  0  0  0  0  0  0  0  0  0  0
   -4.9078   39.3412   -9.0819 H   0  0  0  0  0  0  0  0  0  0  0  0
   -4.8628   36.2293  -10.2431 H   0  0  0  0  0  0  0  0  0  0  0  0
   -4.6600   35.6793  -12.6658 H   0  0  0  0  0  0  0  0  0  0  0  0
   -5.1060   36.7090  -14.7780 H   0  0  0  0  0  0  0  0  0  0  0  0
   -7.7700   38.5261  -13.5883 H   0  0  0  0  0  0  0  0  0  0  0  0
   -7.9832   39.0818  -11.1628 H   0  0  0  0  0  0  0  0  0  0  0  0
   -9.4794   36.2567   -7.0550 H   0  0  0  0  0  0  0  0  0  0  0  0
   -9.9018   36.6210   -4.6224 H   0  0  0  0  0  0  0  0  0  0  0  0
   -8.4412   38.1615   -3.3136 H   0  0  0  0  0  0  0  0  0  0  0  0
   -6.5531   39.3508   -4.4393 H   0  0  0  0  0  0  0  0  0  0  0  0
  1  2  2  0
  2  3  1  0
  3  4  2  0
  4  5  1  0
  5  6  2  0
  6  7  1  0
  7  8  2  0
  8  9  1  0
  8 10  1  0
 10 11  2  0
  4 12  1  0
 12 13  1  0
 13 14  2  0
 14 15  1  0
 15 16  2  0
 16 17  1  0
 17 18  2  0
 18  2  1  0
 11  5  1  0
 18 13  1  0
  3 19  1  0
  6 20  1  0
  7 21  1  0
  9 22  1  0
 10 23  1  0
 11 24  1  0
 14 25  1  0
 15 26  1  0
 16 27  1  0
 17 28  1  0
M  END
>  <meeko>  (6) 
{"is_sidechain": [false], "free_energy": -8.198, "intermolecular_energy": -8.968, "internal_energy": -0.248}

$$$$
