2wbg_ligand
     RDKit          3D

 51 52  0  0  0  0  0  0  0  0999 V2000
   39.6300   22.2810   11.4180 C   0  0  0  0  0  0  0  0  0  0  0  0
   39.4780   23.3700   10.3680 C   0  0  0  0  0  0  0  0  0  0  0  0
   38.3560   24.3640   10.6790 C   0  0  0  0  0  0  0  0  0  0  0  0
   37.8270   24.2460   12.1100 C   0  0  0  0  0  0  0  0  0  0  0  0
   36.3300   23.9230   12.1770 C   0  0  0  0  0  0  0  0  0  0  0  0
   35.4680   24.9310   12.9430 C   0  0  0  0  0  0  0  0  0  0  0  0
   36.2220   26.1050   13.5790 C   0  0  0  0  0  0  0  0  0  0  0  0
   36.2760   26.0780   15.1030 C   0  0  0  0  0  0  0  0  0  0  0  0
   35.4580   27.1710   15.6470 N   0  0  0  0  0  0  0  0  0  0  0  0
   34.2510   26.9720   16.1170 C   0  0  0  0  0  0  0  0  0  0  0  0
   33.7400   25.7350   16.0820 O   0  0  0  0  0  0  0  0  0  0  0  0
   32.3220   25.9330   16.2660 C   0  0  0  0  0  0  0  0  0  0  0  0
   32.2130   27.2390   17.0280 C   0  0  2  0  0  0  0  0  0  0  0  0
   31.0520   28.1290   16.6090 C   0  0  1  0  0  0  0  0  0  0  0  0
   29.8040   27.4930   16.8680 O   0  0  0  0  0  0  0  0  0  0  0  0
   31.1440   29.4720   17.3620 C   0  0  2  0  0  0  0  0  0  0  0  0
   30.4680   30.4860   16.6090 O   0  0  0  0  0  0  0  0  0  0  0  0
   32.5840   29.9180   17.7170 C   0  0  1  0  0  0  0  0  0  0  0  0
   32.8830   29.5140   19.0640 O   0  0  0  0  0  0  0  0  0  0  0  0
   33.6570   29.3080   16.7820 C   0  0  2  0  0  0  0  0  0  0  0  0
   33.5650   29.8430   15.4790 O   0  0  0  0  0  0  0  0  0  0  0  0
   33.4560   27.8800   16.6300 N   0  0  0  0  0  0  0  0  0  0  0  0
   39.5676   22.7277   12.4213 H   0  0  0  0  0  0  0  0  0  0  0  0
   38.8266   21.5395   11.2962 H   0  0  0  0  0  0  0  0  0  0  0  0
   40.6057   21.7878   11.2962 H   0  0  0  0  0  0  0  0  0  0  0  0
   40.4258   23.9242   10.3011 H   0  0  0  0  0  0  0  0  0  0  0  0
   39.2181   22.8736    9.4214 H   0  0  0  0  0  0  0  0  0  0  0  0
   38.7412   25.3837   10.5314 H   0  0  0  0  0  0  0  0  0  0  0  0
   37.5200   24.1366   10.0012 H   0  0  0  0  0  0  0  0  0  0  0  0
   38.3805   23.4452   12.6222 H   0  0  0  0  0  0  0  0  0  0  0  0
   37.9719   25.2235   12.5931 H   0  0  0  0  0  0  0  0  0  0  0  0
   35.9496   23.8670   11.1464 H   0  0  0  0  0  0  0  0  0  0  0  0
   36.2514   22.9770   12.7328 H   0  0  0  0  0  0  0  0  0  0  0  0
   34.7286   25.3448   12.2416 H   0  0  0  0  0  0  0  0  0  0  0  0
   35.0254   24.3711   13.7800 H   0  0  0  0  0  0  0  0  0  0  0  0
   37.2544   26.0949   13.1995 H   0  0  0  0  0  0  0  0  0  0  0  0
   35.6683   27.0149   13.3041 H   0  0  0  0  0  0  0  0  0  0  0  0
   35.8873   25.1150   15.4657 H   0  0  0  0  0  0  0  0  0  0  0  0
   37.3178   26.2037   15.4329 H   0  0  0  0  0  0  0  0  0  0  0  0
   35.7930   28.1220   15.6210 H   0  0  0  0  0  0  0  0  0  0  0  0
   31.8111   26.0065   15.2946 H   0  0  0  0  0  0  0  0  0  0  0  0
   31.8506   25.0966   16.8029 H   0  0  0  0  0  0  0  0  0  0  0  0
   32.0457   27.0713   18.1022 H   0  0  0  0  0  0  0  0  0  0  0  0
   31.1133   28.3130   15.5262 H   0  0  0  0  0  0  0  0  0  0  0  0
   29.9880   26.5610   17.1030 H   0  0  0  0  0  0  0  0  0  0  0  0
   30.6511   29.3171   18.3331 H   0  0  0  0  0  0  0  0  0  0  0  0
   29.9720   30.0830   15.8730 H   0  0  0  0  0  0  0  0  0  0  0  0
   32.6168   31.0112   17.5991 H   0  0  0  0  0  0  0  0  0  0  0  0
   32.6710   30.2630   19.6560 H   0  0  0  0  0  0  0  0  0  0  0  0
   34.6295   29.5377   17.2419 H   0  0  0  0  0  0  0  0  0  0  0  0
   33.5440   30.8150   15.5680 H   0  0  0  0  0  0  0  0  0  0  0  0
  1  2  1  0
  2  3  1  0
  3  4  1  0
  4  5  1  0
  5  6  1  0
  6  7  1  0
  7  8  1  0
  8  9  1  0
  9 10  2  0
 10 11  1  0
 11 12  1  0
 12 13  1  0
 13 14  1  0
 14 15  1  0
 14 16  1  0
 16 17  1  0
 16 18  1  0
 18 19  1  0
 18 20  1  0
 20 21  1  0
 20 22  1  0
 22 10  1  0
 22 13  1  0
  1 23  1  0
  1 24  1  0
  1 25  1  0
  2 26  1  0
  2 27  1  0
  3 28  1  0
  3 29  1  0
  4 30  1  0
  4 31  1  0
  5 32  1  0
  5 33  1  0
  6 34  1  0
  6 35  1  0
  7 36  1  0
  7 37  1  0
  8 38  1  0
  8 39  1  0
  9 40  1  0
 12 41  1  0
 12 42  1  0
 13 43  1  1
 14 44  1  6
 15 45  1  0
 16 46  1  1
 17 47  1  0
 18 48  1  1
 19 49  1  0
 20 50  1  1
 21 51  1  0
M  CHG  1   9   1
M  END
>  <meeko>  (1) 
{"is_sidechain": [false], "free_energy": -7.778, "intermolecular_energy": -11.871, "internal_energy": -0.473}

$$$$
2wbg_ligand
     RDKit          3D

 51 52  0  0  0  0  0  0  0  0999 V2000
   39.0920   20.9590   13.9060 C   0  0  0  0  0  0  0  0  0  0  0  0
   39.7870   20.8870   12.5550 C   0  0  0  0  0  0  0  0  0  0  0  0
   38.9840   21.5320   11.4220 C   0  0  0  0  0  0  0  0  0  0  0  0
   39.4950   22.9240   11.0400 C   0  0  0  0  0  0  0  0  0  0  0  0
   38.3930   23.9890   11.0260 C   0  0  0  0  0  0  0  0  0  0  0  0
   37.2960   23.8220   12.0820 C   0  0  0  0  0  0  0  0  0  0  0  0
   36.9460   25.0830   12.8820 C   0  0  0  0  0  0  0  0  0  0  0  0
   36.9220   24.8910   14.3950 C   0  0  0  0  0  0  0  0  0  0  0  0
   36.2470   26.0330   15.0290 N   0  0  0  0  0  0  0  0  0  0  0  0
   35.0130   25.9610   15.4640 C   0  0  0  0  0  0  0  0  0  0  0  0
   34.3390   24.8140   15.3080 O   0  0  0  0  0  0  0  0  0  0  0  0
   32.9580   25.1890   15.4930 C   0  0  0  0  0  0  0  0  0  0  0  0
   33.0090   26.4230   16.3710 C   0  0  2  0  0  0  0  0  0  0  0  0
   31.9910   27.4990   16.0230 C   0  0  1  0  0  0  0  0  0  0  0  0
   30.6620   27.0210   16.2060 O   0  0  0  0  0  0  0  0  0  0  0  0
   32.2470   28.7430   16.8980 C   0  0  2  0  0  0  0  0  0  0  0  0
   31.7340   29.9050   16.2340 O   0  0  0  0  0  0  0  0  0  0  0  0
   33.7250   28.9520   17.3110 C   0  0  1  0  0  0  0  0  0  0  0  0
   33.9330   28.3900   18.6170 O   0  0  0  0  0  0  0  0  0  0  0  0
   34.7280   28.2860   16.3360 C   0  0  2  0  0  0  0  0  0  0  0  0
   34.7420   28.9450   15.0880 O   0  0  0  0  0  0  0  0  0  0  0  0
   34.3370   26.9190   16.0490 N   0  0  0  0  0  0  0  0  0  0  0  0
   39.8407   20.8814   14.7081 H   0  0  0  0  0  0  0  0  0  0  0  0
   38.5589   21.9172   13.9935 H   0  0  0  0  0  0  0  0  0  0  0  0
   38.3738   20.1305   13.9935 H   0  0  0  0  0  0  0  0  0  0  0  0
   40.7554   21.4028   12.6333 H   0  0  0  0  0  0  0  0  0  0  0  0
   39.9018   19.8218   12.3056 H   0  0  0  0  0  0  0  0  0  0  0  0
   39.0438   20.8820   10.5366 H   0  0  0  0  0  0  0  0  0  0  0  0
   37.9499   21.6488   11.7783 H   0  0  0  0  0  0  0  0  0  0  0  0
   40.2636   23.2258   11.7667 H   0  0  0  0  0  0  0  0  0  0  0  0
   39.8965   22.8557   10.0182 H   0  0  0  0  0  0  0  0  0  0  0  0
   38.8676   24.9688   11.1834 H   0  0  0  0  0  0  0  0  0  0  0  0
   37.8906   23.8886   10.0526 H   0  0  0  0  0  0  0  0  0  0  0  0
   36.3834   23.4820   11.5706 H   0  0  0  0  0  0  0  0  0  0  0  0
   37.6913   23.1024   12.8140 H   0  0  0  0  0  0  0  0  0  0  0  0
   37.6919   25.8564   12.6464 H   0  0  0  0  0  0  0  0  0  0  0  0
   35.9240   25.3641   12.5880 H   0  0  0  0  0  0  0  0  0  0  0  0
   36.3798   23.9652   14.6375 H   0  0  0  0  0  0  0  0  0  0  0  0
   37.9539   24.8239   14.7700 H   0  0  0  0  0  0  0  0  0  0  0  0
   36.7100   26.9270   15.0960 H   0  0  0  0  0  0  0  0  0  0  0  0
   32.4858   25.4197   14.5266 H   0  0  0  0  0  0  0  0  0  0  0  0
   32.3642   24.3808   15.9449 H   0  0  0  0  0  0  0  0  0  0  0  0
   32.7936   26.1839   17.4229 H   0  0  0  0  0  0  0  0  0  0  0  0
   32.1036   27.7699   14.9628 H   0  0  0  0  0  0  0  0  0  0  0  0
   30.1290   27.7550   16.5720 H   0  0  0  0  0  0  0  0  0  0  0  0
   31.7137   28.5707   17.8445 H   0  0  0  0  0  0  0  0  0  0  0  0
   31.2690   30.4770   16.8710 H   0  0  0  0  0  0  0  0  0  0  0  0
   33.9089   30.0364   17.2964 H   0  0  0  0  0  0  0  0  0  0  0  0
   34.4950   29.0090   19.1240 H   0  0  0  0  0  0  0  0  0  0  0  0
   35.7112   28.3355   16.8268 H   0  0  0  0  0  0  0  0  0  0  0  0
   34.1660   29.7290   15.1700 H   0  0  0  0  0  0  0  0  0  0  0  0
  1  2  1  0
  2  3  1  0
  3  4  1  0
  4  5  1  0
  5  6  1  0
  6  7  1  0
  7  8  1  0
  8  9  1  0
  9 10  2  0
 10 11  1  0
 11 12  1  0
 12 13  1  0
 13 14  1  0
 14 15  1  0
 14 16  1  0
 16 17  1  0
 16 18  1  0
 18 19  1  0
 18 20  1  0
 20 21  1  0
 20 22  1  0
 22 10  1  0
 22 13  1  0
  1 23  1  0
  1 24  1  0
  1 25  1  0
  2 26  1  0
  2 27  1  0
  3 28  1  0
  3 29  1  0
  4 30  1  0
  4 31  1  0
  5 32  1  0
  5 33  1  0
  6 34  1  0
  6 35  1  0
  7 36  1  0
  7 37  1  0
  8 38  1  0
  8 39  1  0
  9 40  1  0
 12 41  1  0
 12 42  1  0
 13 43  1  1
 14 44  1  6
 15 45  1  0
 16 46  1  1
 17 47  1  0
 18 48  1  1
 19 49  1  0
 20 50  1  1
 21 51  1  0
M  CHG  1   9   1
M  END
>  <meeko>  (2) 
{"is_sidechain": [false], "free_energy": -7.688, "intermolecular_energy": -11.707, "internal_energy": -0.5}

$$$$
2wbg_ligand
     RDKit          3D

 51 52  0  0  0  0  0  0  0  0999 V2000
   34.3200   29.1610   12.6750 C   0  0  0  0  0  0  0  0  0  0  0  0
   35.4100   28.1950   13.1120 C   0  0  0  0  0  0  0  0  0  0  0  0
   35.9580   28.4870   14.5120 C   0  0  0  0  0  0  0  0  0  0  0  0
   35.8450   27.2930   15.4630 C   0  0  0  0  0  0  0  0  0  0  0  0
   34.5290   27.2690   16.2490 C   0  0  0  0  0  0  0  0  0  0  0  0
   33.4600   26.3070   15.7230 C   0  0  0  0  0  0  0  0  0  0  0  0
   33.9460   24.8930   15.3840 C   0  0  0  0  0  0  0  0  0  0  0  0
   34.1560   24.6310   13.8950 C   0  0  0  0  0  0  0  0  0  0  0  0
   35.1630   23.5750   13.7150 N   0  0  0  0  0  0  0  0  0  0  0  0
   36.3390   23.8140   13.1890 C   0  0  0  0  0  0  0  0  0  0  0  0
   36.6240   25.0580   12.7830 O   0  0  0  0  0  0  0  0  0  0  0  0
   37.7630   24.8930   11.9120 C   0  0  0  0  0  0  0  0  0  0  0  0
   38.4320   23.6200   12.3910 C   0  0  2  0  0  0  0  0  0  0  0  0
   38.9900   22.7360   11.2860 C   0  0  1  0  0  0  0  0  0  0  0  0
   40.0270   23.4040   10.5740 O   0  0  0  0  0  0  0  0  0  0  0  0
   39.5120   21.4220   11.9020 C   0  0  2  0  0  0  0  0  0  0  0  0
   39.4970   20.3920   10.9060 O   0  0  0  0  0  0  0  0  0  0  0  0
   38.7660   20.9640   13.1790 C   0  0  1  0  0  0  0  0  0  0  0  0
   39.4920   21.4150   14.3350 O   0  0  0  0  0  0  0  0  0  0  0  0
   37.3220   21.5180   13.2710 C   0  0  2  0  0  0  0  0  0  0  0  0
   36.4870   20.9330   12.2950 O   0  0  0  0  0  0  0  0  0  0  0  0
   37.2990   22.9420   13.0000 N   0  0  0  0  0  0  0  0  0  0  0  0
   33.8341   29.5916   13.5630 H   0  0  0  0  0  0  0  0  0  0  0  0
   34.7644   29.9673   12.0730 H   0  0  0  0  0  0  0  0  0  0  0  0
   33.5730   28.6229   12.0730 H   0  0  0  0  0  0  0  0  0  0  0  0
   34.9956   27.1761   13.1056 H   0  0  0  0  0  0  0  0  0  0  0  0
   36.2461   28.3091   12.4064 H   0  0  0  0  0  0  0  0  0  0  0  0
   37.0189   28.7634   14.4219 H   0  0  0  0  0  0  0  0  0  0  0  0
   35.3541   29.3024   14.9367 H   0  0  0  0  0  0  0  0  0  0  0  0
   35.9163   26.3677   14.8724 H   0  0  0  0  0  0  0  0  0  0  0  0
   36.6613   27.3800   16.1951 H   0  0  0  0  0  0  0  0  0  0  0  0
   34.7597   26.9839   17.2861 H   0  0  0  0  0  0  0  0  0  0  0  0
   34.1010   28.2774   16.1489 H   0  0  0  0  0  0  0  0  0  0  0  0
   32.6767   26.2201   16.4904 H   0  0  0  0  0  0  0  0  0  0  0  0
   33.1093   26.7388   14.7740 H   0  0  0  0  0  0  0  0  0  0  0  0
   34.9034   24.7269   15.8996 H   0  0  0  0  0  0  0  0  0  0  0  0
   33.1530   24.2048   15.7119 H   0  0  0  0  0  0  0  0  0  0  0  0
   33.2058   24.3112   13.4424 H   0  0  0  0  0  0  0  0  0  0  0  0
   34.5047   25.5538   13.4083 H   0  0  0  0  0  0  0  0  0  0  0  0
   34.9470   22.6180   13.9490 H   0  0  0  0  0  0  0  0  0  0  0  0
   37.4397   24.7913   10.8655 H   0  0  0  0  0  0  0  0  0  0  0  0
   38.4416   25.7580   11.9457 H   0  0  0  0  0  0  0  0  0  0  0  0
   39.3036   23.8319   13.0277 H   0  0  0  0  0  0  0  0  0  0  0  0
   38.1878   22.5088   10.5684 H   0  0  0  0  0  0  0  0  0  0  0  0
   40.1060   24.3070   10.9430 H   0  0  0  0  0  0  0  0  0  0  0  0
   40.5406   21.6234   12.2359 H   0  0  0  0  0  0  0  0  0  0  0  0
   40.2700   20.4800   10.3200 H   0  0  0  0  0  0  0  0  0  0  0  0
   38.7038   19.8666   13.1351 H   0  0  0  0  0  0  0  0  0  0  0  0
   39.3660   20.7530   15.0450 H   0  0  0  0  0  0  0  0  0  0  0  0
   36.9701   21.2901   14.2880 H   0  0  0  0  0  0  0  0  0  0  0  0
   35.8610   20.3500   12.7640 H   0  0  0  0  0  0  0  0  0  0  0  0
  1  2  1  0
  2  3  1  0
  3  4  1  0
  4  5  1  0
  5  6  1  0
  6  7  1  0
  7  8  1  0
  8  9  1  0
  9 10  2  0
 10 11  1  0
 11 12  1  0
 12 13  1  0
 13 14  1  0
 14 15  1  0
 14 16  1  0
 16 17  1  0
 16 18  1  0
 18 19  1  0
 18 20  1  0
 20 21  1  0
 20 22  1  0
 22 10  1  0
 22 13  1  0
  1 23  1  0
  1 24  1  0
  1 25  1  0
  2 26  1  0
  2 27  1  0
  3 28  1  0
  3 29  1  0
  4 30  1  0
  4 31  1  0
  5 32  1  0
  5 33  1  0
  6 34  1  0
  6 35  1  0
  7 36  1  0
  7 37  1  0
  8 38  1  0
  8 39  1  0
  9 40  1  0
 12 41  1  0
 12 42  1  0
 13 43  1  1
 14 44  1  6
 15 45  1  0
 16 46  1  1
 17 47  1  0
 18 48  1  1
 19 49  1  0
 20 50  1  1
 21 51  1  0
M  CHG  1   9   1
M  END
>  <meeko>  (3) 
{"is_sidechain": [false], "free_energy": -7.588, "intermolecular_energy": -11.34, "internal_energy": -0.713}

$$$$
2wbg_ligand
     RDKit          3D

 51 52  0  0  0  0  0  0  0  0999 V2000
   39.0650   20.8530   13.9410 C   0  0  0  0  0  0  0  0  0  0  0  0
   39.8470   20.5770   12.6670 C   0  0  0  0  0  0  0  0  0  0  0  0
   39.2970   21.3130   11.4420 C   0  0  0  0  0  0  0  0  0  0  0  0
   39.7590   22.7700   11.3580 C   0  0  0  0  0  0  0  0  0  0  0  0
   38.7370   23.6890   10.6820 C   0  0  0  0  0  0  0  0  0  0  0  0
   37.8880   24.5460   11.6270 C   0  0  0  0  0  0  0  0  0  0  0  0
   36.8960   23.7790   12.5100 C   0  0  0  0  0  0  0  0  0  0  0  0
   37.0270   24.0570   14.0040 C   0  0  0  0  0  0  0  0  0  0  0  0
   35.7430   24.5390   14.5330 N   0  0  0  0  0  0  0  0  0  0  0  0
   35.5310   25.8030   14.8070 C   0  0  0  0  0  0  0  0  0  0  0  0
   36.5240   26.6810   14.6170 O   0  0  0  0  0  0  0  0  0  0  0  0
   36.1220   27.8390   15.3780 C   0  0  0  0  0  0  0  0  0  0  0  0
   34.6090   27.7550   15.4340 C   0  0  2  0  0  0  0  0  0  0  0  0
   33.9940   28.1770   16.7600 C   0  0  1  0  0  0  0  0  0  0  0  0
   34.2570   29.5510   17.0290 O   0  0  0  0  0  0  0  0  0  0  0  0
   32.4750   27.9110   16.7230 C   0  0  2  0  0  0  0  0  0  0  0  0
   31.9890   27.7450   18.0600 O   0  0  0  0  0  0  0  0  0  0  0  0
   32.0480   26.7200   15.8300 C   0  0  1  0  0  0  0  0  0  0  0  0
   31.6650   27.2150   14.5360 O   0  0  0  0  0  0  0  0  0  0  0  0
   33.1740   25.6750   15.6310 C   0  0  2  0  0  0  0  0  0  0  0  0
   33.4450   24.9790   16.8290 O   0  0  0  0  0  0  0  0  0  0  0  0
   34.4200   26.3230   15.2690 N   0  0  0  0  0  0  0  0  0  0  0  0
   39.6960   20.6303   14.8141 H   0  0  0  0  0  0  0  0  0  0  0  0
   38.7655   21.9112   13.9654 H   0  0  0  0  0  0  0  0  0  0  0  0
   38.1676   20.2173   13.9654 H   0  0  0  0  0  0  0  0  0  0  0  0
   40.8895   20.8913   12.8232 H   0  0  0  0  0  0  0  0  0  0  0  0
   39.7628   19.4995   12.4623 H   0  0  0  0  0  0  0  0  0  0  0  0
   39.6340   20.7864   10.5369 H   0  0  0  0  0  0  0  0  0  0  0  0
   38.2006   21.3216   11.5300 H   0  0  0  0  0  0  0  0  0  0  0  0
   39.9397   23.1389   12.3784 H   0  0  0  0  0  0  0  0  0  0  0  0
   40.6717   22.7887   10.7443 H   0  0  0  0  0  0  0  0  0  0  0  0
   39.2841   24.3669   10.0104 H   0  0  0  0  0  0  0  0  0  0  0  0
   38.0307   23.0232   10.1644 H   0  0  0  0  0  0  0  0  0  0  0  0
   38.5718   25.0986   12.2882 H   0  0  0  0  0  0  0  0  0  0  0  0
   37.2761   25.1906   10.9788 H   0  0  0  0  0  0  0  0  0  0  0  0
   35.8771   24.0526   12.1984 H   0  0  0  0  0  0  0  0  0  0  0  0
   37.1181   22.7106   12.3717 H   0  0  0  0  0  0  0  0  0  0  0  0
   37.3124   23.1309   14.5245 H   0  0  0  0  0  0  0  0  0  0  0  0
   37.7984   24.8244   14.1654 H   0  0  0  0  0  0  0  0  0  0  0  0
   35.0030   23.8880   14.7490 H   0  0  0  0  0  0  0  0  0  0  0  0
   36.5503   27.8058   16.3906 H   0  0  0  0  0  0  0  0  0  0  0  0
   36.4707   28.7780   14.9233 H   0  0  0  0  0  0  0  0  0  0  0  0
   34.1356   28.4210   14.6976 H   0  0  0  0  0  0  0  0  0  0  0  0
   34.4477   27.5871   17.5700 H   0  0  0  0  0  0  0  0  0  0  0  0
   34.0230   29.7210   17.9640 H   0  0  0  0  0  0  0  0  0  0  0  0
   32.0173   28.7932   16.2515 H   0  0  0  0  0  0  0  0  0  0  0  0
   31.3850   26.9820   18.1060 H   0  0  0  0  0  0  0  0  0  0  0  0
   31.2123   26.2218   16.3432 H   0  0  0  0  0  0  0  0  0  0  0  0
   31.8310   28.1790   14.5230 H   0  0  0  0  0  0  0  0  0  0  0  0
   32.8225   24.9936   14.8422 H   0  0  0  0  0  0  0  0  0  0  0  0
   33.0380   24.0960   16.7470 H   0  0  0  0  0  0  0  0  0  0  0  0
  1  2  1  0
  2  3  1  0
  3  4  1  0
  4  5  1  0
  5  6  1  0
  6  7  1  0
  7  8  1  0
  8  9  1  0
  9 10  2  0
 10 11  1  0
 11 12  1  0
 12 13  1  0
 13 14  1  0
 14 15  1  0
 14 16  1  0
 16 17  1  0
 16 18  1  0
 18 19  1  0
 18 20  1  0
 20 21  1  0
 20 22  1  0
 22 10  1  0
 22 13  1  0
  1 23  1  0
  1 24  1  0
  1 25  1  0
  2 26  1  0
  2 27  1  0
  3 28  1  0
  3 29  1  0
  4 30  1  0
  4 31  1  0
  5 32  1  0
  5 33  1  0
  6 34  1  0
  6 35  1  0
  7 36  1  0
  7 37  1  0
  8 38  1  0
  8 39  1  0
  9 40  1  0
 12 41  1  0
 12 42  1  0
 13 43  1  6
 14 44  1  1
 15 45  1  0
 16 46  1  6
 17 47  1  0
 18 48  1  1
 19 49  1  0
 20 50  1  6
 21 51  1  0
M  CHG  1   9   1
M  END
>  <meeko>  (4) 
{"is_sidechain": [false], "free_energy": -7.359, "intermolecular_energy": -11.094, "internal_energy": -0.609}

$$$$
2wbg_ligand
     RDKit          3D

 51 52  0  0  0  0  0  0  0  0999 V2000
   39.4080   21.0990   11.4630 C   0  0  0  0  0  0  0  0  0  0  0  0
   39.7430   20.6690   12.8830 C   0  0  0  0  0  0  0  0  0  0  0  0
   38.8090   21.2700   13.9370 C   0  0  0  0  0  0  0  0  0  0  0  0
   37.7360   22.1840   13.3400 C   0  0  0  0  0  0  0  0  0  0  0  0
   38.0070   23.6720   13.5850 C   0  0  0  0  0  0  0  0  0  0  0  0
   36.7750   24.5300   13.8870 C   0  0  0  0  0  0  0  0  0  0  0  0
   36.4290   25.5920   12.8360 C   0  0  0  0  0  0  0  0  0  0  0  0
   35.9990   26.9390   13.4080 C   0  0  0  0  0  0  0  0  0  0  0  0
   34.8270   26.7570   14.2760 N   0  0  0  0  0  0  0  0  0  0  0  0
   34.3590   27.7220   15.0290 C   0  0  0  0  0  0  0  0  0  0  0  0
   34.9840   28.9070   15.0220 O   0  0  0  0  0  0  0  0  0  0  0  0
   34.5020   29.5670   16.2120 C   0  0  0  0  0  0  0  0  0  0  0  0
   33.1450   28.9440   16.4740 C   0  0  2  0  0  0  0  0  0  0  0  0
   32.8230   28.7060   17.9420 C   0  0  1  0  0  0  0  0  0  0  0  0
   32.7630   29.9380   18.6550 O   0  0  0  0  0  0  0  0  0  0  0  0
   31.4850   27.9470   18.0520 C   0  0  2  0  0  0  0  0  0  0  0  0
   31.4460   27.2310   19.2920 O   0  0  0  0  0  0  0  0  0  0  0  0
   31.1740   27.0060   16.8620 C   0  0  1  0  0  0  0  0  0  0  0  0
   30.3330   27.6970   15.9230 O   0  0  0  0  0  0  0  0  0  0  0  0
   32.4450   26.5340   16.1130 C   0  0  2  0  0  0  0  0  0  0  0  0
   33.2110   25.6550   16.9070 O   0  0  0  0  0  0  0  0  0  0  0  0
   33.3180   27.6560   15.8220 N   0  0  0  0  0  0  0  0  0  0  0  0
   38.7322   21.9664   11.4924 H   0  0  0  0  0  0  0  0  0  0  0  0
   40.3333   21.3727   10.9349 H   0  0  0  0  0  0  0  0  0  0  0  0
   38.9163   20.2688   10.9349 H   0  0  0  0  0  0  0  0  0  0  0  0
   39.6742   19.5727   12.9407 H   0  0  0  0  0  0  0  0  0  0  0  0
   40.7572   21.0342   13.1020 H   0  0  0  0  0  0  0  0  0  0  0  0
   38.3104   20.4482   14.4718 H   0  0  0  0  0  0  0  0  0  0  0  0
   39.4261   21.8851   14.6084 H   0  0  0  0  0  0  0  0  0  0  0  0
   37.6931   22.0104   12.2546 H   0  0  0  0  0  0  0  0  0  0  0  0
   36.7849   21.9388   13.8352 H   0  0  0  0  0  0  0  0  0  0  0  0
   38.6940   23.7542   14.4401 H   0  0  0  0  0  0  0  0  0  0  0  0
   38.4198   24.0609   12.6425 H   0  0  0  0  0  0  0  0  0  0  0  0
   35.9104   23.8570   13.9845 H   0  0  0  0  0  0  0  0  0  0  0  0
   37.0148   25.0852   14.8059 H   0  0  0  0  0  0  0  0  0  0  0  0
   37.3173   25.7544   12.2078 H   0  0  0  0  0  0  0  0  0  0  0  0
   35.5666   25.2036   12.2744 H   0  0  0  0  0  0  0  0  0  0  0  0
   36.8251   27.3679   13.9942 H   0  0  0  0  0  0  0  0  0  0  0  0
   35.7395   27.6190   12.5832 H   0  0  0  0  0  0  0  0  0  0  0  0
   34.3810   25.8550   14.3510 H   0  0  0  0  0  0  0  0  0  0  0  0
   35.1816   29.3867   17.0580 H   0  0  0  0  0  0  0  0  0  0  0  0
   34.4422   30.6583   16.0877 H   0  0  0  0  0  0  0  0  0  0  0  0
   32.3256   29.5886   16.1233 H   0  0  0  0  0  0  0  0  0  0  0  0
   33.6229   28.0998   18.3923 H   0  0  0  0  0  0  0  0  0  0  0  0
   33.6260   30.3860   18.5480 H   0  0  0  0  0  0  0  0  0  0  0  0
   30.6927   28.7094   18.0199 H   0  0  0  0  0  0  0  0  0  0  0  0
   31.4720   26.2710   19.1260 H   0  0  0  0  0  0  0  0  0  0  0  0
   30.6790   26.1170   17.2799 H   0  0  0  0  0  0  0  0  0  0  0  0
   29.4170   27.6710   16.2660 H   0  0  0  0  0  0  0  0  0  0  0  0
   32.0933   26.0404   15.1950 H   0  0  0  0  0  0  0  0  0  0  0  0
   33.7600   25.1230   16.3010 H   0  0  0  0  0  0  0  0  0  0  0  0
  1  2  1  0
  2  3  1  0
  3  4  1  0
  4  5  1  0
  5  6  1  0
  6  7  1  0
  7  8  1  0
  8  9  1  0
  9 10  2  0
 10 11  1  0
 11 12  1  0
 12 13  1  0
 13 14  1  0
 14 15  1  0
 14 16  1  0
 16 17  1  0
 16 18  1  0
 18 19  1  0
 18 20  1  0
 20 21  1  0
 20 22  1  0
 22 10  1  0
 22 13  1  0
  1 23  1  0
  1 24  1  0
  1 25  1  0
  2 26  1  0
  2 27  1  0
  3 28  1  0
  3 29  1  0
  4 30  1  0
  4 31  1  0
  5 32  1  0
  5 33  1  0
  6 34  1  0
  6 35  1  0
  7 36  1  0
  7 37  1  0
  8 38  1  0
  8 39  1  0
  9 40  1  0
 12 41  1  0
 12 42  1  0
 13 43  1  6
 14 44  1  1
 15 45  1  0
 16 46  1  1
 17 47  1  0
 18 48  1  1
 19 49  1  0
 20 50  1  6
 21 51  1  0
M  CHG  1   9   1
M  END
>  <meeko>  (5) 
{"is_sidechain": [false], "free_energy": -7.32, "intermolecular_energy": -11.352, "internal_energy": -0.292}

$$$$
2wbg_ligand
     RDKit          3D

 51 52  0  0  0  0  0  0  0  0999 V2000
   38.4090   24.1600   10.6640 C   0  0  0  0  0  0  0  0  0  0  0  0
   37.9260   24.4570   12.0750 C   0  0  0  0  0  0  0  0  0  0  0  0
   38.2670   23.3540   13.0810 C   0  0  0  0  0  0  0  0  0  0  0  0
   37.4130   22.0960   12.9060 C   0  0  0  0  0  0  0  0  0  0  0  0
   35.9450   22.3030   13.2960 C   0  0  0  0  0  0  0  0  0  0  0  0
   34.9270   22.1310   12.1640 C   0  0  0  0  0  0  0  0  0  0  0  0
   34.4590   23.4250   11.4880 C   0  0  0  0  0  0  0  0  0  0  0  0
   33.5160   24.2780   12.3300 C   0  0  0  0  0  0  0  0  0  0  0  0
   34.2600   25.3940   12.9310 N   0  0  0  0  0  0  0  0  0  0  0  0
   33.7550   26.1380   13.8840 C   0  0  0  0  0  0  0  0  0  0  0  0
   32.5110   25.8830   14.3120 O   0  0  0  0  0  0  0  0  0  0  0  0
   32.1280   27.0820   15.0180 C   0  0  0  0  0  0  0  0  0  0  0  0
   33.4380   27.6920   15.4780 C   0  0  2  0  0  0  0  0  0  0  0  0
   33.4970   29.2100   15.4030 C   0  0  1  0  0  0  0  0  0  0  0  0
   32.5360   29.8010   16.2730 O   0  0  0  0  0  0  0  0  0  0  0  0
   34.9210   29.6810   15.7640 C   0  0  2  0  0  0  0  0  0  0  0  0
   35.1630   30.9620   15.1680 O   0  0  0  0  0  0  0  0  0  0  0  0
   36.0460   28.6810   15.4000 C   0  0  1  0  0  0  0  0  0  0  0  0
   36.3640   27.8890   16.5550 O   0  0  0  0  0  0  0  0  0  0  0  0
   35.6550   27.7200   14.2490 C   0  0  2  0  0  0  0  0  0  0  0  0
   35.5500   28.4070   13.0210 O   0  0  0  0  0  0  0  0  0  0  0  0
   34.3460   27.1420   14.4840 N   0  0  0  0  0  0  0  0  0  0  0  0
   39.3452   23.5843   10.7105 H   0  0  0  0  0  0  0  0  0  0  0  0
   37.6452   23.5753   10.1304 H   0  0  0  0  0  0  0  0  0  0  0  0
   38.5861   25.1055   10.1304 H   0  0  0  0  0  0  0  0  0  0  0  0
   38.3932   25.3936   12.4133 H   0  0  0  0  0  0  0  0  0  0  0  0
   36.8292   24.5299   12.0334 H   0  0  0  0  0  0  0  0  0  0  0  0
   39.3246   23.0795   12.9542 H   0  0  0  0  0  0  0  0  0  0  0  0
   38.0621   23.7521   14.0858 H   0  0  0  0  0  0  0  0  0  0  0  0
   37.4543   21.7896   11.8504 H   0  0  0  0  0  0  0  0  0  0  0  0
   37.8237   21.3265   13.5763 H   0  0  0  0  0  0  0  0  0  0  0  0
   35.6992   21.5770   14.0850 H   0  0  0  0  0  0  0  0  0  0  0  0
   35.8644   23.3526   13.6153 H   0  0  0  0  0  0  0  0  0  0  0  0
   35.3836   21.4930   11.3930 H   0  0  0  0  0  0  0  0  0  0  0  0
   34.0310   21.6955   12.6304 H   0  0  0  0  0  0  0  0  0  0  0  0
   35.3475   24.0286   11.2508 H   0  0  0  0  0  0  0  0  0  0  0  0
   33.8913   23.1221   10.5958 H   0  0  0  0  0  0  0  0  0  0  0  0
   32.7138   24.6756   11.6909 H   0  0  0  0  0  0  0  0  0  0  0  0
   33.0803   23.6592   13.1283 H   0  0  0  0  0  0  0  0  0  0  0  0
   35.1700   25.6490   12.5790 H   0  0  0  0  0  0  0  0  0  0  0  0
   31.5924   27.7718   14.3492 H   0  0  0  0  0  0  0  0  0  0  0  0
   31.4488   26.8721   15.8574 H   0  0  0  0  0  0  0  0  0  0  0  0
   33.6429   27.4699   16.5357 H   0  0  0  0  0  0  0  0  0  0  0  0
   33.2565   29.5286   14.3780 H   0  0  0  0  0  0  0  0  0  0  0  0
   32.7290   29.4930   17.1820 H   0  0  0  0  0  0  0  0  0  0  0  0
   34.9554   29.7522   16.8612 H   0  0  0  0  0  0  0  0  0  0  0  0
   34.9480   30.9360   14.2190 H   0  0  0  0  0  0  0  0  0  0  0  0
   36.9061   29.2783   15.0632 H   0  0  0  0  0  0  0  0  0  0  0  0
   36.1850   28.4310   17.3500 H   0  0  0  0  0  0  0  0  0  0  0  0
   36.4412   26.9515   14.2115 H   0  0  0  0  0  0  0  0  0  0  0  0
   34.7300   28.9350   13.0560 H   0  0  0  0  0  0  0  0  0  0  0  0
  1  2  1  0
  2  3  1  0
  3  4  1  0
  4  5  1  0
  5  6  1  0
  6  7  1  0
  7  8  1  0
  8  9  1  0
  9 10  2  0
 10 11  1  0
 11 12  1  0
 12 13  1  0
 13 14  1  0
 14 15  1  0
 14 16  1  0
 16 17  1  0
 16 18  1  0
 18 19  1  0
 18 20  1  0
 20 21  1  0
 20 22  1  0
 22 10  1  0
 22 13  1  0
  1 23  1  0
  1 24  1  0
  1 25  1  0
  2 26  1  0
  2 27  1  0
  3 28  1  0
  3 29  1  0
  4 30  1  0
  4 31  1  0
  5 32  1  0
  5 33  1  0
  6 34  1  0
  6 35  1  0
  7 36  1  0
  7 37  1  0
  8 38  1  0
  8 39  1  0
  9 40  1  0
 12 41  1  0
 12 42  1  0
 13 43  1  1
 14 44  1  6
 15 45  1  0
 16 46  1  1
 17 47  1  0
 18 48  1  6
 19 49  1  0
 20 50  1  6
 21 51  1  0
M  CHG  1   9   1
M  END
>  <meeko>  (6) 
{"is_sidechain": [false], "free_energy": -7.202, "intermolecular_energy": -10.719, "internal_energy": -0.745}

$$$$
2wbg_ligand
     RDKit          3D

 51 52  0  0  0  0  0  0  0  0999 V2000
   32.7500   22.6940   13.9690 C   0  0  0  0  0  0  0  0  0  0  0  0
   34.2700   22.6820   14.0000 C   0  0  0  0  0  0  0  0  0  0  0  0
   34.8970   21.9010   12.8420 C   0  0  0  0  0  0  0  0  0  0  0  0
   36.2890   22.4100   12.4570 C   0  0  0  0  0  0  0  0  0  0  0  0
   36.2860   23.8590   11.9590 C   0  0  0  0  0  0  0  0  0  0  0  0
   37.1230   24.8440   12.7800 C   0  0  0  0  0  0  0  0  0  0  0  0
   36.3420   25.9750   13.4610 C   0  0  0  0  0  0  0  0  0  0  0  0
   36.4290   25.9830   14.9840 C   0  0  0  0  0  0  0  0  0  0  0  0
   35.5990   27.0690   15.5220 N   0  0  0  0  0  0  0  0  0  0  0  0
   34.3870   26.8630   15.9760 C   0  0  0  0  0  0  0  0  0  0  0  0
   33.8820   25.6230   15.9280 O   0  0  0  0  0  0  0  0  0  0  0  0
   32.4610   25.8130   16.0950 C   0  0  0  0  0  0  0  0  0  0  0  0
   32.3360   27.1150   16.8610 C   0  0  2  0  0  0  0  0  0  0  0  0
   31.1760   28.0010   16.4310 C   0  0  1  0  0  0  0  0  0  0  0  0
   29.9280   27.3580   16.6710 O   0  0  0  0  0  0  0  0  0  0  0  0
   31.2520   29.3410   17.1920 C   0  0  2  0  0  0  0  0  0  0  0  0
   30.5800   30.3560   16.4340 O   0  0  0  0  0  0  0  0  0  0  0  0
   32.6850   29.7920   17.5680 C   0  0  1  0  0  0  0  0  0  0  0  0
   32.9680   29.3830   18.9160 O   0  0  0  0  0  0  0  0  0  0  0  0
   33.7730   29.1920   16.6430 C   0  0  2  0  0  0  0  0  0  0  0  0
   33.6950   29.7330   15.3420 O   0  0  0  0  0  0  0  0  0  0  0  0
   33.5810   27.7630   16.4820 N   0  0  0  0  0  0  0  0  0  0  0  0
   32.3623   22.6971   14.9984 H   0  0  0  0  0  0  0  0  0  0  0  0
   32.4011   23.5949   13.4431 H   0  0  0  0  0  0  0  0  0  0  0  0
   32.3869   21.7987   13.4431 H   0  0  0  0  0  0  0  0  0  0  0  0
   34.6277   23.7212   13.9534 H   0  0  0  0  0  0  0  0  0  0  0  0
   34.5713   22.1791   14.9308 H   0  0  0  0  0  0  0  0  0  0  0  0
   34.9799   20.8445   13.1368 H   0  0  0  0  0  0  0  0  0  0  0  0
   34.2454   22.0347   11.9659 H   0  0  0  0  0  0  0  0  0  0  0  0
   36.9414   22.3453   13.3403 H   0  0  0  0  0  0  0  0  0  0  0  0
   36.6495   21.7810   11.6297 H   0  0  0  0  0  0  0  0  0  0  0  0
   36.6724   23.8634   10.9291 H   0  0  0  0  0  0  0  0  0  0  0  0
   35.2452   24.2042   12.0459 H   0  0  0  0  0  0  0  0  0  0  0  0
   37.6438   24.2738   13.5633 H   0  0  0  0  0  0  0  0  0  0  0  0
   37.7969   25.3351   12.0626 H   0  0  0  0  0  0  0  0  0  0  0  0
   36.7342   26.9336   13.0904 H   0  0  0  0  0  0  0  0  0  0  0  0
   35.2827   25.8150   13.2113 H   0  0  0  0  0  0  0  0  0  0  0  0
   36.0698   25.0199   15.3758 H   0  0  0  0  0  0  0  0  0  0  0  0
   37.4746   26.1389   15.2882 H   0  0  0  0  0  0  0  0  0  0  0  0
   35.9300   28.0220   15.5060 H   0  0  0  0  0  0  0  0  0  0  0  0
   31.9619   25.8881   15.1176 H   0  0  0  0  0  0  0  0  0  0  0  0
   31.9871   24.9720   16.6223 H   0  0  0  0  0  0  0  0  0  0  0  0
   32.1557   26.9423   17.9323 H   0  0  0  0  0  0  0  0  0  0  0  0
   31.2500   28.1901   15.3499 H   0  0  0  0  0  0  0  0  0  0  0  0
   30.0890   26.3930   16.6860 H   0  0  0  0  0  0  0  0  0  0  0  0
   30.7477   29.1794   18.1562 H   0  0  0  0  0  0  0  0  0  0  0  0
   29.7490   30.6080   16.8750 H   0  0  0  0  0  0  0  0  0  0  0  0
   32.7145   30.8859   17.4565 H   0  0  0  0  0  0  0  0  0  0  0  0
   33.6450   29.9910   19.2770 H   0  0  0  0  0  0  0  0  0  0  0  0
   34.7386   29.4245   17.1158 H   0  0  0  0  0  0  0  0  0  0  0  0
   33.0180   30.4350   15.3630 H   0  0  0  0  0  0  0  0  0  0  0  0
  1  2  1  0
  2  3  1  0
  3  4  1  0
  4  5  1  0
  5  6  1  0
  6  7  1  0
  7  8  1  0
  8  9  1  0
  9 10  2  0
 10 11  1  0
 11 12  1  0
 12 13  1  0
 13 14  1  0
 14 15  1  0
 14 16  1  0
 16 17  1  0
 16 18  1  0
 18 19  1  0
 18 20  1  0
 20 21  1  0
 20 22  1  0
 22 10  1  0
 22 13  1  0
  1 23  1  0
  1 24  1  0
  1 25  1  0
  2 26  1  0
  2 27  1  0
  3 28  1  0
  3 29  1  0
  4 30  1  0
  4 31  1  0
  5 32  1  0
  5 33  1  0
  6 34  1  0
  6 35  1  0
  7 36  1  0
  7 37  1  0
  8 38  1  0
  8 39  1  0
  9 40  1  0
 12 41  1  0
 12 42  1  0
 13 43  1  1
 14 44  1  6
 15 45  1  0
 16 46  1  1
 17 47  1  0
 18 48  1  1
 19 49  1  0
 20 50  1  1
 21 51  1  0
M  CHG  1   9   1
M  END
>  <meeko>  (7) 
{"is_sidechain": [false], "free_energy": -7.16, "intermolecular_energy": -10.694, "internal_energy": -0.705}

$$$$
2wbg_ligand
     RDKit          3D

 51 52  0  0  0  0  0  0  0  0999 V2000
   30.3660   29.5120   17.0710 C   0  0  0  0  0  0  0  0  0  0  0  0
   31.2810   28.7630   18.0270 C   0  0  0  0  0  0  0  0  0  0  0  0
   31.6470   27.3570   17.5450 C   0  0  0  0  0  0  0  0  0  0  0  0
   31.3450   27.1320   16.0620 C   0  0  0  0  0  0  0  0  0  0  0  0
   32.6060   26.9510   15.2100 C   0  0  0  0  0  0  0  0  0  0  0  0
   33.8650   26.5210   15.9700 C   0  0  0  0  0  0  0  0  0  0  0  0
   34.3350   25.0840   15.7180 C   0  0  0  0  0  0  0  0  0  0  0  0
   34.1410   24.5910   14.2880 C   0  0  0  0  0  0  0  0  0  0  0  0
   35.1380   23.5550   13.9810 N   0  0  0  0  0  0  0  0  0  0  0  0
   36.2800   23.8330   13.4040 C   0  0  0  0  0  0  0  0  0  0  0  0
   36.5390   25.1030   13.0640 O   0  0  0  0  0  0  0  0  0  0  0  0
   37.6250   25.0010   12.1180 C   0  0  0  0  0  0  0  0  0  0  0  0
   38.3230   23.7040   12.4740 C   0  0  2  0  0  0  0  0  0  0  0  0
   38.8170   22.8960   11.2830 C   0  0  1  0  0  0  0  0  0  0  0  0
   39.8100   23.6150   10.5570 O   0  0  0  0  0  0  0  0  0  0  0  0
   39.3770   21.5480   11.7810 C   0  0  2  0  0  0  0  0  0  0  0  0
   39.3060   20.5840   10.7230 O   0  0  0  0  0  0  0  0  0  0  0  0
   38.7090   21.0040   13.0680 C   0  0  1  0  0  0  0  0  0  0  0  0
   39.4990   21.3830   14.2060 O   0  0  0  0  0  0  0  0  0  0  0  0
   37.2710   21.5420   13.2790 C   0  0  2  0  0  0  0  0  0  0  0  0
   36.3820   21.0180   12.3180 O   0  0  0  0  0  0  0  0  0  0  0  0
   37.2300   22.9810   13.1030 N   0  0  0  0  0  0  0  0  0  0  0  0
   29.6408   30.1056   17.6470 H   0  0  0  0  0  0  0  0  0  0  0  0
   30.9665   30.1811   16.4372 H   0  0  0  0  0  0  0  0  0  0  0  0
   29.8287   28.7911   16.4372 H   0  0  0  0  0  0  0  0  0  0  0  0
   32.2083   29.3423   18.1474 H   0  0  0  0  0  0  0  0  0  0  0  0
   30.7350   28.6485   18.9751 H   0  0  0  0  0  0  0  0  0  0  0  0
   32.7230   27.1994   17.7108 H   0  0  0  0  0  0  0  0  0  0  0  0
   31.0330   26.6449   18.1159 H   0  0  0  0  0  0  0  0  0  0  0  0
   30.7246   26.2289   15.9646 H   0  0  0  0  0  0  0  0  0  0  0  0
   30.8277   28.0302   15.6937 H   0  0  0  0  0  0  0  0  0  0  0  0
   32.3928   26.1859   14.4489 H   0  0  0  0  0  0  0  0  0  0  0  0
   32.8315   27.9438   14.7934 H   0  0  0  0  0  0  0  0  0  0  0  0
   34.6818   27.1992   15.6820 H   0  0  0  0  0  0  0  0  0  0  0  0
   33.6018   26.5677   17.0370 H   0  0  0  0  0  0  0  0  0  0  0  0
   35.4071   25.0273   15.9574 H   0  0  0  0  0  0  0  0  0  0  0  0
   33.7141   24.4379   16.3560 H   0  0  0  0  0  0  0  0  0  0  0  0
   33.1307   24.1694   14.1806 H   0  0  0  0  0  0  0  0  0  0  0  0
   34.2657   25.4338   13.5922 H   0  0  0  0  0  0  0  0  0  0  0  0
   34.9380   22.5830   14.1640 H   0  0  0  0  0  0  0  0  0  0  0  0
   37.2404   24.9648   11.0880 H   0  0  0  0  0  0  0  0  0  0  0  0
   38.3028   25.8660   12.1668 H   0  0  0  0  0  0  0  0  0  0  0  0
   39.2297   23.8801   13.0713 H   0  0  0  0  0  0  0  0  0  0  0  0
   37.9747   22.7109   10.6002 H   0  0  0  0  0  0  0  0  0  0  0  0
   40.2240   22.9940    9.9240 H   0  0  0  0  0  0  0  0  0  0  0  0
   40.4230   21.7338   12.0663 H   0  0  0  0  0  0  0  0  0  0  0  0
   38.7100   19.8550   10.9720 H   0  0  0  0  0  0  0  0  0  0  0  0
   38.6483   19.9113   12.9573 H   0  0  0  0  0  0  0  0  0  0  0  0
   40.0980   20.6390   14.4170 H   0  0  0  0  0  0  0  0  0  0  0  0
   36.9791   21.2455   14.2973 H   0  0  0  0  0  0  0  0  0  0  0  0
   35.4850   21.3160   12.5620 H   0  0  0  0  0  0  0  0  0  0  0  0
  1  2  1  0
  2  3  1  0
  3  4  1  0
  4  5  1  0
  5  6  1  0
  6  7  1  0
  7  8  1  0
  8  9  1  0
  9 10  2  0
 10 11  1  0
 11 12  1  0
 12 13  1  0
 13 14  1  0
 14 15  1  0
 14 16  1  0
 16 17  1  0
 16 18  1  0
 18 19  1  0
 18 20  1  0
 20 21  1  0
 20 22  1  0
 22 10  1  0
 22 13  1  0
  1 23  1  0
  1 24  1  0
  1 25  1  0
  2 26  1  0
  2 27  1  0
  3 28  1  0
  3 29  1  0
  4 30  1  0
  4 31  1  0
  5 32  1  0
  5 33  1  0
  6 34  1  0
  6 35  1  0
  7 36  1  0
  7 37  1  0
  8 38  1  0
  8 39  1  0
  9 40  1  0
 12 41  1  0
 12 42  1  0
 13 43  1  1
 14 44  1  6
 15 45  1  0
 16 46  1  1
 17 47  1  0
 18 48  1  6
 19 49  1  0
 20 50  1  1
 21 51  1  0
M  CHG  1   9   1
M  END
>  <meeko>  (8) 
{"is_sidechain": [false], "free_energy": -7.118, "intermolecular_energy": -10.883, "internal_energy": -0.452}

$$$$
2wbg_ligand
     RDKit          3D

 51 52  0  0  0  0  0  0  0  0999 V2000
   33.0390   21.1630    8.9670 C   0  0  0  0  0  0  0  0  0  0  0  0
   33.3900   22.6370    9.0950 C   0  0  0  0  0  0  0  0  0  0  0  0
   33.7200   23.0640   10.5280 C   0  0  0  0  0  0  0  0  0  0  0  0
   32.7300   22.5180   11.5600 C   0  0  0  0  0  0  0  0  0  0  0  0
   32.1890   23.5960   12.5060 C   0  0  0  0  0  0  0  0  0  0  0  0
   32.1220   23.2070   13.9860 C   0  0  0  0  0  0  0  0  0  0  0  0
   33.0040   24.0320   14.9310 C   0  0  0  0  0  0  0  0  0  0  0  0
   34.2280   24.6610   14.2730 C   0  0  0  0  0  0  0  0  0  0  0  0
   35.2140   23.6170   13.9590 N   0  0  0  0  0  0  0  0  0  0  0  0
   36.3490   23.8850   13.3630 C   0  0  0  0  0  0  0  0  0  0  0  0
   36.6100   25.1500   13.0090 O   0  0  0  0  0  0  0  0  0  0  0  0
   37.6810   25.0350   12.0480 C   0  0  0  0  0  0  0  0  0  0  0  0
   38.3770   23.7360   12.4030 C   0  0  2  0  0  0  0  0  0  0  0  0
   38.8490   22.9160   11.2120 C   0  0  1  0  0  0  0  0  0  0  0  0
   39.8340   23.6240   10.4650 O   0  0  0  0  0  0  0  0  0  0  0  0
   39.4080   21.5690   11.7120 C   0  0  2  0  0  0  0  0  0  0  0  0
   39.3160   20.5970   10.6620 O   0  0  0  0  0  0  0  0  0  0  0  0
   38.7560   21.0390   13.0120 C   0  0  1  0  0  0  0  0  0  0  0  0
   39.5660   21.4230   14.1360 O   0  0  0  0  0  0  0  0  0  0  0  0
   37.3250   21.5870   13.2410 C   0  0  2  0  0  0  0  0  0  0  0  0
   36.4180   21.0600   12.2970 O   0  0  0  0  0  0  0  0  0  0  0  0
   37.2890   23.0250   13.0550 N   0  0  0  0  0  0  0  0  0  0  0  0
   32.9341   20.7227    9.9695 H   0  0  0  0  0  0  0  0  0  0  0  0
   32.0908   21.0581    8.4194 H   0  0  0  0  0  0  0  0  0  0  0  0
   33.8382   20.6420    8.4194 H   0  0  0  0  0  0  0  0  0  0  0  0
   34.2644   22.8431    8.4602 H   0  0  0  0  0  0  0  0  0  0  0  0
   32.5037   23.2090    8.7829 H   0  0  0  0  0  0  0  0  0  0  0  0
   34.7261   22.6973   10.7797 H   0  0  0  0  0  0  0  0  0  0  0  0
   33.6607   24.1618   10.5652 H   0  0  0  0  0  0  0  0  0  0  0  0
   31.8823   22.0643   11.0256 H   0  0  0  0  0  0  0  0  0  0  0  0
   33.2706   21.7839   12.1755 H   0  0  0  0  0  0  0  0  0  0  0  0
   32.8379   24.4799   12.4178 H   0  0  0  0  0  0  0  0  0  0  0  0
   31.1490   23.7738   12.1950 H   0  0  0  0  0  0  0  0  0  0  0  0
   31.0786   23.3152   14.3170 H   0  0  0  0  0  0  0  0  0  0  0  0
   32.5035   22.1768   14.0428 H   0  0  0  0  0  0  0  0  0  0  0  0
   32.3897   24.8399   15.3552 H   0  0  0  0  0  0  0  0  0  0  0  0
   33.3841   23.3332   15.6908 H   0  0  0  0  0  0  0  0  0  0  0  0
   33.9243   25.1678   13.3452 H   0  0  0  0  0  0  0  0  0  0  0  0
   34.6775   25.3905   14.9627 H   0  0  0  0  0  0  0  0  0  0  0  0
   35.0110   22.6480   14.1530 H   0  0  0  0  0  0  0  0  0  0  0  0
   37.2810   24.9938   11.0241 H   0  0  0  0  0  0  0  0  0  0  0  0
   38.3644   25.8963   12.0806 H   0  0  0  0  0  0  0  0  0  0  0  0
   39.2942   23.9110   12.9845 H   0  0  0  0  0  0  0  0  0  0  0  0
   37.9958   22.7297   10.5432 H   0  0  0  0  0  0  0  0  0  0  0  0
   39.8450   24.5480   10.7870 H   0  0  0  0  0  0  0  0  0  0  0  0
   40.4591   21.7507   11.9807 H   0  0  0  0  0  0  0  0  0  0  0  0
   39.4440   21.0260    9.7970 H   0  0  0  0  0  0  0  0  0  0  0  0
   38.6868   19.9459   12.9101 H   0  0  0  0  0  0  0  0  0  0  0  0
   39.5410   22.3980   14.2040 H   0  0  0  0  0  0  0  0  0  0  0  0
   37.0472   21.3003   14.2660 H   0  0  0  0  0  0  0  0  0  0  0  0
   36.6640   21.4260   11.4270 H   0  0  0  0  0  0  0  0  0  0  0  0
  1  2  1  0
  2  3  1  0
  3  4  1  0
  4  5  1  0
  5  6  1  0
  6  7  1  0
  7  8  1  0
  8  9  1  0
  9 10  2  0
 10 11  1  0
 11 12  1  0
 12 13  1  0
 13 14  1  0
 14 15  1  0
 14 16  1  0
 16 17  1  0
 16 18  1  0
 18 19  1  0
 18 20  1  0
 20 21  1  0
 20 22  1  0
 22 10  1  0
 22 13  1  0
  1 23  1  0
  1 24  1  0
  1 25  1  0
  2 26  1  0
  2 27  1  0
  3 28  1  0
  3 29  1  0
  4 30  1  0
  4 31  1  0
  5 32  1  0
  5 33  1  0
  6 34  1  0
  6 35  1  0
  7 36  1  0
  7 37  1  0
  8 38  1  0
  8 39  1  0
  9 40  1  0
 12 41  1  0
 12 42  1  0
 13 43  1  1
 14 44  1  6
 15 45  1  0
 16 46  1  1
 17 47  1  0
 18 48  1  6
 19 49  1  0
 20 50  1  1
 21 51  1  0
M  CHG  1   9   1
M  END
>  <meeko>  (9) 
{"is_sidechain": [false], "free_energy": -6.978, "intermolecular_energy": -10.507, "internal_energy": -0.616}

$$$$
