2w66_ligand
     RDKit          3D

 35 35  0  0  0  0  0  0  0  0999 V2000
    7.5670  -10.1850    7.4250 C   0  0  0  0  0  0  0  0  0  0  0  0
    6.7280  -10.3030    6.1840 C   0  0  0  0  0  0  0  0  0  0  0  0
    5.6230   -9.7850    6.0670 O   0  0  0  0  0  0  0  0  0  0  0  0
    7.3120  -11.0110    5.1520 N   0  0  0  0  0  0  0  0  0  0  0  0
    6.6260  -11.1660    3.8420 C   0  0  2  0  0  0  0  0  0  0  0  0
    5.6950  -12.3960    3.9210 C   0  0  1  0  0  0  0  0  0  0  0  0
    4.4060  -11.9950    3.4180 O   0  0  0  0  0  0  0  0  0  0  0  0
    6.0640  -13.6820    3.1400 C   0  0  2  0  0  0  0  0  0  0  0  0
    7.1370  -14.3490    3.8320 O   0  0  0  0  0  0  0  0  0  0  0  0
    6.4560  -13.5530    1.6580 C   0  0  1  0  0  0  0  0  0  0  0  0
    5.8890  -14.6540    0.7400 C   0  0  0  0  0  0  0  0  0  0  0  0
    5.5970  -15.7980    1.5490 O   0  0  0  0  0  0  0  0  0  0  0  0
    6.1720  -12.2010    1.0440 N   0  0  0  0  0  0  0  0  0  0  0  0
    7.0920  -11.0580    1.2720 C   0  0  0  0  0  0  0  0  0  0  0  0
    7.6540  -11.1100    2.6860 C   0  0  1  0  0  0  0  0  0  0  0  0
    8.4240   -9.8970    2.8130 O   0  0  0  0  0  0  0  0  0  0  0  0
    6.9236  -10.2755    8.3126 H   0  0  0  0  0  0  0  0  0  0  0  0
    8.3209  -10.9860    7.4354 H   0  0  0  0  0  0  0  0  0  0  0  0
    8.0707   -9.2072    7.4354 H   0  0  0  0  0  0  0  0  0  0  0  0
    8.3200  -11.1320    5.2020 H   0  0  0  0  0  0  0  0  0  0  0  0
    5.9566  -10.3261    3.6045 H   0  0  0  0  0  0  0  0  0  0  0  0
    5.7581  -12.6826    4.9811 H   0  0  0  0  0  0  0  0  0  0  0  0
    3.7250  -12.5550    3.8420 H   0  0  0  0  0  0  0  0  0  0  0  0
    5.1178  -14.2423    3.1137 H   0  0  0  0  0  0  0  0  0  0  0  0
    7.8900  -14.4200    3.2090 H   0  0  0  0  0  0  0  0  0  0  0  0
    7.5471  -13.6826    1.7095 H   0  0  0  0  0  0  0  0  0  0  0  0
    4.9697  -14.2969    0.2528 H   0  0  0  0  0  0  0  0  0  0  0  0
    6.6194  -14.9143   -0.0403 H   0  0  0  0  0  0  0  0  0  0  0  0
    6.2970  -15.8610    2.2310 H   0  0  0  0  0  0  0  0  0  0  0  0
    6.0470  -12.3290    0.0330 H   0  0  0  0  0  0  0  0  0  0  0  0
    5.2170  -11.9240    1.3650 H   0  0  0  0  0  0  0  0  0  0  0  0
    7.9201  -11.1083    0.5497 H   0  0  0  0  0  0  0  0  0  0  0  0
    6.5361  -10.1179    1.1408 H   0  0  0  0  0  0  0  0  0  0  0  0
    8.2140  -12.0509    2.7913 H   0  0  0  0  0  0  0  0  0  0  0  0
    8.2240   -9.5020    3.6970 H   0  0  0  0  0  0  0  0  0  0  0  0
  1  2  1  0
  2  3  2  0
  2  4  1  0
  4  5  1  0
  5  6  1  0
  6  7  1  0
  6  8  1  0
  8  9  1  0
  8 10  1  0
 10 11  1  0
 11 12  1  0
 10 13  1  0
 13 14  1  0
 14 15  1  0
 15 16  1  0
 15  5  1  0
  1 17  1  0
  1 18  1  0
  1 19  1  0
  4 20  1  0
  5 21  1  6
  6 22  1  1
  7 23  1  0
  8 24  1  6
  9 25  1  0
 10 26  1  1
 11 27  1  0
 11 28  1  0
 12 29  1  0
 13 30  1  0
 13 31  1  0
 14 32  1  0
 14 33  1  0
 15 34  1  6
 16 35  1  0
M  CHG  1  13   1
M  END
>  <meeko>  (1) 
{"is_sidechain": [false], "free_energy": -5.901, "intermolecular_energy": -9.35, "internal_energy": 0.061}

$$$$
2w66_ligand
     RDKit          3D

 35 35  0  0  0  0  0  0  0  0999 V2000
    6.8460  -16.2310    3.1990 C   0  0  0  0  0  0  0  0  0  0  0  0
    7.0240  -15.0240    2.3220 C   0  0  0  0  0  0  0  0  0  0  0  0
    7.0140  -15.0750    1.0960 O   0  0  0  0  0  0  0  0  0  0  0  0
    7.1600  -13.8280    2.9980 N   0  0  0  0  0  0  0  0  0  0  0  0
    7.2890  -12.5410    2.2650 C   0  0  2  0  0  0  0  0  0  0  0  0
    8.2630  -11.6300    3.0440 C   0  0  1  0  0  0  0  0  0  0  0  0
    8.2210  -10.3270    2.4290 O   0  0  0  0  0  0  0  0  0  0  0  0
    8.0330  -11.3840    4.5560 C   0  0  2  0  0  0  0  0  0  0  0  0
    8.6050  -12.4800    5.2930 O   0  0  0  0  0  0  0  0  0  0  0  0
    6.5910  -11.1720    5.0530 C   0  0  1  0  0  0  0  0  0  0  0  0
    6.4630  -10.2910    6.3100 C   0  0  0  0  0  0  0  0  0  0  0  0
    7.7670  -10.1430    6.8830 O   0  0  0  0  0  0  0  0  0  0  0  0
    5.6250  -10.6780    4.0000 N   0  0  0  0  0  0  0  0  0  0  0  0
    4.9620  -11.6310    3.0750 C   0  0  0  0  0  0  0  0  0  0  0  0
    5.8900  -11.9750    1.9190 C   0  0  1  0  0  0  0  0  0  0  0  0
    6.0600  -10.7300    1.2120 O   0  0  0  0  0  0  0  0  0  0  0  0
    6.8909  -15.9267    4.2551 H   0  0  0  0  0  0  0  0  0  0  0  0
    5.8699  -16.6939    2.9920 H   0  0  0  0  0  0  0  0  0  0  0  0
    7.6469  -16.9560    2.9920 H   0  0  0  0  0  0  0  0  0  0  0  0
    6.8480  -13.8190    3.9650 H   0  0  0  0  0  0  0  0  0  0  0  0
    7.7501  -12.6560    1.2729 H   0  0  0  0  0  0  0  0  0  0  0  0
    9.2113  -12.1849    2.9911 H   0  0  0  0  0  0  0  0  0  0  0  0
    7.2960  -10.0080    2.4520 H   0  0  0  0  0  0  0  0  0  0  0  0
    8.5179  -10.4123    4.7314 H   0  0  0  0  0  0  0  0  0  0  0  0
    8.2960  -13.3100    4.8750 H   0  0  0  0  0  0  0  0  0  0  0  0
    6.3021  -12.1975    5.3267 H   0  0  0  0  0  0  0  0  0  0  0  0
    6.0623   -9.3043    6.0347 H   0  0  0  0  0  0  0  0  0  0  0  0
    5.7786  -10.7568    7.0343 H   0  0  0  0  0  0  0  0  0  0  0  0
    7.7790   -9.2910    7.3660 H   0  0  0  0  0  0  0  0  0  0  0  0
    4.9060  -10.1140    4.4670 H   0  0  0  0  0  0  0  0  0  0  0  0
    6.1440   -9.9720    3.4300 H   0  0  0  0  0  0  0  0  0  0  0  0
    4.7073  -12.5506    3.6222 H   0  0  0  0  0  0  0  0  0  0  0  0
    4.0487  -11.1660    2.6753 H   0  0  0  0  0  0  0  0  0  0  0  0
    5.4220  -12.7980    1.3589 H   0  0  0  0  0  0  0  0  0  0  0  0
    6.9040  -10.7830    0.7000 H   0  0  0  0  0  0  0  0  0  0  0  0
  1  2  1  0
  2  3  2  0
  2  4  1  0
  4  5  1  0
  5  6  1  0
  6  7  1  0
  6  8  1  0
  8  9  1  0
  8 10  1  0
 10 11  1  0
 11 12  1  0
 10 13  1  0
 13 14  1  0
 14 15  1  0
 15 16  1  0
 15  5  1  0
  1 17  1  0
  1 18  1  0
  1 19  1  0
  4 20  1  0
  5 21  1  6
  6 22  1  1
  7 23  1  0
  8 24  1  1
  9 25  1  0
 10 26  1  1
 11 27  1  0
 11 28  1  0
 12 29  1  0
 13 30  1  0
 13 31  1  0
 14 32  1  0
 14 33  1  0
 15 34  1  6
 16 35  1  0
M  CHG  1  13   1
M  END
>  <meeko>  (2) 
{"is_sidechain": [false], "free_energy": -5.511, "intermolecular_energy": -8.457, "internal_energy": -0.214}

$$$$
2w66_ligand
     RDKit          3D

 35 35  0  0  0  0  0  0  0  0999 V2000
    7.1240  -17.1980    3.4330 C   0  0  0  0  0  0  0  0  0  0  0  0
    7.0790  -15.8210    2.8330 C   0  0  0  0  0  0  0  0  0  0  0  0
    7.5750  -15.5450    1.7460 O   0  0  0  0  0  0  0  0  0  0  0  0
    6.3940  -14.8830    3.5790 N   0  0  0  0  0  0  0  0  0  0  0  0
    6.2190  -13.4910    3.0890 C   0  0  2  0  0  0  0  0  0  0  0  0
    6.5730  -12.5200    4.2360 C   0  0  1  0  0  0  0  0  0  0  0  0
    7.8660  -12.9040    4.7440 O   0  0  0  0  0  0  0  0  0  0  0  0
    6.6750  -11.0010    3.9470 C   0  0  2  0  0  0  0  0  0  0  0  0
    5.8630  -10.2950    4.9030 O   0  0  0  0  0  0  0  0  0  0  0  0
    6.3070  -10.4970    2.5400 C   0  0  1  0  0  0  0  0  0  0  0  0
    7.3370  -10.8300    1.4430 C   0  0  0  0  0  0  0  0  0  0  0  0
    8.6040  -10.3030    1.8490 O   0  0  0  0  0  0  0  0  0  0  0  0
    4.9290  -10.8990    2.0650 N   0  0  0  0  0  0  0  0  0  0  0  0
    4.7110  -12.2060    1.3960 C   0  0  0  0  0  0  0  0  0  0  0  0
    4.8380  -13.3300    2.4070 C   0  0  1  0  0  0  0  0  0  0  0  0
    4.5520  -14.5300    1.6600 O   0  0  0  0  0  0  0  0  0  0  0  0
    7.1215  -17.1201    4.5302 H   0  0  0  0  0  0  0  0  0  0  0  0
    6.2441  -17.7703    3.1040 H   0  0  0  0  0  0  0  0  0  0  0  0
    8.0394  -17.7116    3.1040 H   0  0  0  0  0  0  0  0  0  0  0  0
    5.7590  -15.2450    4.2850 H   0  0  0  0  0  0  0  0  0  0  0  0
    6.9165  -13.2300    2.2794 H   0  0  0  0  0  0  0  0  0  0  0  0
    5.7119  -12.6197    4.9132 H   0  0  0  0  0  0  0  0  0  0  0  0
    8.0540  -13.8160    4.4430 H   0  0  0  0  0  0  0  0  0  0  0  0
    7.7535  -10.7996    4.0257 H   0  0  0  0  0  0  0  0  0  0  0  0
    4.9250  -10.4840    4.6910 H   0  0  0  0  0  0  0  0  0  0  0  0
    6.3123   -9.4074    2.6906 H   0  0  0  0  0  0  0  0  0  0  0  0
    7.4094  -11.9205    1.3180 H   0  0  0  0  0  0  0  0  0  0  0  0
    7.0294  -10.3874    0.4841 H   0  0  0  0  0  0  0  0  0  0  0  0
    8.4290   -9.5050    2.3890 H   0  0  0  0  0  0  0  0  0  0  0  0
    4.2820  -10.8190    2.8580 H   0  0  0  0  0  0  0  0  0  0  0  0
    4.6050  -10.1410    1.4220 H   0  0  0  0  0  0  0  0  0  0  0  0
    3.7044  -12.2257    0.9529 H   0  0  0  0  0  0  0  0  0  0  0  0
    5.4664  -12.3403    0.6078 H   0  0  0  0  0  0  0  0  0  0  0  0
    4.1547  -13.1113    3.2408 H   0  0  0  0  0  0  0  0  0  0  0  0
    3.6950  -14.8970    1.9890 H   0  0  0  0  0  0  0  0  0  0  0  0
  1  2  1  0
  2  3  2  0
  2  4  1  0
  4  5  1  0
  5  6  1  0
  6  7  1  0
  6  8  1  0
  8  9  1  0
  8 10  1  0
 10 11  1  0
 11 12  1  0
 10 13  1  0
 13 14  1  0
 14 15  1  0
 15 16  1  0
 15  5  1  0
  1 17  1  0
  1 18  1  0
  1 19  1  0
  4 20  1  0
  5 21  1  6
  6 22  1  1
  7 23  1  0
  8 24  1  1
  9 25  1  0
 10 26  1  1
 11 27  1  0
 11 28  1  0
 12 29  1  0
 13 30  1  0
 13 31  1  0
 14 32  1  0
 14 33  1  0
 15 34  1  1
 16 35  1  0
M  CHG  1  13   1
M  END
>  <meeko>  (3) 
{"is_sidechain": [false], "free_energy": -5.186, "intermolecular_energy": -8.378, "internal_energy": 0.223}

$$$$
2w66_ligand
     RDKit          3D

 35 35  0  0  0  0  0  0  0  0999 V2000
    5.6270  -18.7690    1.3650 C   0  0  0  0  0  0  0  0  0  0  0  0
    5.9800  -17.3400    1.0580 C   0  0  0  0  0  0  0  0  0  0  0  0
    6.5110  -16.9890    0.0100 O   0  0  0  0  0  0  0  0  0  0  0  0
    5.6220  -16.4300    2.0320 N   0  0  0  0  0  0  0  0  0  0  0  0
    5.8570  -14.9750    1.8470 C   0  0  2  0  0  0  0  0  0  0  0  0
    6.3040  -14.3750    3.1990 C   0  0  1  0  0  0  0  0  0  0  0  0
    7.1310  -15.3570    3.8540 O   0  0  0  0  0  0  0  0  0  0  0  0
    7.1250  -13.0620    3.2170 C   0  0  2  0  0  0  0  0  0  0  0  0
    7.4130  -12.7180    4.5850 O   0  0  0  0  0  0  0  0  0  0  0  0
    6.5360  -11.8200    2.5240 C   0  0  1  0  0  0  0  0  0  0  0  0
    7.5590  -10.7140    2.2000 C   0  0  0  0  0  0  0  0  0  0  0  0
    7.0370   -9.9280    1.1240 O   0  0  0  0  0  0  0  0  0  0  0  0
    5.7160  -12.1140    1.2880 N   0  0  0  0  0  0  0  0  0  0  0  0
    4.4240  -12.8380    1.3920 C   0  0  0  0  0  0  0  0  0  0  0  0
    4.6500  -14.3210    1.1310 C   0  0  1  0  0  0  0  0  0  0  0  0
    4.8480  -14.4280   -0.2940 O   0  0  0  0  0  0  0  0  0  0  0  0
    5.5917  -18.9119    2.4551 H   0  0  0  0  0  0  0  0  0  0  0  0
    4.6436  -19.0049    0.9322 H   0  0  0  0  0  0  0  0  0  0  0  0
    6.3875  -19.4356    0.9322 H   0  0  0  0  0  0  0  0  0  0  0  0
    4.9240  -16.7400    2.7030 H   0  0  0  0  0  0  0  0  0  0  0  0
    6.6877  -14.7587    1.1591 H   0  0  0  0  0  0  0  0  0  0  0  0
    5.3488  -14.1149    3.6784 H   0  0  0  0  0  0  0  0  0  0  0  0
    6.5670  -15.8770    4.4600 H   0  0  0  0  0  0  0  0  0  0  0  0
    8.0095  -13.3076    2.6109 H   0  0  0  0  0  0  0  0  0  0  0  0
    7.8970  -13.4710    4.9830 H   0  0  0  0  0  0  0  0  0  0  0  0
    5.8575  -11.4384    3.3012 H   0  0  0  0  0  0  0  0  0  0  0  0
    7.7144  -10.0789    3.0846 H   0  0  0  0  0  0  0  0  0  0  0  0
    8.5238  -11.1586    1.9145 H   0  0  0  0  0  0  0  0  0  0  0  0
    7.3400  -10.3390    0.2880 H   0  0  0  0  0  0  0  0  0  0  0  0
    5.5620  -11.2300    0.7900 H   0  0  0  0  0  0  0  0  0  0  0  0
    6.3400  -12.6430    0.6380 H   0  0  0  0  0  0  0  0  0  0  0  0
    4.0082  -12.7027    2.4014 H   0  0  0  0  0  0  0  0  0  0  0  0
    3.7191  -12.4383    0.6481 H   0  0  0  0  0  0  0  0  0  0  0  0
    3.7799  -14.8616    1.5318 H   0  0  0  0  0  0  0  0  0  0  0  0
    4.6210  -15.3520   -0.5640 H   0  0  0  0  0  0  0  0  0  0  0  0
  1  2  1  0
  2  3  2  0
  2  4  1  0
  4  5  1  0
  5  6  1  0
  6  7  1  0
  6  8  1  0
  8  9  1  0
  8 10  1  0
 10 11  1  0
 11 12  1  0
 10 13  1  0
 13 14  1  0
 14 15  1  0
 15 16  1  0
 15  5  1  0
  1 17  1  0
  1 18  1  0
  1 19  1  0
  4 20  1  0
  5 21  1  6
  6 22  1  1
  7 23  1  0
  8 24  1  6
  9 25  1  0
 10 26  1  1
 11 27  1  0
 11 28  1  0
 12 29  1  0
 13 30  1  0
 13 31  1  0
 14 32  1  0
 14 33  1  0
 15 34  1  6
 16 35  1  0
M  CHG  1  13   1
M  END
>  <meeko>  (4) 
{"is_sidechain": [false], "free_energy": -5.116, "intermolecular_energy": -8.128, "internal_energy": 0.083}

$$$$
2w66_ligand
     RDKit          3D

 35 35  0  0  0  0  0  0  0  0999 V2000
    6.4130  -15.5470   -2.1590 C   0  0  0  0  0  0  0  0  0  0  0  0
    5.8760  -15.3760   -0.7650 C   0  0  0  0  0  0  0  0  0  0  0  0
    5.0860  -16.1580   -0.2480 O   0  0  0  0  0  0  0  0  0  0  0  0
    6.3720  -14.2840   -0.0810 N   0  0  0  0  0  0  0  0  0  0  0  0
    5.9740  -14.0140    1.3260 C   0  0  2  0  0  0  0  0  0  0  0  0
    5.8220  -12.4880    1.5070 C   0  0  1  0  0  0  0  0  0  0  0  0
    4.6070  -12.0930    0.8420 O   0  0  0  0  0  0  0  0  0  0  0  0
    5.7260  -11.8950    2.9350 C   0  0  2  0  0  0  0  0  0  0  0  0
    5.2620  -10.5350    2.8380 O   0  0  0  0  0  0  0  0  0  0  0  0
    6.9850  -11.9100    3.8210 C   0  0  1  0  0  0  0  0  0  0  0  0
    6.9010  -11.0230    5.0780 C   0  0  0  0  0  0  0  0  0  0  0  0
    5.6250  -11.2390    5.6900 O   0  0  0  0  0  0  0  0  0  0  0  0
    7.4620  -13.2880    4.2190 N   0  0  0  0  0  0  0  0  0  0  0  0
    6.7140  -14.4990    3.7970 C   0  0  0  0  0  0  0  0  0  0  0  0
    6.9090  -14.7690    2.3030 C   0  0  1  0  0  0  0  0  0  0  0  0
    6.6800  -16.1850    2.1570 O   0  0  0  0  0  0  0  0  0  0  0  0
    7.4601  -15.8804   -2.1102 H   0  0  0  0  0  0  0  0  0  0  0  0
    5.8134  -16.2986   -2.6933 H   0  0  0  0  0  0  0  0  0  0  0  0
    6.3584  -14.5870   -2.6933 H   0  0  0  0  0  0  0  0  0  0  0  0
    7.2310  -13.8790   -0.4410 H   0  0  0  0  0  0  0  0  0  0  0  0
    4.9847  -14.4225    1.5797 H   0  0  0  0  0  0  0  0  0  0  0  0
    6.7691  -12.0993    1.1047 H   0  0  0  0  0  0  0  0  0  0  0  0
    4.2530  -11.3020    1.2960 H   0  0  0  0  0  0  0  0  0  0  0  0
    5.0344  -12.5794    3.4481 H   0  0  0  0  0  0  0  0  0  0  0  0
    4.2860  -10.5620    2.7560 H   0  0  0  0  0  0  0  0  0  0  0  0
    7.7331  -11.4716    3.1441 H   0  0  0  0  0  0  0  0  0  0  0  0
    7.7024  -11.2951    5.7806 H   0  0  0  0  0  0  0  0  0  0  0  0
    7.0187   -9.9638    4.8057 H   0  0  0  0  0  0  0  0  0  0  0  0
    5.1590  -11.9200    5.1610 H   0  0  0  0  0  0  0  0  0  0  0  0
    8.4410  -13.3840    3.9250 H   0  0  0  0  0  0  0  0  0  0  0  0
    7.5300  -13.2890    5.2620 H   0  0  0  0  0  0  0  0  0  0  0  0
    7.0778  -15.3647    4.3698 H   0  0  0  0  0  0  0  0  0  0  0  0
    5.6432  -14.3345    3.9874 H   0  0  0  0  0  0  0  0  0  0  0  0
    7.9119  -14.4104    2.0281 H   0  0  0  0  0  0  0  0  0  0  0  0
    6.4690  -16.3630    1.2070 H   0  0  0  0  0  0  0  0  0  0  0  0
  1  2  1  0
  2  3  2  0
  2  4  1  0
  4  5  1  0
  5  6  1  0
  6  7  1  0
  6  8  1  0
  8  9  1  0
  8 10  1  0
 10 11  1  0
 11 12  1  0
 10 13  1  0
 13 14  1  0
 14 15  1  0
 15 16  1  0
 15  5  1  0
  1 17  1  0
  1 18  1  0
  1 19  1  0
  4 20  1  0
  5 21  1  6
  6 22  1  6
  7 23  1  0
  8 24  1  1
  9 25  1  0
 10 26  1  6
 11 27  1  0
 11 28  1  0
 12 29  1  0
 13 30  1  0
 13 31  1  0
 14 32  1  0
 14 33  1  0
 15 34  1  6
 16 35  1  0
M  CHG  1  13   1
M  END
>  <meeko>  (5) 
{"is_sidechain": [false], "free_energy": -5.099, "intermolecular_energy": -8.034, "internal_energy": 0.016}

$$$$
2w66_ligand
     RDKit          3D

 35 35  0  0  0  0  0  0  0  0999 V2000
    7.2430  -10.4920    5.4860 C   0  0  0  0  0  0  0  0  0  0  0  0
    6.3450  -11.5830    4.9730 C   0  0  0  0  0  0  0  0  0  0  0  0
    5.2920  -11.9000    5.5160 O   0  0  0  0  0  0  0  0  0  0  0  0
    6.7720  -12.1860    3.8060 N   0  0  0  0  0  0  0  0  0  0  0  0
    5.9610  -13.2450    3.1490 C   0  0  2  0  0  0  0  0  0  0  0  0
    6.9070  -14.3880    2.7180 C   0  0  1  0  0  0  0  0  0  0  0  0
    7.1550  -15.2040    3.8790 O   0  0  0  0  0  0  0  0  0  0  0  0
    6.4590  -15.3710    1.6070 C   0  0  2  0  0  0  0  0  0  0  0  0
    7.4660  -16.3900    1.4620 O   0  0  0  0  0  0  0  0  0  0  0  0
    6.1450  -14.8050    0.2110 C   0  0  1  0  0  0  0  0  0  0  0  0
    6.2800  -15.8170   -0.9430 C   0  0  0  0  0  0  0  0  0  0  0  0
    5.9360  -15.1500   -2.1610 O   0  0  0  0  0  0  0  0  0  0  0  0
    4.8110  -14.1020    0.0990 N   0  0  0  0  0  0  0  0  0  0  0  0
    4.1190  -13.5950    1.3110 C   0  0  0  0  0  0  0  0  0  0  0  0
    5.0380  -12.6250    2.0710 C   0  0  1  0  0  0  0  0  0  0  0  0
    4.1500  -11.6870    2.7110 O   0  0  0  0  0  0  0  0  0  0  0  0
    7.2371  -10.4991    6.5860 H   0  0  0  0  0  0  0  0  0  0  0  0
    8.2679  -10.6600    5.1237 H   0  0  0  0  0  0  0  0  0  0  0  0
    6.8810   -9.5185    5.1237 H   0  0  0  0  0  0  0  0  0  0  0  0
    7.4590  -11.6750    3.2600 H   0  0  0  0  0  0  0  0  0  0  0  0
    5.2421  -13.7221    3.8313 H   0  0  0  0  0  0  0  0  0  0  0  0
    7.7623  -13.8473    2.2865 H   0  0  0  0  0  0  0  0  0  0  0  0
    7.3000  -16.1240    3.5810 H   0  0  0  0  0  0  0  0  0  0  0  0
    5.4862  -15.7363    1.9679 H   0  0  0  0  0  0  0  0  0  0  0  0
    7.8100  -16.5950    2.3560 H   0  0  0  0  0  0  0  0  0  0  0  0
    6.9392  -14.0523    0.0978 H   0  0  0  0  0  0  0  0  0  0  0  0
    7.3156  -16.1837   -0.9982 H   0  0  0  0  0  0  0  0  0  0  0  0
    5.6129  -16.6758   -0.7770 H   0  0  0  0  0  0  0  0  0  0  0  0
    6.4950  -15.5310   -2.8700 H   0  0  0  0  0  0  0  0  0  0  0  0
    4.9110  -13.3310   -0.5720 H   0  0  0  0  0  0  0  0  0  0  0  0
    4.1690  -14.7610   -0.3960 H   0  0  0  0  0  0  0  0  0  0  0  0
    3.2000  -13.0689    1.0131 H   0  0  0  0  0  0  0  0  0  0  0  0
    3.8668  -14.4426    1.9652 H   0  0  0  0  0  0  0  0  0  0  0  0
    5.7377  -12.1939    1.3398 H   0  0  0  0  0  0  0  0  0  0  0  0
    4.5810  -11.3810    3.5460 H   0  0  0  0  0  0  0  0  0  0  0  0
  1  2  1  0
  2  3  2  0
  2  4  1  0
  4  5  1  0
  5  6  1  0
  6  7  1  0
  6  8  1  0
  8  9  1  0
  8 10  1  0
 10 11  1  0
 11 12  1  0
 10 13  1  0
 13 14  1  0
 14 15  1  0
 15 16  1  0
 15  5  1  0
  1 17  1  0
  1 18  1  0
  1 19  1  0
  4 20  1  0
  5 21  1  1
  6 22  1  6
  7 23  1  0
  8 24  1  1
  9 25  1  0
 10 26  1  6
 11 27  1  0
 11 28  1  0
 12 29  1  0
 13 30  1  0
 13 31  1  0
 14 32  1  0
 14 33  1  0
 15 34  1  6
 16 35  1  0
M  CHG  1  13   1
M  END
>  <meeko>  (6) 
{"is_sidechain": [false], "free_energy": -5.04, "intermolecular_energy": -8.273, "internal_energy": 0.348}

$$$$
2w66_ligand
     RDKit          3D

 35 35  0  0  0  0  0  0  0  0999 V2000
    8.7590  -18.6080    0.6850 C   0  0  0  0  0  0  0  0  0  0  0  0
    8.3400  -17.1710    0.5460 C   0  0  0  0  0  0  0  0  0  0  0  0
    8.8420  -16.4000   -0.2650 O   0  0  0  0  0  0  0  0  0  0  0  0
    7.3080  -16.7830    1.3760 N   0  0  0  0  0  0  0  0  0  0  0  0
    6.7500  -15.4060    1.3150 C   0  0  2  0  0  0  0  0  0  0  0  0
    6.4480  -14.9360    2.7550 C   0  0  1  0  0  0  0  0  0  0  0  0
    7.4860  -15.4600    3.6060 O   0  0  0  0  0  0  0  0  0  0  0  0
    6.3840  -13.4200    3.0640 C   0  0  2  0  0  0  0  0  0  0  0  0
    6.1100  -13.2480    4.4680 O   0  0  0  0  0  0  0  0  0  0  0  0
    5.3890  -12.5520    2.2720 C   0  0  1  0  0  0  0  0  0  0  0  0
    5.6870  -11.0400    2.2980 C   0  0  0  0  0  0  0  0  0  0  0  0
    4.6140  -10.3650    1.6320 O   0  0  0  0  0  0  0  0  0  0  0  0
    5.1670  -12.9890    0.8420 N   0  0  0  0  0  0  0  0  0  0  0  0
    4.5240  -14.2930    0.5410 C   0  0  0  0  0  0  0  0  0  0  0  0
    5.6020  -15.3370    0.2770 C   0  0  1  0  0  0  0  0  0  0  0  0
    6.1620  -14.9770   -1.0030 O   0  0  0  0  0  0  0  0  0  0  0  0
    8.8344  -18.8664    1.7516 H   0  0  0  0  0  0  0  0  0  0  0  0
    8.0124  -19.2559    0.2026 H   0  0  0  0  0  0  0  0  0  0  0  0
    9.7369  -18.7531    0.2026 H   0  0  0  0  0  0  0  0  0  0  0  0
    6.7470  -17.5290    1.7770 H   0  0  0  0  0  0  0  0  0  0  0  0
    7.4676  -14.6680    0.9272 H   0  0  0  0  0  0  0  0  0  0  0  0
    5.4235  -15.3004    2.9215 H   0  0  0  0  0  0  0  0  0  0  0  0
    7.2340  -15.2890    4.5360 H   0  0  0  0  0  0  0  0  0  0  0  0
    7.3695  -13.0532    2.7411 H   0  0  0  0  0  0  0  0  0  0  0  0
    5.7910  -14.1070    4.8130 H   0  0  0  0  0  0  0  0  0  0  0  0
    4.4569  -12.7245    2.8301 H   0  0  0  0  0  0  0  0  0  0  0  0
    5.7580  -10.6916    3.3389 H   0  0  0  0  0  0  0  0  0  0  0  0
    6.6416  -10.8304    1.7932 H   0  0  0  0  0  0  0  0  0  0  0  0
    3.8200  -10.4480    2.1990 H   0  0  0  0  0  0  0  0  0  0  0  0
    4.6520  -12.2450    0.3570 H   0  0  0  0  0  0  0  0  0  0  0  0
    6.1030  -12.9670    0.3770 H   0  0  0  0  0  0  0  0  0  0  0  0
    3.9107  -14.6069    1.3985 H   0  0  0  0  0  0  0  0  0  0  0  0
    3.8837  -14.1917   -0.3476 H   0  0  0  0  0  0  0  0  0  0  0  0
    5.1315  -16.3301    0.3260 H   0  0  0  0  0  0  0  0  0  0  0  0
    6.6800  -15.7490   -1.3370 H   0  0  0  0  0  0  0  0  0  0  0  0
  1  2  1  0
  2  3  2  0
  2  4  1  0
  4  5  1  0
  5  6  1  0
  6  7  1  0
  6  8  1  0
  8  9  1  0
  8 10  1  0
 10 11  1  0
 11 12  1  0
 10 13  1  0
 13 14  1  0
 14 15  1  0
 15 16  1  0
 15  5  1  0
  1 17  1  0
  1 18  1  0
  1 19  1  0
  4 20  1  0
  5 21  1  6
  6 22  1  1
  7 23  1  0
  8 24  1  1
  9 25  1  0
 10 26  1  1
 11 27  1  0
 11 28  1  0
 12 29  1  0
 13 30  1  0
 13 31  1  0
 14 32  1  0
 14 33  1  0
 15 34  1  6
 16 35  1  0
M  CHG  1  13   1
M  END
>  <meeko>  (7) 
{"is_sidechain": [false], "free_energy": -4.426, "intermolecular_energy": -7.064, "internal_energy": 0.112}

$$$$
2w66_ligand
     RDKit          3D

 35 35  0  0  0  0  0  0  0  0999 V2000
    6.7950  -17.7780   -0.0730 C   0  0  0  0  0  0  0  0  0  0  0  0
    6.8430  -16.5630    0.8110 C   0  0  0  0  0  0  0  0  0  0  0  0
    7.8740  -15.9410    1.0440 O   0  0  0  0  0  0  0  0  0  0  0  0
    5.6220  -16.1630    1.3160 N   0  0  0  0  0  0  0  0  0  0  0  0
    5.5030  -14.9460    2.1620 C   0  0  2  0  0  0  0  0  0  0  0  0
    5.2360  -13.7350    1.2420 C   0  0  1  0  0  0  0  0  0  0  0  0
    3.8660  -13.8210    0.8020 O   0  0  0  0  0  0  0  0  0  0  0  0
    5.4030  -12.3000    1.8010 C   0  0  2  0  0  0  0  0  0  0  0  0
    4.8240  -11.3710    0.8650 O   0  0  0  0  0  0  0  0  0  0  0  0
    6.8200  -11.8090    2.1480 C   0  0  1  0  0  0  0  0  0  0  0  0
    6.9400  -10.2910    2.3790 C   0  0  0  0  0  0  0  0  0  0  0  0
    5.9970   -9.9200    3.3900 O   0  0  0  0  0  0  0  0  0  0  0  0
    7.4780  -12.5390    3.2970 N   0  0  0  0  0  0  0  0  0  0  0  0
    6.7590  -13.6190    4.0190 C   0  0  0  0  0  0  0  0  0  0  0  0
    6.6950  -14.8560    3.1460 C   0  0  1  0  0  0  0  0  0  0  0  0
    6.6040  -15.9520    4.0790 O   0  0  0  0  0  0  0  0  0  0  0  0
    6.7592  -18.6837    0.5502 H   0  0  0  0  0  0  0  0  0  0  0  0
    5.8979  -17.7342   -0.7080 H   0  0  0  0  0  0  0  0  0  0  0  0
    7.6928  -17.8051   -0.7080 H   0  0  0  0  0  0  0  0  0  0  0  0
    4.7990  -16.5200    0.8400 H   0  0  0  0  0  0  0  0  0  0  0  0
    4.6367  -14.9766    2.8392 H   0  0  0  0  0  0  0  0  0  0  0  0
    6.0214  -13.8317    0.4780 H   0  0  0  0  0  0  0  0  0  0  0  0
    3.8340  -14.3950    0.0100 H   0  0  0  0  0  0  0  0  0  0  0  0
    4.8936  -12.3467    2.7748 H   0  0  0  0  0  0  0  0  0  0  0  0
    4.0140  -11.0050    1.2770 H   0  0  0  0  0  0  0  0  0  0  0  0
    7.3682  -12.0563    1.2270 H   0  0  0  0  0  0  0  0  0  0  0  0
    7.9592  -10.0436    2.7107 H   0  0  0  0  0  0  0  0  0  0  0  0
    6.7336   -9.7457    1.4462 H   0  0  0  0  0  0  0  0  0  0  0  0
    5.3770   -9.2760    2.9890 H   0  0  0  0  0  0  0  0  0  0  0  0
    8.3810  -12.9020    2.9700 H   0  0  0  0  0  0  0  0  0  0  0  0
    7.7570  -11.8090    3.9910 H   0  0  0  0  0  0  0  0  0  0  0  0
    7.2933  -13.8555    4.9510 H   0  0  0  0  0  0  0  0  0  0  0  0
    5.7381  -13.2846    4.2557 H   0  0  0  0  0  0  0  0  0  0  0  0
    7.5780  -14.8540    2.4900 H   0  0  0  0  0  0  0  0  0  0  0  0
    6.5090  -16.7880    3.5590 H   0  0  0  0  0  0  0  0  0  0  0  0
  1  2  1  0
  2  3  2  0
  2  4  1  0
  4  5  1  0
  5  6  1  0
  6  7  1  0
  6  8  1  0
  8  9  1  0
  8 10  1  0
 10 11  1  0
 11 12  1  0
 10 13  1  0
 13 14  1  0
 14 15  1  0
 15 16  1  0
 15  5  1  0
  1 17  1  0
  1 18  1  0
  1 19  1  0
  4 20  1  0
  5 21  1  1
  6 22  1  6
  7 23  1  0
  8 24  1  1
  9 25  1  0
 10 26  1  6
 11 27  1  0
 11 28  1  0
 12 29  1  0
 13 30  1  0
 13 31  1  0
 14 32  1  0
 14 33  1  0
 15 34  1  6
 16 35  1  0
M  CHG  1  13   1
M  END
>  <meeko>  (8) 
{"is_sidechain": [false], "free_energy": -4.208, "intermolecular_energy": -7.402, "internal_energy": 0.795}

$$$$
2w66_ligand
     RDKit          3D

 35 35  0  0  0  0  0  0  0  0999 V2000
    6.9200  -18.5950   -1.5030 C   0  0  0  0  0  0  0  0  0  0  0  0
    6.1200  -17.6710   -0.6280 C   0  0  0  0  0  0  0  0  0  0  0  0
    4.8970  -17.5930   -0.6730 O   0  0  0  0  0  0  0  0  0  0  0  0
    6.8620  -16.9330    0.2720 N   0  0  0  0  0  0  0  0  0  0  0  0
    6.2060  -16.0160    1.2400 C   0  0  2  0  0  0  0  0  0  0  0  0
    6.3720  -14.5670    0.7300 C   0  0  1  0  0  0  0  0  0  0  0  0
    5.5550  -14.4280   -0.4490 O   0  0  0  0  0  0  0  0  0  0  0  0
    5.9780  -13.3850    1.6500 C   0  0  2  0  0  0  0  0  0  0  0  0
    5.8450  -12.1990    0.8440 O   0  0  0  0  0  0  0  0  0  0  0  0
    6.8870  -13.0520    2.8470 C   0  0  1  0  0  0  0  0  0  0  0  0
    6.4820  -11.7930    3.6370 C   0  0  0  0  0  0  0  0  0  0  0  0
    5.0580  -11.8000    3.7820 O   0  0  0  0  0  0  0  0  0  0  0  0
    7.1060  -14.1950    3.8120 N   0  0  0  0  0  0  0  0  0  0  0  0
    6.2240  -15.3890    3.7830 C   0  0  0  0  0  0  0  0  0  0  0  0
    6.6710  -16.3320    2.6830 C   0  0  1  0  0  0  0  0  0  0  0  0
    6.1400  -17.6180    3.0650 O   0  0  0  0  0  0  0  0  0  0  0  0
    7.5103  -19.2768   -0.8732 H   0  0  0  0  0  0  0  0  0  0  0  0
    6.2386  -19.1801   -2.1381 H   0  0  0  0  0  0  0  0  0  0  0  0
    7.5966  -18.0043   -2.1381 H   0  0  0  0  0  0  0  0  0  0  0  0
    7.8010  -17.2720    0.4670 H   0  0  0  0  0  0  0  0  0  0  0  0
    5.1181  -16.1655    1.3037 H   0  0  0  0  0  0  0  0  0  0  0  0
    7.4611  -14.4753    0.6057 H   0  0  0  0  0  0  0  0  0  0  0  0
    4.7220  -14.9180   -0.3030 H   0  0  0  0  0  0  0  0  0  0  0  0
    5.0433  -13.7287    2.1172 H   0  0  0  0  0  0  0  0  0  0  0  0
    5.4470  -11.5030    1.4080 H   0  0  0  0  0  0  0  0  0  0  0  0
    7.8423  -12.8429    2.3433 H   0  0  0  0  0  0  0  0  0  0  0  0
    6.9581  -11.8054    4.6285 H   0  0  0  0  0  0  0  0  0  0  0  0
    6.8071  -10.8871    3.1045 H   0  0  0  0  0  0  0  0  0  0  0  0
    4.8570  -12.1210    4.6860 H   0  0  0  0  0  0  0  0  0  0  0  0
    8.0820  -14.5010    3.7290 H   0  0  0  0  0  0  0  0  0  0  0  0
    7.0710  -13.7830    4.7720 H   0  0  0  0  0  0  0  0  0  0  0  0
    6.2784  -15.9066    4.7521 H   0  0  0  0  0  0  0  0  0  0  0  0
    5.1889  -15.0709    3.5899 H   0  0  0  0  0  0  0  0  0  0  0  0
    7.7665  -16.2577    2.6165 H   0  0  0  0  0  0  0  0  0  0  0  0
    5.2200  -17.6850    2.7110 H   0  0  0  0  0  0  0  0  0  0  0  0
  1  2  1  0
  2  3  2  0
  2  4  1  0
  4  5  1  0
  5  6  1  0
  6  7  1  0
  6  8  1  0
  8  9  1  0
  8 10  1  0
 10 11  1  0
 11 12  1  0
 10 13  1  0
 13 14  1  0
 14 15  1  0
 15 16  1  0
 15  5  1  0
  1 17  1  0
  1 18  1  0
  1 19  1  0
  4 20  1  0
  5 21  1  1
  6 22  1  6
  7 23  1  0
  8 24  1  1
  9 25  1  0
 10 26  1  6
 11 27  1  0
 11 28  1  0
 12 29  1  0
 13 30  1  0
 13 31  1  0
 14 32  1  0
 14 33  1  0
 15 34  1  6
 16 35  1  0
M  CHG  1  13   1
M  END
>  <meeko>  (9) 
{"is_sidechain": [false], "free_energy": -4.196, "intermolecular_energy": -6.487, "internal_energy": -0.1}

$$$$
