4twp_ligand
     RDKit          3D

 46 49  0  0  0  0  0  0  0  0999 V2000
   63.5050   21.7580   48.0910 C   0  0  0  0  0  0  0  0  0  0  0  0
   63.6580   20.3650   48.4210 N   0  0  0  0  0  0  0  0  0  0  0  0
   62.5820   19.5060   48.4090 C   0  0  0  0  0  0  0  0  0  0  0  0
   61.4660   19.8230   48.0110 O   0  0  0  0  0  0  0  0  0  0  0  0
   62.8330   18.1150   48.8730 C   0  0  0  0  0  0  0  0  0  0  0  0
   64.0700   17.8950   49.5020 C   0  0  0  0  0  0  0  0  0  0  0  0
   64.4100   16.6320   49.9820 C   0  0  0  0  0  0  0  0  0  0  0  0
   63.5200   15.5730   49.8320 C   0  0  0  0  0  0  0  0  0  0  0  0
   62.2960   15.7770   49.1900 C   0  0  0  0  0  0  0  0  0  0  0  0
   61.9400   17.0430   48.6930 C   0  0  0  0  0  0  0  0  0  0  0  0
   60.3690   17.1660   47.8380 S   0  0  0  0  0  0  0  0  0  0  0  0
   59.3980   15.9870   48.7700 C   0  0  0  0  0  0  0  0  0  0  0  0
   59.3050   16.0760   50.1620 C   0  0  0  0  0  0  0  0  0  0  0  0
   58.5470   15.1520   50.8960 C   0  0  0  0  0  0  0  0  0  0  0  0
   57.8850   14.1060   50.2200 C   0  0  0  0  0  0  0  0  0  0  0  0
   57.0480   12.9990   50.5690 C   0  0  0  0  0  0  0  0  0  0  0  0
   56.6260   12.6010   51.8800 C   0  0  0  0  0  0  0  0  0  0  0  0
   57.0360   13.1310   53.0450 C   0  0  0  0  0  0  0  0  0  0  0  0
   56.5780   12.6710   54.3630 C   0  0  0  0  0  0  0  0  0  0  0  0
   56.0890   11.3770   54.5180 C   0  0  0  0  0  0  0  0  0  0  0  0
   55.6650   10.9620   55.7790 C   0  0  0  0  0  0  0  0  0  0  0  0
   55.7440   11.8460   56.8470 C   0  0  0  0  0  0  0  0  0  0  0  0
   56.2440   13.1140   56.6070 C   0  0  0  0  0  0  0  0  0  0  0  0
   56.6620   13.5410   55.3960 N   0  0  0  0  0  0  0  0  0  0  0  0
   56.6410   12.3360   49.4770 N   0  0  0  0  0  0  0  0  0  0  0  0
   57.2400   12.9710   48.4610 N   0  0  0  0  0  0  0  0  0  0  0  0
   57.9950   14.0470   48.8350 C   0  0  0  0  0  0  0  0  0  0  0  0
   58.7440   14.9580   48.0790 C   0  0  0  0  0  0  0  0  0  0  0  0
   63.4401   22.3491   49.0164 H   0  0  0  0  0  0  0  0  0  0  0  0
   64.3718   22.0927   47.5022 H   0  0  0  0  0  0  0  0  0  0  0  0
   62.5862   21.8966   47.5022 H   0  0  0  0  0  0  0  0  0  0  0  0
   64.4990   20.0760   48.9060 H   0  0  0  0  0  0  0  0  0  0  0  0
   64.7778   18.7292   49.6167 H   0  0  0  0  0  0  0  0  0  0  0  0
   65.3788   16.4726   50.4779 H   0  0  0  0  0  0  0  0  0  0  0  0
   63.7798   14.5764   50.2184 H   0  0  0  0  0  0  0  0  0  0  0  0
   61.5998   14.9337   49.0715 H   0  0  0  0  0  0  0  0  0  0  0  0
   59.8344   16.8830   50.6897 H   0  0  0  0  0  0  0  0  0  0  0  0
   58.4695   15.2423   51.9895 H   0  0  0  0  0  0  0  0  0  0  0  0
   55.8948   11.7813   51.9381 H   0  0  0  0  0  0  0  0  0  0  0  0
   57.7585   13.9597   53.0096 H   0  0  0  0  0  0  0  0  0  0  0  0
   56.0380   10.6925   53.6584 H   0  0  0  0  0  0  0  0  0  0  0  0
   55.2720    9.9453   55.9267 H   0  0  0  0  0  0  0  0  0  0  0  0
   55.4187   11.5472   57.8544 H   0  0  0  0  0  0  0  0  0  0  0  0
   56.3045   13.8152   57.4524 H   0  0  0  0  0  0  0  0  0  0  0  0
   57.0840   12.6210   47.5230 H   0  0  0  0  0  0  0  0  0  0  0  0
   58.8160   14.8691   46.9850 H   0  0  0  0  0  0  0  0  0  0  0  0
  1  2  1  0
  2  3  1  0
  3  4  2  0
  3  5  1  0
  5  6  2  0
  6  7  1  0
  7  8  2  0
  8  9  1  0
  9 10  2  0
 10 11  1  0
 11 12  1  0
 12 13  2  0
 13 14  1  0
 14 15  2  0
 15 16  1  0
 16 17  1  0
 17 18  2  0
 18 19  1  0
 19 20  2  0
 20 21  1  0
 21 22  2  0
 22 23  1  0
 23 24  2  0
 16 25  2  0
 25 26  1  0
 26 27  1  0
 27 28  2  0
 10  5  1  0
 28 12  1  0
 27 15  1  0
 24 19  1  0
  1 29  1  0
  1 30  1  0
  1 31  1  0
  2 32  1  0
  6 33  1  0
  7 34  1  0
  8 35  1  0
  9 36  1  0
 13 37  1  0
 14 38  1  0
 17 39  1  0
 18 40  1  0
 20 41  1  0
 21 42  1  0
 22 43  1  0
 23 44  1  0
 26 45  1  0
 28 46  1  0
M  END
>  <meeko>  (1) 
{"is_sidechain": [false], "free_energy": -11.345, "intermolecular_energy": -14.661, "internal_energy": 0.103}

$$$$
4twp_ligand
     RDKit          3D

 46 49  0  0  0  0  0  0  0  0999 V2000
   61.6870   17.3750   43.0780 C   0  0  0  0  0  0  0  0  0  0  0  0
   61.7380   17.7400   44.4700 N   0  0  0  0  0  0  0  0  0  0  0  0
   61.4790   16.8180   45.4590 C   0  0  0  0  0  0  0  0  0  0  0  0
   61.3080   15.6230   45.2450 O   0  0  0  0  0  0  0  0  0  0  0  0
   61.4500   17.3290   46.8570 C   0  0  0  0  0  0  0  0  0  0  0  0
   62.6550   17.8770   47.3310 C   0  0  0  0  0  0  0  0  0  0  0  0
   62.7430   18.3910   48.6230 C   0  0  0  0  0  0  0  0  0  0  0  0
   61.6310   18.3540   49.4590 C   0  0  0  0  0  0  0  0  0  0  0  0
   60.4350   17.7920   49.0040 C   0  0  0  0  0  0  0  0  0  0  0  0
   60.3310   17.2630   47.7060 C   0  0  0  0  0  0  0  0  0  0  0  0
   58.7630   16.5170   47.2580 S   0  0  0  0  0  0  0  0  0  0  0  0
   58.4460   15.5280   48.7150 C   0  0  0  0  0  0  0  0  0  0  0  0
   58.8750   15.9500   49.9760 C   0  0  0  0  0  0  0  0  0  0  0  0
   58.6300   15.1760   51.1190 C   0  0  0  0  0  0  0  0  0  0  0  0
   57.9590   13.9420   50.9900 C   0  0  0  0  0  0  0  0  0  0  0  0
   57.5290   12.8900   51.8590 C   0  0  0  0  0  0  0  0  0  0  0  0
   57.7150   12.7940   53.2770 C   0  0  0  0  0  0  0  0  0  0  0  0
   56.7740   12.9770   54.2190 C   0  0  0  0  0  0  0  0  0  0  0  0
   57.0280   12.8800   55.6630 C   0  0  0  0  0  0  0  0  0  0  0  0
   55.9820   13.0440   56.5670 C   0  0  0  0  0  0  0  0  0  0  0  0
   56.2470   12.9430   57.9310 C   0  0  0  0  0  0  0  0  0  0  0  0
   57.5440   12.6790   58.3540 C   0  0  0  0  0  0  0  0  0  0  0  0
   58.5250   12.5280   57.3890 C   0  0  0  0  0  0  0  0  0  0  0  0
   58.2950   12.6210   56.0620 N   0  0  0  0  0  0  0  0  0  0  0  0
   56.8630   11.9440   51.1810 N   0  0  0  0  0  0  0  0  0  0  0  0
   56.9070   12.3560   49.9070 N   0  0  0  0  0  0  0  0  0  0  0  0
   57.5420   13.5510   49.7230 C   0  0  0  0  0  0  0  0  0  0  0  0
   57.7730   14.3070   48.5660 C   0  0  0  0  0  0  0  0  0  0  0  0
   61.5353   16.2892   42.9890 H   0  0  0  0  0  0  0  0  0  0  0  0
   60.8539   17.9028   42.5908 H   0  0  0  0  0  0  0  0  0  0  0  0
   62.6329   17.6542   42.5908 H   0  0  0  0  0  0  0  0  0  0  0  0
   61.7130   18.7240   44.7100 H   0  0  0  0  0  0  0  0  0  0  0  0
   63.5376   17.9002   46.6748 H   0  0  0  0  0  0  0  0  0  0  0  0
   63.6884   18.8247   48.9811 H   0  0  0  0  0  0  0  0  0  0  0  0
   61.6933   18.7666   50.4768 H   0  0  0  0  0  0  0  0  0  0  0  0
   59.5616   17.7632   49.6721 H   0  0  0  0  0  0  0  0  0  0  0  0
   59.4133   16.9043   50.0735 H   0  0  0  0  0  0  0  0  0  0  0  0
   58.9583   15.5281   52.1081 H   0  0  0  0  0  0  0  0  0  0  0  0
   58.7273   12.5462   53.6288 H   0  0  0  0  0  0  0  0  0  0  0  0
   55.7517   13.2137   53.8890 H   0  0  0  0  0  0  0  0  0  0  0  0
   54.9622   13.2501   56.2099 H   0  0  0  0  0  0  0  0  0  0  0  0
   55.4381   13.0709   58.6653 H   0  0  0  0  0  0  0  0  0  0  0  0
   57.7841   12.5926   59.4240 H   0  0  0  0  0  0  0  0  0  0  0  0
   59.5522   12.3200   57.7231 H   0  0  0  0  0  0  0  0  0  0  0  0
   56.4710   11.7730   49.2030 H   0  0  0  0  0  0  0  0  0  0  0  0
   57.4391   13.9559   47.5785 H   0  0  0  0  0  0  0  0  0  0  0  0
  1  2  1  0
  2  3  1  0
  3  4  2  0
  3  5  1  0
  5  6  2  0
  6  7  1  0
  7  8  2  0
  8  9  1  0
  9 10  2  0
 10 11  1  0
 11 12  1  0
 12 13  2  0
 13 14  1  0
 14 15  2  0
 15 16  1  0
 16 17  1  0
 17 18  2  0
 18 19  1  0
 19 20  2  0
 20 21  1  0
 21 22  2  0
 22 23  1  0
 23 24  2  0
 16 25  2  0
 25 26  1  0
 26 27  1  0
 27 28  2  0
 10  5  1  0
 28 12  1  0
 27 15  1  0
 24 19  1  0
  1 29  1  0
  1 30  1  0
  1 31  1  0
  2 32  1  0
  6 33  1  0
  7 34  1  0
  8 35  1  0
  9 36  1  0
 13 37  1  0
 14 38  1  0
 17 39  1  0
 18 40  1  0
 20 41  1  0
 21 42  1  0
 22 43  1  0
 23 44  1  0
 26 45  1  0
 28 46  1  0
M  END
>  <meeko>  (2) 
{"is_sidechain": [false], "free_energy": -9.95, "intermolecular_energy": -13.067, "internal_energy": 0.312}

$$$$
4twp_ligand
     RDKit          3D

 46 49  0  0  0  0  0  0  0  0999 V2000
   63.7220   13.5130   50.4110 C   0  0  0  0  0  0  0  0  0  0  0  0
   63.1550   14.8050   50.1270 N   0  0  0  0  0  0  0  0  0  0  0  0
   63.5550   15.5350   49.0300 C   0  0  0  0  0  0  0  0  0  0  0  0
   64.3130   15.1030   48.1680 O   0  0  0  0  0  0  0  0  0  0  0  0
   62.9850   16.9020   48.8930 C   0  0  0  0  0  0  0  0  0  0  0  0
   63.5430   17.8830   49.7320 C   0  0  0  0  0  0  0  0  0  0  0  0
   63.0910   19.2000   49.6860 C   0  0  0  0  0  0  0  0  0  0  0  0
   62.0700   19.5500   48.8080 C   0  0  0  0  0  0  0  0  0  0  0  0
   61.4950   18.5790   47.9840 C   0  0  0  0  0  0  0  0  0  0  0  0
   61.9340   17.2440   48.0230 C   0  0  0  0  0  0  0  0  0  0  0  0
   61.0790   16.0780   46.9620 S   0  0  0  0  0  0  0  0  0  0  0  0
   59.9520   15.3360   48.1360 C   0  0  0  0  0  0  0  0  0  0  0  0
   60.0220   15.6520   49.4960 C   0  0  0  0  0  0  0  0  0  0  0  0
   59.1410   15.0700   50.4200 C   0  0  0  0  0  0  0  0  0  0  0  0
   58.1850   14.1360   49.9710 C   0  0  0  0  0  0  0  0  0  0  0  0
   57.1460   13.3410   50.5520 C   0  0  0  0  0  0  0  0  0  0  0  0
   56.7740   13.2630   51.9340 C   0  0  0  0  0  0  0  0  0  0  0  0
   57.5760   12.9250   52.9580 C   0  0  0  0  0  0  0  0  0  0  0  0
   57.1340   12.8480   54.3570 C   0  0  0  0  0  0  0  0  0  0  0  0
   55.7880   12.6450   54.6520 C   0  0  0  0  0  0  0  0  0  0  0  0
   55.3940   12.5690   55.9870 C   0  0  0  0  0  0  0  0  0  0  0  0
   56.3510   12.6960   56.9860 C   0  0  0  0  0  0  0  0  0  0  0  0
   57.6670   12.8950   56.6060 C   0  0  0  0  0  0  0  0  0  0  0  0
   58.0750   12.9710   55.3210 N   0  0  0  0  0  0  0  0  0  0  0  0
   56.4860   12.6460   49.6140 N   0  0  0  0  0  0  0  0  0  0  0  0
   57.1150   12.9500   48.4720 N   0  0  0  0  0  0  0  0  0  0  0  0
   58.1390   13.8450   48.6120 C   0  0  0  0  0  0  0  0  0  0  0  0
   59.0050   14.4130   47.6700 C   0  0  0  0  0  0  0  0  0  0  0  0
   63.7842   13.3712   51.5001 H   0  0  0  0  0  0  0  0  0  0  0  0
   63.0851   12.7292   49.9750 H   0  0  0  0  0  0  0  0  0  0  0  0
   64.7300   13.4511   49.9750 H   0  0  0  0  0  0  0  0  0  0  0  0
   62.6550   15.2840   50.8670 H   0  0  0  0  0  0  0  0  0  0  0  0
   64.3452   17.6074   50.4323 H   0  0  0  0  0  0  0  0  0  0  0  0
   63.5399   19.9607   50.3417 H   0  0  0  0  0  0  0  0  0  0  0  0
   61.7157   20.5904   48.7626 H   0  0  0  0  0  0  0  0  0  0  0  0
   60.6866   18.8635   47.2944 H   0  0  0  0  0  0  0  0  0  0  0  0
   60.7796   16.3681   49.8472 H   0  0  0  0  0  0  0  0  0  0  0  0
   59.1957   15.3399   51.4850 H   0  0  0  0  0  0  0  0  0  0  0  0
   55.7293   13.5034   52.1807 H   0  0  0  0  0  0  0  0  0  0  0  0
   58.6276   12.6917   52.7351 H   0  0  0  0  0  0  0  0  0  0  0  0
   55.0477   12.5462   53.8444 H   0  0  0  0  0  0  0  0  0  0  0  0
   54.3369   12.4102   56.2466 H   0  0  0  0  0  0  0  0  0  0  0  0
   56.0710   12.6400   58.0483 H   0  0  0  0  0  0  0  0  0  0  0  0
   58.4247   12.9972   57.3969 H   0  0  0  0  0  0  0  0  0  0  0  0
   56.7870   12.5150   47.6180 H   0  0  0  0  0  0  0  0  0  0  0  0
   58.9448   14.1453   46.6048 H   0  0  0  0  0  0  0  0  0  0  0  0
  1  2  1  0
  2  3  1  0
  3  4  2  0
  3  5  1  0
  5  6  2  0
  6  7  1  0
  7  8  2  0
  8  9  1  0
  9 10  2  0
 10 11  1  0
 11 12  1  0
 12 13  2  0
 13 14  1  0
 14 15  2  0
 15 16  1  0
 16 17  1  0
 17 18  2  0
 18 19  1  0
 19 20  2  0
 20 21  1  0
 21 22  2  0
 22 23  1  0
 23 24  2  0
 16 25  2  0
 25 26  1  0
 26 27  1  0
 27 28  2  0
 10  5  1  0
 28 12  1  0
 27 15  1  0
 24 19  1  0
  1 29  1  0
  1 30  1  0
  1 31  1  0
  2 32  1  0
  6 33  1  0
  7 34  1  0
  8 35  1  0
  9 36  1  0
 13 37  1  0
 14 38  1  0
 17 39  1  0
 18 40  1  0
 20 41  1  0
 21 42  1  0
 22 43  1  0
 23 44  1  0
 26 45  1  0
 28 46  1  0
M  END
>  <meeko>  (3) 
{"is_sidechain": [false], "free_energy": -9.88, "intermolecular_energy": -11.891, "internal_energy": -0.773}

$$$$
4twp_ligand
     RDKit          3D

 46 49  0  0  0  0  0  0  0  0999 V2000
   59.1390   10.1490   58.1640 C   0  0  0  0  0  0  0  0  0  0  0  0
   57.8700   10.7270   57.8050 N   0  0  0  0  0  0  0  0  0  0  0  0
   57.7900   11.9870   57.2540 C   0  0  0  0  0  0  0  0  0  0  0  0
   58.7700   12.6460   56.9240 O   0  0  0  0  0  0  0  0  0  0  0  0
   56.4240   12.5290   57.0250 C   0  0  0  0  0  0  0  0  0  0  0  0
   55.9650   13.4520   57.9810 C   0  0  0  0  0  0  0  0  0  0  0  0
   54.7020   14.0290   57.8640 C   0  0  0  0  0  0  0  0  0  0  0  0
   53.8810   13.6840   56.7950 C   0  0  0  0  0  0  0  0  0  0  0  0
   54.3200   12.7530   55.8500 C   0  0  0  0  0  0  0  0  0  0  0  0
   55.5880   12.1560   55.9570 C   0  0  0  0  0  0  0  0  0  0  0  0
   56.0150   10.9330   54.7170 S   0  0  0  0  0  0  0  0  0  0  0  0
   56.7160   11.9850   53.4510 C   0  0  0  0  0  0  0  0  0  0  0  0
   57.6020   13.0140   53.7820 C   0  0  0  0  0  0  0  0  0  0  0  0
   58.1510   13.8420   52.7930 C   0  0  0  0  0  0  0  0  0  0  0  0
   57.7880   13.6450   51.4440 C   0  0  0  0  0  0  0  0  0  0  0  0
   58.0980   14.2390   50.1800 C   0  0  0  0  0  0  0  0  0  0  0  0
   58.9610   15.3550   49.9260 C   0  0  0  0  0  0  0  0  0  0  0  0
   60.2740   15.3010   49.6480 C   0  0  0  0  0  0  0  0  0  0  0  0
   61.1130   16.4840   49.4090 C   0  0  0  0  0  0  0  0  0  0  0  0
   60.5360   17.6680   48.9600 C   0  0  0  0  0  0  0  0  0  0  0  0
   61.3520   18.7780   48.7460 C   0  0  0  0  0  0  0  0  0  0  0  0
   62.7160   18.6750   48.9890 C   0  0  0  0  0  0  0  0  0  0  0  0
   63.2080   17.4610   49.4360 C   0  0  0  0  0  0  0  0  0  0  0  0
   62.4390   16.3710   49.6510 N   0  0  0  0  0  0  0  0  0  0  0  0
   57.4860   13.5910   49.1780 N   0  0  0  0  0  0  0  0  0  0  0  0
   56.7660   12.6410   49.7870 N   0  0  0  0  0  0  0  0  0  0  0  0
   56.9070   12.6110   51.1460 C   0  0  0  0  0  0  0  0  0  0  0  0
   56.3460   11.7700   52.1160 C   0  0  0  0  0  0  0  0  0  0  0  0
   59.2268   10.1090   59.2598 H   0  0  0  0  0  0  0  0  0  0  0  0
   59.2075    9.1309   57.7533 H   0  0  0  0  0  0  0  0  0  0  0  0
   59.9521   10.7656   57.7533 H   0  0  0  0  0  0  0  0  0  0  0  0
   57.0280   10.3160   58.1900 H   0  0  0  0  0  0  0  0  0  0  0  0
   56.6098   13.7216   58.8305 H   0  0  0  0  0  0  0  0  0  0  0  0
   54.3552   14.7548   58.6143 H   0  0  0  0  0  0  0  0  0  0  0  0
   52.8869   14.1439   56.6938 H   0  0  0  0  0  0  0  0  0  0  0  0
   53.6634   12.4832   55.0097 H   0  0  0  0  0  0  0  0  0  0  0  0
   57.8729   13.1768   54.8356 H   0  0  0  0  0  0  0  0  0  0  0  0
   58.8587   14.6385   53.0664 H   0  0  0  0  0  0  0  0  0  0  0  0
   58.5027   16.3543   49.9623 H   0  0  0  0  0  0  0  0  0  0  0  0
   60.7505   14.3109   49.5960 H   0  0  0  0  0  0  0  0  0  0  0  0
   59.4530   17.7272   48.7768 H   0  0  0  0  0  0  0  0  0  0  0  0
   60.9207   19.7247   48.3887 H   0  0  0  0  0  0  0  0  0  0  0  0
   63.3855   19.5333   48.8307 H   0  0  0  0  0  0  0  0  0  0  0  0
   64.2881   17.3787   49.6274 H   0  0  0  0  0  0  0  0  0  0  0  0
   56.1990   12.0300   49.2120 H   0  0  0  0  0  0  0  0  0  0  0  0
   55.6418   10.9711   51.8405 H   0  0  0  0  0  0  0  0  0  0  0  0
  1  2  1  0
  2  3  1  0
  3  4  2  0
  3  5  1  0
  5  6  2  0
  6  7  1  0
  7  8  2  0
  8  9  1  0
  9 10  2  0
 10 11  1  0
 11 12  1  0
 12 13  2  0
 13 14  1  0
 14 15  2  0
 15 16  1  0
 16 17  1  0
 17 18  2  0
 18 19  1  0
 19 20  2  0
 20 21  1  0
 21 22  2  0
 22 23  1  0
 23 24  2  0
 16 25  2  0
 25 26  1  0
 26 27  1  0
 27 28  2  0
 10  5  1  0
 28 12  1  0
 27 15  1  0
 24 19  1  0
  1 29  1  0
  1 30  1  0
  1 31  1  0
  2 32  1  0
  6 33  1  0
  7 34  1  0
  8 35  1  0
  9 36  1  0
 13 37  1  0
 14 38  1  0
 17 39  1  0
 18 40  1  0
 20 41  1  0
 21 42  1  0
 22 43  1  0
 23 44  1  0
 26 45  1  0
 28 46  1  0
M  END
>  <meeko>  (4) 
{"is_sidechain": [false], "free_energy": -9.411, "intermolecular_energy": -11.166, "internal_energy": -0.892}

$$$$
4twp_ligand
     RDKit          3D

 46 49  0  0  0  0  0  0  0  0999 V2000
   61.6590   17.2270   43.6230 C   0  0  0  0  0  0  0  0  0  0  0  0
   61.2870   17.2940   45.0120 N   0  0  0  0  0  0  0  0  0  0  0  0
   61.0610   16.1520   45.7470 C   0  0  0  0  0  0  0  0  0  0  0  0
   61.2710   15.0200   45.3220 O   0  0  0  0  0  0  0  0  0  0  0  0
   60.5750   16.3390   47.1400 C   0  0  0  0  0  0  0  0  0  0  0  0
   59.5200   15.4990   47.5370 C   0  0  0  0  0  0  0  0  0  0  0  0
   58.9880   15.5820   48.8220 C   0  0  0  0  0  0  0  0  0  0  0  0
   59.4980   16.5130   49.7220 C   0  0  0  0  0  0  0  0  0  0  0  0
   60.5330   17.3670   49.3310 C   0  0  0  0  0  0  0  0  0  0  0  0
   61.0760   17.3000   48.0360 C   0  0  0  0  0  0  0  0  0  0  0  0
   62.3590   18.4870   47.6340 S   0  0  0  0  0  0  0  0  0  0  0  0
   63.3690   18.3860   49.1070 C   0  0  0  0  0  0  0  0  0  0  0  0
   63.5530   17.1680   49.7680 C   0  0  0  0  0  0  0  0  0  0  0  0
   64.3420   17.0860   50.9250 C   0  0  0  0  0  0  0  0  0  0  0  0
   64.9430   18.2540   51.4380 C   0  0  0  0  0  0  0  0  0  0  0  0
   65.7840   18.5980   52.5440 C   0  0  0  0  0  0  0  0  0  0  0  0
   66.2820   17.7280   53.5680 C   0  0  0  0  0  0  0  0  0  0  0  0
   65.7650   17.5660   54.7980 C   0  0  0  0  0  0  0  0  0  0  0  0
   66.3300   16.6670   55.8150 C   0  0  0  0  0  0  0  0  0  0  0  0
   67.1420   17.1790   56.8230 C   0  0  0  0  0  0  0  0  0  0  0  0
   67.6610   16.3070   57.7790 C   0  0  0  0  0  0  0  0  0  0  0  0
   67.3550   14.9540   57.7020 C   0  0  0  0  0  0  0  0  0  0  0  0
   66.5390   14.5290   56.6680 C   0  0  0  0  0  0  0  0  0  0  0  0
   66.0230   15.3530   55.7300 N   0  0  0  0  0  0  0  0  0  0  0  0
   66.1100   19.8990   52.5180 N   0  0  0  0  0  0  0  0  0  0  0  0
   65.4560   20.3830   51.4530 N   0  0  0  0  0  0  0  0  0  0  0  0
   64.7440   19.4490   50.7560 C   0  0  0  0  0  0  0  0  0  0  0  0
   63.9620   19.5570   49.5980 C   0  0  0  0  0  0  0  0  0  0  0  0
   62.7386   17.0326   43.5415 H   0  0  0  0  0  0  0  0  0  0  0  0
   61.1021   16.4147   43.1330 H   0  0  0  0  0  0  0  0  0  0  0  0
   61.4205   18.1825   43.1330 H   0  0  0  0  0  0  0  0  0  0  0  0
   60.9450   18.1760   45.3750 H   0  0  0  0  0  0  0  0  0  0  0  0
   59.1098   14.7678   46.8249 H   0  0  0  0  0  0  0  0  0  0  0  0
   58.1678   14.9141   49.1241 H   0  0  0  0  0  0  0  0  0  0  0  0
   59.0868   16.5767   50.7403 H   0  0  0  0  0  0  0  0  0  0  0  0
   60.9285   18.1024   50.0471 H   0  0  0  0  0  0  0  0  0  0  0  0
   63.0719   16.2602   49.3750 H   0  0  0  0  0  0  0  0  0  0  0  0
   64.4906   16.1190   51.4277 H   0  0  0  0  0  0  0  0  0  0  0  0
   67.1752   17.1344   53.3233 H   0  0  0  0  0  0  0  0  0  0  0  0
   64.8645   18.1409   55.0597 H   0  0  0  0  0  0  0  0  0  0  0  0
   67.3705   18.2542   56.8646 H   0  0  0  0  0  0  0  0  0  0  0  0
   68.3058   16.6861   58.5855 H   0  0  0  0  0  0  0  0  0  0  0  0
   67.7497   14.2414   58.4412 H   0  0  0  0  0  0  0  0  0  0  0  0
   66.2965   13.4578   56.6064 H   0  0  0  0  0  0  0  0  0  0  0  0
   65.5470   21.3710   51.2480 H   0  0  0  0  0  0  0  0  0  0  0  0
   63.8191   20.5241   49.0937 H   0  0  0  0  0  0  0  0  0  0  0  0
  1  2  1  0
  2  3  1  0
  3  4  2  0
  3  5  1  0
  5  6  2  0
  6  7  1  0
  7  8  2  0
  8  9  1  0
  9 10  2  0
 10 11  1  0
 11 12  1  0
 12 13  2  0
 13 14  1  0
 14 15  2  0
 15 16  1  0
 16 17  1  0
 17 18  2  0
 18 19  1  0
 19 20  2  0
 20 21  1  0
 21 22  2  0
 22 23  1  0
 23 24  2  0
 16 25  2  0
 25 26  1  0
 26 27  1  0
 27 28  2  0
 10  5  1  0
 28 12  1  0
 27 15  1  0
 24 19  1  0
  1 29  1  0
  1 30  1  0
  1 31  1  0
  2 32  1  0
  6 33  1  0
  7 34  1  0
  8 35  1  0
  9 36  1  0
 13 37  1  0
 14 38  1  0
 17 39  1  0
 18 40  1  0
 20 41  1  0
 21 42  1  0
 22 43  1  0
 23 44  1  0
 26 45  1  0
 28 46  1  0
M  END
>  <meeko>  (5) 
{"is_sidechain": [false], "free_energy": -8.746, "intermolecular_energy": -11.112, "internal_energy": -0.087}

$$$$
4twp_ligand
     RDKit          3D

 46 49  0  0  0  0  0  0  0  0999 V2000
   65.1440   23.2110   52.4090 C   0  0  0  0  0  0  0  0  0  0  0  0
   65.2830   21.8380   52.8170 N   0  0  0  0  0  0  0  0  0  0  0  0
   66.5220   21.2890   53.0640 C   0  0  0  0  0  0  0  0  0  0  0  0
   67.5620   21.9390   53.0730 O   0  0  0  0  0  0  0  0  0  0  0  0
   66.5580   19.8340   53.3720 C   0  0  0  0  0  0  0  0  0  0  0  0
   66.6560   19.5000   54.7330 C   0  0  0  0  0  0  0  0  0  0  0  0
   66.6920   18.1680   55.1390 C   0  0  0  0  0  0  0  0  0  0  0  0
   66.6400   17.1540   54.1870 C   0  0  0  0  0  0  0  0  0  0  0  0
   66.5630   17.4750   52.8290 C   0  0  0  0  0  0  0  0  0  0  0  0
   66.5330   18.8150   52.4030 C   0  0  0  0  0  0  0  0  0  0  0  0
   66.4930   19.1010   50.6330 S   0  0  0  0  0  0  0  0  0  0  0  0
   64.8690   18.4650   50.2370 C   0  0  0  0  0  0  0  0  0  0  0  0
   64.4970   17.1680   50.6040 C   0  0  0  0  0  0  0  0  0  0  0  0
   63.2250   16.6660   50.2930 C   0  0  0  0  0  0  0  0  0  0  0  0
   62.3150   17.4750   49.5810 C   0  0  0  0  0  0  0  0  0  0  0  0
   60.9800   17.3570   49.0810 C   0  0  0  0  0  0  0  0  0  0  0  0
   60.1110   16.2210   49.1670 C   0  0  0  0  0  0  0  0  0  0  0  0
   59.4480   15.8050   50.2600 C   0  0  0  0  0  0  0  0  0  0  0  0
   58.5790   14.6200   50.2930 C   0  0  0  0  0  0  0  0  0  0  0  0
   58.3880   13.9300   51.4870 C   0  0  0  0  0  0  0  0  0  0  0  0
   57.5550   12.8120   51.4940 C   0  0  0  0  0  0  0  0  0  0  0  0
   56.9370   12.4180   50.3140 C   0  0  0  0  0  0  0  0  0  0  0  0
   57.1790   13.1610   49.1720 C   0  0  0  0  0  0  0  0  0  0  0  0
   57.9810   14.2480   49.1380 N   0  0  0  0  0  0  0  0  0  0  0  0
   60.5750   18.4990   48.5050 N   0  0  0  0  0  0  0  0  0  0  0  0
   61.6390   19.3080   48.5910 N   0  0  0  0  0  0  0  0  0  0  0  0
   62.7140   18.7610   49.2330 C   0  0  0  0  0  0  0  0  0  0  0  0
   63.9780   19.2860   49.5330 C   0  0  0  0  0  0  0  0  0  0  0  0
   65.0790   23.8534   53.2996 H   0  0  0  0  0  0  0  0  0  0  0  0
   66.0170   23.5050   51.8078 H   0  0  0  0  0  0  0  0  0  0  0  0
   64.2298   23.3241   51.8078 H   0  0  0  0  0  0  0  0  0  0  0  0
   64.4990   21.2120   52.6750 H   0  0  0  0  0  0  0  0  0  0  0  0
   66.7049   20.2996   55.4868 H   0  0  0  0  0  0  0  0  0  0  0  0
   66.7613   17.9184   56.2081 H   0  0  0  0  0  0  0  0  0  0  0  0
   66.6595   16.1006   54.5033 H   0  0  0  0  0  0  0  0  0  0  0  0
   66.5253   16.6679   52.0825 H   0  0  0  0  0  0  0  0  0  0  0  0
   65.2130   16.5318   51.1449 H   0  0  0  0  0  0  0  0  0  0  0  0
   62.9393   15.6496   50.6018 H   0  0  0  0  0  0  0  0  0  0  0  0
   59.9728   15.6315   48.2486 H   0  0  0  0  0  0  0  0  0  0  0  0
   59.5629   16.3870   51.1863 H   0  0  0  0  0  0  0  0  0  0  0  0
   58.8862   14.2615   52.4100 H   0  0  0  0  0  0  0  0  0  0  0  0
   57.3890   12.2481   52.4238 H   0  0  0  0  0  0  0  0  0  0  0  0
   56.2742   11.5405   50.2881 H   0  0  0  0  0  0  0  0  0  0  0  0
   56.6901   12.8486   48.2375 H   0  0  0  0  0  0  0  0  0  0  0  0
   61.5620   20.2380   48.1970 H   0  0  0  0  0  0  0  0  0  0  0  0
   64.2602   20.3043   49.2274 H   0  0  0  0  0  0  0  0  0  0  0  0
  1  2  1  0
  2  3  1  0
  3  4  2  0
  3  5  1  0
  5  6  2  0
  6  7  1  0
  7  8  2  0
  8  9  1  0
  9 10  2  0
 10 11  1  0
 11 12  1  0
 12 13  2  0
 13 14  1  0
 14 15  2  0
 15 16  1  0
 16 17  1  0
 17 18  2  0
 18 19  1  0
 19 20  2  0
 20 21  1  0
 21 22  2  0
 22 23  1  0
 23 24  2  0
 16 25  2  0
 25 26  1  0
 26 27  1  0
 27 28  2  0
 10  5  1  0
 28 12  1  0
 27 15  1  0
 24 19  1  0
  1 29  1  0
  1 30  1  0
  1 31  1  0
  2 32  1  0
  6 33  1  0
  7 34  1  0
  8 35  1  0
  9 36  1  0
 13 37  1  0
 14 38  1  0
 17 39  1  0
 18 40  1  0
 20 41  1  0
 21 42  1  0
 22 43  1  0
 23 44  1  0
 26 45  1  0
 28 46  1  0
M  END
>  <meeko>  (6) 
{"is_sidechain": [false], "free_energy": -8.668, "intermolecular_energy": -10.554, "internal_energy": -0.543}

$$$$
4twp_ligand
     RDKit          3D

 46 49  0  0  0  0  0  0  0  0999 V2000
   67.4150   22.1060   46.6840 C   0  0  0  0  0  0  0  0  0  0  0  0
   67.0740   21.9550   48.0750 N   0  0  0  0  0  0  0  0  0  0  0  0
   65.7650   22.0020   48.4980 C   0  0  0  0  0  0  0  0  0  0  0  0
   64.8060   22.0540   47.7340 O   0  0  0  0  0  0  0  0  0  0  0  0
   65.5350   21.9460   49.9670 C   0  0  0  0  0  0  0  0  0  0  0  0
   65.1990   23.1660   50.5790 C   0  0  0  0  0  0  0  0  0  0  0  0
   64.9560   23.2310   51.9500 C   0  0  0  0  0  0  0  0  0  0  0  0
   65.0550   22.0800   52.7250 C   0  0  0  0  0  0  0  0  0  0  0  0
   65.4090   20.8670   52.1290 C   0  0  0  0  0  0  0  0  0  0  0  0
   65.6640   20.7850   50.7490 C   0  0  0  0  0  0  0  0  0  0  0  0
   66.1660   19.1860   50.1120 S   0  0  0  0  0  0  0  0  0  0  0  0
   64.5690   18.4170   49.8670 C   0  0  0  0  0  0  0  0  0  0  0  0
   64.2910   17.1560   50.4020 C   0  0  0  0  0  0  0  0  0  0  0  0
   63.0410   16.5490   50.2100 C   0  0  0  0  0  0  0  0  0  0  0  0
   62.0580   17.2140   49.4480 C   0  0  0  0  0  0  0  0  0  0  0  0
   60.7150   16.9610   49.0250 C   0  0  0  0  0  0  0  0  0  0  0  0
   59.9200   15.7980   49.2850 C   0  0  0  0  0  0  0  0  0  0  0  0
   59.0480   15.6370   50.2950 C   0  0  0  0  0  0  0  0  0  0  0  0
   58.2690   14.4110   50.5200 C   0  0  0  0  0  0  0  0  0  0  0  0
   58.2500   13.8200   51.7810 C   0  0  0  0  0  0  0  0  0  0  0  0
   57.5000   12.6610   51.9710 C   0  0  0  0  0  0  0  0  0  0  0  0
   56.7900   12.1280   50.9020 C   0  0  0  0  0  0  0  0  0  0  0  0
   56.8620   12.7790   49.6830 C   0  0  0  0  0  0  0  0  0  0  0  0
   57.5800   13.9030   49.4720 N   0  0  0  0  0  0  0  0  0  0  0  0
   60.2200   18.0010   48.3360 N   0  0  0  0  0  0  0  0  0  0  0  0
   61.2350   18.8730   48.2780 N   0  0  0  0  0  0  0  0  0  0  0  0
   62.3650   18.4680   48.9310 C   0  0  0  0  0  0  0  0  0  0  0  0
   63.6050   19.0960   49.1100 C   0  0  0  0  0  0  0  0  0  0  0  0
   68.4178   22.5500   46.5984 H   0  0  0  0  0  0  0  0  0  0  0  0
   67.4075   21.1204   46.1956 H   0  0  0  0  0  0  0  0  0  0  0  0
   66.6802   22.7629   46.1956 H   0  0  0  0  0  0  0  0  0  0  0  0
   67.8070   22.0700   48.7650 H   0  0  0  0  0  0  0  0  0  0  0  0
   65.1271   24.0790   49.9696 H   0  0  0  0  0  0  0  0  0  0  0  0
   64.6868   24.1895   52.4177 H   0  0  0  0  0  0  0  0  0  0  0  0
   64.8548   22.1249   53.8057 H   0  0  0  0  0  0  0  0  0  0  0  0
   65.4894   19.9621   52.7492 H   0  0  0  0  0  0  0  0  0  0  0  0
   65.0643   16.6315   50.9825 H   0  0  0  0  0  0  0  0  0  0  0  0
   62.8294   15.5632   50.6498 H   0  0  0  0  0  0  0  0  0  0  0  0
   60.0345   14.9535   48.5895 H   0  0  0  0  0  0  0  0  0  0  0  0
   58.9089   16.4734   50.9957 H   0  0  0  0  0  0  0  0  0  0  0  0
   58.8179   14.2610   52.6135 H   0  0  0  0  0  0  0  0  0  0  0  0
   57.4703   12.1733   52.9565 H   0  0  0  0  0  0  0  0  0  0  0  0
   56.1881   11.2150   51.0213 H   0  0  0  0  0  0  0  0  0  0  0  0
   56.3015   12.3561   48.8363 H   0  0  0  0  0  0  0  0  0  0  0  0
   61.0870   19.7420   47.7790 H   0  0  0  0  0  0  0  0  0  0  0  0
   63.8135   20.0838   48.6731 H   0  0  0  0  0  0  0  0  0  0  0  0
  1  2  1  0
  2  3  1  0
  3  4  2  0
  3  5  1  0
  5  6  2  0
  6  7  1  0
  7  8  2  0
  8  9  1  0
  9 10  2  0
 10 11  1  0
 11 12  1  0
 12 13  2  0
 13 14  1  0
 14 15  2  0
 15 16  1  0
 16 17  1  0
 17 18  2  0
 18 19  1  0
 19 20  2  0
 20 21  1  0
 21 22  2  0
 22 23  1  0
 23 24  2  0
 16 25  2  0
 25 26  1  0
 26 27  1  0
 27 28  2  0
 10  5  1  0
 28 12  1  0
 27 15  1  0
 24 19  1  0
  1 29  1  0
  1 30  1  0
  1 31  1  0
  2 32  1  0
  6 33  1  0
  7 34  1  0
  8 35  1  0
  9 36  1  0
 13 37  1  0
 14 38  1  0
 17 39  1  0
 18 40  1  0
 20 41  1  0
 21 42  1  0
 22 43  1  0
 23 44  1  0
 26 45  1  0
 28 46  1  0
M  END
>  <meeko>  (7) 
{"is_sidechain": [false], "free_energy": -8.657, "intermolecular_energy": -10.154, "internal_energy": -0.929}

$$$$
4twp_ligand
     RDKit          3D

 46 49  0  0  0  0  0  0  0  0999 V2000
   52.2980    7.8030   55.9270 C   0  0  0  0  0  0  0  0  0  0  0  0
   52.4670    9.2080   56.1870 N   0  0  0  0  0  0  0  0  0  0  0  0
   53.2160    9.6510   57.2540 C   0  0  0  0  0  0  0  0  0  0  0  0
   53.8780    8.9090   57.9730 O   0  0  0  0  0  0  0  0  0  0  0  0
   53.2330   11.1190   57.4950 C   0  0  0  0  0  0  0  0  0  0  0  0
   51.9750   11.7400   57.5700 C   0  0  0  0  0  0  0  0  0  0  0  0
   51.8700   13.1100   57.7980 C   0  0  0  0  0  0  0  0  0  0  0  0
   53.0210   13.8770   57.9450 C   0  0  0  0  0  0  0  0  0  0  0  0
   54.2780   13.2730   57.8520 C   0  0  0  0  0  0  0  0  0  0  0  0
   54.4020   11.8920   57.6160 C   0  0  0  0  0  0  0  0  0  0  0  0
   56.0660   11.2440   57.4580 S   0  0  0  0  0  0  0  0  0  0  0  0
   56.5220   11.9030   55.8590 C   0  0  0  0  0  0  0  0  0  0  0  0
   57.2970   13.0620   55.7560 C   0  0  0  0  0  0  0  0  0  0  0  0
   57.6550   13.5830   54.5040 C   0  0  0  0  0  0  0  0  0  0  0  0
   57.2080   12.9380   53.3320 C   0  0  0  0  0  0  0  0  0  0  0  0
   57.3360   13.1300   51.9190 C   0  0  0  0  0  0  0  0  0  0  0  0
   58.0280   14.1840   51.2380 C   0  0  0  0  0  0  0  0  0  0  0  0
   57.9640   14.4610   49.9250 C   0  0  0  0  0  0  0  0  0  0  0  0
   58.7100   15.5500   49.2780 C   0  0  0  0  0  0  0  0  0  0  0  0
   59.6610   16.2670   49.9990 C   0  0  0  0  0  0  0  0  0  0  0  0
   60.3590   17.2920   49.3620 C   0  0  0  0  0  0  0  0  0  0  0  0
   60.0910   17.5690   48.0270 C   0  0  0  0  0  0  0  0  0  0  0  0
   59.1320   16.8070   47.3840 C   0  0  0  0  0  0  0  0  0  0  0  0
   58.4420   15.8080   47.9780 N   0  0  0  0  0  0  0  0  0  0  0  0
   56.7280   12.1450   51.2400 N   0  0  0  0  0  0  0  0  0  0  0  0
   56.1850   11.3730   52.1910 N   0  0  0  0  0  0  0  0  0  0  0  0
   56.4420   11.7860   53.4680 C   0  0  0  0  0  0  0  0  0  0  0  0
   56.0730   11.2450   54.7060 C   0  0  0  0  0  0  0  0  0  0  0  0
   52.2326    7.2589   56.8808 H   0  0  0  0  0  0  0  0  0  0  0  0
   51.3744    7.6452   55.3507 H   0  0  0  0  0  0  0  0  0  0  0  0
   53.1578    7.4307   55.3507 H   0  0  0  0  0  0  0  0  0  0  0  0
   51.8310    9.8600   55.7430 H   0  0  0  0  0  0  0  0  0  0  0  0
   51.0629   11.1376   57.4473 H   0  0  0  0  0  0  0  0  0  0  0  0
   50.8795   13.5841   57.8616 H   0  0  0  0  0  0  0  0  0  0  0  0
   52.9421   14.9577   58.1342 H   0  0  0  0  0  0  0  0  0  0  0  0
   55.1838   13.8868   57.9651 H   0  0  0  0  0  0  0  0  0  0  0  0
   57.6311   13.5731   56.6709 H   0  0  0  0  0  0  0  0  0  0  0  0
   58.2788   14.4865   54.4367 H   0  0  0  0  0  0  0  0  0  0  0  0
   58.6749   14.8294   51.8503 H   0  0  0  0  0  0  0  0  0  0  0  0
   57.3140   13.8350   49.2960 H   0  0  0  0  0  0  0  0  0  0  0  0
   59.8585   16.0285   51.0545 H   0  0  0  0  0  0  0  0  0  0  0  0
   61.1136   17.8751   49.9102 H   0  0  0  0  0  0  0  0  0  0  0  0
   60.6258   18.3708   47.4969 H   0  0  0  0  0  0  0  0  0  0  0  0
   58.9185   17.0270   46.3276 H   0  0  0  0  0  0  0  0  0  0  0  0
   55.6530   10.5620   51.8980 H   0  0  0  0  0  0  0  0  0  0  0  0
   55.4542   10.3379   54.7709 H   0  0  0  0  0  0  0  0  0  0  0  0
  1  2  1  0
  2  3  1  0
  3  4  2  0
  3  5  1  0
  5  6  2  0
  6  7  1  0
  7  8  2  0
  8  9  1  0
  9 10  2  0
 10 11  1  0
 11 12  1  0
 12 13  2  0
 13 14  1  0
 14 15  2  0
 15 16  1  0
 16 17  1  0
 17 18  2  0
 18 19  1  0
 19 20  2  0
 20 21  1  0
 21 22  2  0
 22 23  1  0
 23 24  2  0
 16 25  2  0
 25 26  1  0
 26 27  1  0
 27 28  2  0
 10  5  1  0
 28 12  1  0
 27 15  1  0
 24 19  1  0
  1 29  1  0
  1 30  1  0
  1 31  1  0
  2 32  1  0
  6 33  1  0
  7 34  1  0
  8 35  1  0
  9 36  1  0
 13 37  1  0
 14 38  1  0
 17 39  1  0
 18 40  1  0
 20 41  1  0
 21 42  1  0
 22 43  1  0
 23 44  1  0
 26 45  1  0
 28 46  1  0
M  END
>  <meeko>  (8) 
{"is_sidechain": [false], "free_energy": -8.643, "intermolecular_energy": -10.258, "internal_energy": -0.808}

$$$$
