1eby_ligand
     RDKit          3D

 88 93  0  0  0  0  0  0  0  0999 V2000
   10.7770   23.6440    6.1910 O   0  0  0  0  0  0  0  0  0  0  0  0
   11.1770   24.5690    5.4820 C   0  0  0  0  0  0  0  0  0  0  0  0
   10.5870   25.8090    5.5100 N   0  0  0  0  0  0  0  0  0  0  0  0
    9.3330   26.0140    6.1910 C   0  0  1  0  0  0  0  0  0  0  0  0
    9.4800   26.7540    7.4930 C   0  0  0  0  0  0  0  0  0  0  0  0
   10.4410   26.5870    8.4780 C   0  0  0  0  0  0  0  0  0  0  0  0
   10.3490   27.3610    9.6360 C   0  0  0  0  0  0  0  0  0  0  0  0
    9.2990   28.2760    9.8030 C   0  0  0  0  0  0  0  0  0  0  0  0
    8.3250   28.4310    8.8140 C   0  0  0  0  0  0  0  0  0  0  0  0
    8.4310   27.6690    7.6620 C   0  0  0  0  0  0  0  0  0  0  0  0
    7.4930   27.6390    6.4900 C   0  0  0  0  0  0  0  0  0  0  0  0
    8.3530   26.9450    5.4150 C   0  0  1  0  0  0  0  0  0  0  0  0
    9.0710   27.9370    4.6540 O   0  0  0  0  0  0  0  0  0  0  0  0
   12.3210   24.4070    4.4510 C   0  0  2  0  0  0  0  0  0  0  0  0
   11.8630   23.5790    3.3700 O   0  0  0  0  0  0  0  0  0  0  0  0
   11.4370   24.3320    2.2340 C   0  0  0  0  0  0  0  0  0  0  0  0
    9.9300   24.3980    2.2290 C   0  0  0  0  0  0  0  0  0  0  0  0
    9.1600   23.3010    2.6380 C   0  0  0  0  0  0  0  0  0  0  0  0
    7.7670   23.3900    2.6770 C   0  0  0  0  0  0  0  0  0  0  0  0
    7.1320   24.5750    2.3070 C   0  0  0  0  0  0  0  0  0  0  0  0
    7.8870   25.6720    1.8980 C   0  0  0  0  0  0  0  0  0  0  0  0
    9.2780   25.5850    1.8610 C   0  0  0  0  0  0  0  0  0  0  0  0
   13.5830   23.7560    5.0720 C   0  0  2  0  0  0  0  0  0  0  0  0
   14.6670   24.7020    5.0110 O   0  0  0  0  0  0  0  0  0  0  0  0
   13.9340   22.4410    4.3190 C   0  0  1  0  0  0  0  0  0  0  0  0
   15.2200   22.5690    3.6790 O   0  0  0  0  0  0  0  0  0  0  0  0
   13.8940   21.1640    5.1820 C   0  0  1  0  0  0  0  0  0  0  0  0
   15.0160   20.3520    4.7970 O   0  0  0  0  0  0  0  0  0  0  0  0
   14.6590   18.9930    4.5440 C   0  0  0  0  0  0  0  0  0  0  0  0
   15.6060   18.4640    3.5010 C   0  0  0  0  0  0  0  0  0  0  0  0
   15.4310   18.7940    2.1500 C   0  0  0  0  0  0  0  0  0  0  0  0
   16.3250   18.3280    1.1850 C   0  0  0  0  0  0  0  0  0  0  0  0
   17.4070   17.5340    1.5620 C   0  0  0  0  0  0  0  0  0  0  0  0
   17.5960   17.2070    2.9030 C   0  0  0  0  0  0  0  0  0  0  0  0
   16.7010   17.6710    3.8680 C   0  0  0  0  0  0  0  0  0  0  0  0
   13.9660   21.5420    6.6660 C   0  0  0  0  0  0  0  0  0  0  0  0
   12.9860   21.9720    7.2730 O   0  0  0  0  0  0  0  0  0  0  0  0
   15.2230   21.4530    7.2000 N   0  0  0  0  0  0  0  0  0  0  0  0
   15.5890   21.9700    8.4970 C   0  0  1  0  0  0  0  0  0  0  0  0
   16.3810   20.9650    9.2780 C   0  0  0  0  0  0  0  0  0  0  0  0
   15.9140   19.8150    9.8960 C   0  0  0  0  0  0  0  0  0  0  0  0
   16.8320   18.9940   10.5530 C   0  0  0  0  0  0  0  0  0  0  0  0
   18.1950   19.3250   10.5770 C   0  0  0  0  0  0  0  0  0  0  0  0
   18.6580   20.4820    9.9480 C   0  0  0  0  0  0  0  0  0  0  0  0
   17.7390   21.2970    9.3070 C   0  0  0  0  0  0  0  0  0  0  0  0
   18.0090   22.5560    8.5470 C   0  0  0  0  0  0  0  0  0  0  0  0
   16.5970   23.1520    8.3660 C   0  0  1  0  0  0  0  0  0  0  0  0
   16.5150   23.8200    7.1020 O   0  0  0  0  0  0  0  0  0  0  0  0
   10.8000   26.4300    4.7310 H   0  0  0  0  0  0  0  0  0  0  0  0
    8.9644   24.9839    6.3053 H   0  0  0  0  0  0  0  0  0  0  0  0
   11.2575   25.8611    8.3500 H   0  0  0  0  0  0  0  0  0  0  0  0
   11.1074   27.2523   10.4253 H   0  0  0  0  0  0  0  0  0  0  0  0
    9.2421   28.8776   10.7222 H   0  0  0  0  0  0  0  0  0  0  0  0
    7.4947   29.1403    8.9465 H   0  0  0  0  0  0  0  0  0  0  0  0
    6.5878   27.0564    6.7163 H   0  0  0  0  0  0  0  0  0  0  0  0
    7.1215   28.6304    6.1914 H   0  0  0  0  0  0  0  0  0  0  0  0
    7.7456   26.3675    4.7025 H   0  0  0  0  0  0  0  0  0  0  0  0
    9.4360   28.5780    5.2880 H   0  0  0  0  0  0  0  0  0  0  0  0
   12.5951   25.4118    4.0972 H   0  0  0  0  0  0  0  0  0  0  0  0
   11.8510   25.3496    2.2891 H   0  0  0  0  0  0  0  0  0  0  0  0
   11.7920   23.8486    1.3119 H   0  0  0  0  0  0  0  0  0  0  0  0
    9.6561   22.3637    2.9302 H   0  0  0  0  0  0  0  0  0  0  0  0
    7.1700   22.5244    2.9999 H   0  0  0  0  0  0  0  0  0  0  0  0
    6.0346   24.6436    2.3381 H   0  0  0  0  0  0  0  0  0  0  0  0
    7.3860   26.6062    1.6044 H   0  0  0  0  0  0  0  0  0  0  0  0
    9.8700   26.4549    1.5404 H   0  0  0  0  0  0  0  0  0  0  0  0
   13.3968   23.4933    6.1238 H   0  0  0  0  0  0  0  0  0  0  0  0
   15.4150   24.3550    5.5410 H   0  0  0  0  0  0  0  0  0  0  0  0
   13.1373   22.3092    3.5721 H   0  0  0  0  0  0  0  0  0  0  0  0
   15.7550   23.1470    4.2600 H   0  0  0  0  0  0  0  0  0  0  0  0
   12.9590   20.6053    5.0282 H   0  0  0  0  0  0  0  0  0  0  0  0
   14.7495   18.4026    5.4677 H   0  0  0  0  0  0  0  0  0  0  0  0
   13.6186   18.9242    4.1936 H   0  0  0  0  0  0  0  0  0  0  0  0
   14.5823   19.4253    1.8480 H   0  0  0  0  0  0  0  0  0  0  0  0
   16.1758   18.5873    0.1265 H   0  0  0  0  0  0  0  0  0  0  0  0
   18.1111   17.1659    0.8012 H   0  0  0  0  0  0  0  0  0  0  0  0
   18.4512   16.5827    3.2013 H   0  0  0  0  0  0  0  0  0  0  0  0
   16.8566   17.4119    4.9257 H   0  0  0  0  0  0  0  0  0  0  0  0
   15.9580   21.0600    6.6140 H   0  0  0  0  0  0  0  0  0  0  0  0
   14.6377   22.2492    8.9736 H   0  0  0  0  0  0  0  0  0  0  0  0
   14.8453   19.5558    9.8692 H   0  0  0  0  0  0  0  0  0  0  0  0
   16.4838   18.0799   11.0561 H   0  0  0  0  0  0  0  0  0  0  0  0
   18.9062   18.6661   11.0968 H   0  0  0  0  0  0  0  0  0  0  0  0
   19.7271   20.7405    9.9609 H   0  0  0  0  0  0  0  0  0  0  0  0
   18.6557   23.2354    9.1217 H   0  0  0  0  0  0  0  0  0  0  0  0
   18.5370   22.3877    7.5968 H   0  0  0  0  0  0  0  0  0  0  0  0
   16.3610   23.9098    9.1276 H   0  0  0  0  0  0  0  0  0  0  0  0
   15.7540   23.4470    6.6110 H   0  0  0  0  0  0  0  0  0  0  0  0
  1  2  2  0
  2  3  1  0
  3  4  1  0
  4  5  1  0
  5  6  2  0
  6  7  1  0
  7  8  2  0
  8  9  1  0
  9 10  2  0
 10 11  1  0
 11 12  1  0
 12 13  1  0
  2 14  1  0
 14 15  1  0
 15 16  1  0
 16 17  1  0
 17 18  2  0
 18 19  1  0
 19 20  2  0
 20 21  1  0
 21 22  2  0
 14 23  1  0
 23 24  1  0
 23 25  1  0
 25 26  1  0
 25 27  1  0
 27 28  1  0
 28 29  1  0
 29 30  1  0
 30 31  2  0
 31 32  1  0
 32 33  2  0
 33 34  1  0
 34 35  2  0
 27 36  1  0
 36 37  2  0
 36 38  1  0
 38 39  1  0
 39 40  1  0
 40 41  2  0
 41 42  1  0
 42 43  2  0
 43 44  1  0
 44 45  2  0
 45 46  1  0
 46 47  1  0
 47 48  1  0
 12  4  1  0
 22 17  1  0
 35 30  1  0
 47 39  1  0
 10  5  1  0
 45 40  1  0
  3 49  1  0
  4 50  1  1
  6 51  1  0
  7 52  1  0
  8 53  1  0
  9 54  1  0
 11 55  1  0
 11 56  1  0
 12 57  1  6
 13 58  1  0
 14 59  1  6
 16 60  1  0
 16 61  1  0
 18 62  1  0
 19 63  1  0
 20 64  1  0
 21 65  1  0
 22 66  1  0
 23 67  1  1
 24 68  1  0
 25 69  1  6
 26 70  1  0
 27 71  1  1
 29 72  1  0
 29 73  1  0
 31 74  1  0
 32 75  1  0
 33 76  1  0
 34 77  1  0
 35 78  1  0
 38 79  1  0
 39 80  1  1
 41 81  1  0
 42 82  1  0
 43 83  1  0
 44 84  1  0
 46 85  1  0
 46 86  1  0
 47 87  1  1
 48 88  1  0
M  END
>  <meeko>  (1) 
{"is_sidechain": [false], "free_energy": -12.258, "intermolecular_energy": -23.007, "internal_energy": -2.713}

$$$$
1eby_ligand
     RDKit          3D

 88 93  0  0  0  0  0  0  0  0999 V2000
   14.1350   20.7920    5.7660 O   0  0  0  0  0  0  0  0  0  0  0  0
   15.1170   21.5340    5.7110 C   0  0  0  0  0  0  0  0  0  0  0  0
   16.3570   21.0670    5.3470 N   0  0  0  0  0  0  0  0  0  0  0  0
   16.6120   19.6510    5.2460 C   0  0  1  0  0  0  0  0  0  0  0  0
   16.6090   19.1490    3.8280 C   0  0  0  0  0  0  0  0  0  0  0  0
   15.7340   19.4670    2.8000 C   0  0  0  0  0  0  0  0  0  0  0  0
   15.8980   18.8340    1.5670 C   0  0  0  0  0  0  0  0  0  0  0  0
   16.9160   17.8870    1.3780 C   0  0  0  0  0  0  0  0  0  0  0  0
   17.7860   17.5600    2.4210 C   0  0  0  0  0  0  0  0  0  0  0  0
   17.6250   18.2030    3.6370 C   0  0  0  0  0  0  0  0  0  0  0  0
   18.4110   17.9910    4.8990 C   0  0  0  0  0  0  0  0  0  0  0  0
   18.0420   19.2460    5.7150 C   0  0  1  0  0  0  0  0  0  0  0  0
   18.9940   20.2950    5.4480 O   0  0  0  0  0  0  0  0  0  0  0  0
   15.0670   23.0290    6.1080 C   0  0  2  0  0  0  0  0  0  0  0  0
   14.9700   23.1290    7.5380 O   0  0  0  0  0  0  0  0  0  0  0  0
   16.2370   23.3120    8.1710 C   0  0  0  0  0  0  0  0  0  0  0  0
   16.6250   22.0300    8.8650 C   0  0  0  0  0  0  0  0  0  0  0  0
   15.6920   21.3080    9.6200 C   0  0  0  0  0  0  0  0  0  0  0  0
   16.0480   20.0970   10.2160 C   0  0  0  0  0  0  0  0  0  0  0  0
   17.3410   19.5970   10.0630 C   0  0  0  0  0  0  0  0  0  0  0  0
   18.2780   20.3060    9.3150 C   0  0  0  0  0  0  0  0  0  0  0  0
   17.9230   21.5140    8.7170 C   0  0  0  0  0  0  0  0  0  0  0  0
   13.8570   23.7640    5.4780 C   0  0  2  0  0  0  0  0  0  0  0  0
   14.3470   24.7180    4.5170 O   0  0  0  0  0  0  0  0  0  0  0  0
   13.0130   24.4570    6.5860 C   0  0  1  0  0  0  0  0  0  0  0  0
   13.0860   25.8900    6.4360 O   0  0  0  0  0  0  0  0  0  0  0  0
   11.5410   24.0030    6.6650 C   0  0  1  0  0  0  0  0  0  0  0  0
   10.7390   25.1830    6.8410 O   0  0  0  0  0  0  0  0  0  0  0  0
    9.6170   24.9700    7.6960 C   0  0  0  0  0  0  0  0  0  0  0  0
    9.4820   26.1830    8.5760 C   0  0  0  0  0  0  0  0  0  0  0  0
   10.5630   26.6180    9.3570 C   0  0  0  0  0  0  0  0  0  0  0  0
   10.4490   27.7590   10.1510 C   0  0  0  0  0  0  0  0  0  0  0  0
    9.2570   28.4820   10.1680 C   0  0  0  0  0  0  0  0  0  0  0  0
    8.1800   28.0650    9.3890 C   0  0  0  0  0  0  0  0  0  0  0  0
    8.2920   26.9220    8.5960 C   0  0  0  0  0  0  0  0  0  0  0  0
   11.1610   23.2610    5.3790 C   0  0  0  0  0  0  0  0  0  0  0  0
   11.5280   22.1070    5.1650 O   0  0  0  0  0  0  0  0  0  0  0  0
   10.4800   24.0310    4.4760 N   0  0  0  0  0  0  0  0  0  0  0  0
   10.2170   23.6360    3.1120 C   0  0  1  0  0  0  0  0  0  0  0  0
    8.7960   23.9200    2.7300 C   0  0  0  0  0  0  0  0  0  0  0  0
    7.6590   23.2300    3.1220 C   0  0  0  0  0  0  0  0  0  0  0  0
    6.4180   23.6820    2.6700 C   0  0  0  0  0  0  0  0  0  0  0  0
    6.3280   24.8130    1.8460 C   0  0  0  0  0  0  0  0  0  0  0  0
    7.4770   25.5050    1.4580 C   0  0  0  0  0  0  0  0  0  0  0  0
    8.7060   25.0440    1.9020 C   0  0  0  0  0  0  0  0  0  0  0  0
   10.0530   25.6400    1.6430 C   0  0  0  0  0  0  0  0  0  0  0  0
   11.0120   24.5230    2.1080 C   0  0  1  0  0  0  0  0  0  0  0  0
   12.1850   25.1070    2.6830 O   0  0  0  0  0  0  0  0  0  0  0  0
   17.1500   21.6680    5.5680 H   0  0  0  0  0  0  0  0  0  0  0  0
   15.8087   19.2289    5.8677 H   0  0  0  0  0  0  0  0  0  0  0  0
   14.9293   20.2012    2.9529 H   0  0  0  0  0  0  0  0  0  0  0  0
   15.2222   19.0801    0.7347 H   0  0  0  0  0  0  0  0  0  0  0  0
   17.0301   17.3975    0.3995 H   0  0  0  0  0  0  0  0  0  0  0  0
   18.5789   16.8107    2.2800 H   0  0  0  0  0  0  0  0  0  0  0  0
   18.0989   17.0713    5.4155 H   0  0  0  0  0  0  0  0  0  0  0  0
   19.4918   17.8680    4.7353 H   0  0  0  0  0  0  0  0  0  0  0  0
   18.0610   19.0607    6.7991 H   0  0  0  0  0  0  0  0  0  0  0  0
   19.2830   20.6480    6.3070 H   0  0  0  0  0  0  0  0  0  0  0  0
   15.9858   23.5042    5.7340 H   0  0  0  0  0  0  0  0  0  0  0  0
   16.9943   23.5667    7.4150 H   0  0  0  0  0  0  0  0  0  0  0  0
   16.1730   24.1289    8.9048 H   0  0  0  0  0  0  0  0  0  0  0  0
   14.6711   21.6982    9.7442 H   0  0  0  0  0  0  0  0  0  0  0  0
   15.3083   19.5367   10.8067 H   0  0  0  0  0  0  0  0  0  0  0  0
   17.6208   18.6427   10.5331 H   0  0  0  0  0  0  0  0  0  0  0  0
   19.2983   19.9125    9.1962 H   0  0  0  0  0  0  0  0  0  0  0  0
   18.6657   22.0680    8.1241 H   0  0  0  0  0  0  0  0  0  0  0  0
   13.2006   23.0451    4.9658 H   0  0  0  0  0  0  0  0  0  0  0  0
   14.4290   24.2730    3.6480 H   0  0  0  0  0  0  0  0  0  0  0  0
   13.4629   24.1412    7.5388 H   0  0  0  0  0  0  0  0  0  0  0  0
   13.3910   26.2370    7.2970 H   0  0  0  0  0  0  0  0  0  0  0  0
   11.3785   23.3123    7.5055 H   0  0  0  0  0  0  0  0  0  0  0  0
    8.7056   24.8394    7.0941 H   0  0  0  0  0  0  0  0  0  0  0  0
    9.7596   24.0644    8.3039 H   0  0  0  0  0  0  0  0  0  0  0  0
   11.5078   26.0549    9.3431 H   0  0  0  0  0  0  0  0  0  0  0  0
   11.3004   28.0888   10.7644 H   0  0  0  0  0  0  0  0  0  0  0  0
    9.1671   29.3807   10.7959 H   0  0  0  0  0  0  0  0  0  0  0  0
    7.2405   28.6371    9.3989 H   0  0  0  0  0  0  0  0  0  0  0  0
    7.4388   26.5987    7.9816 H   0  0  0  0  0  0  0  0  0  0  0  0
   10.2040   24.9680    4.7660 H   0  0  0  0  0  0  0  0  0  0  0  0
   10.4813   22.5692    3.0654 H   0  0  0  0  0  0  0  0  0  0  0  0
    7.7331   22.3471    3.7739 H   0  0  0  0  0  0  0  0  0  0  0  0
    5.5029   23.1464    2.9627 H   0  0  0  0  0  0  0  0  0  0  0  0
    5.3421   25.1586    1.5017 H   0  0  0  0  0  0  0  0  0  0  0  0
    7.4082   26.3950    0.8152 H   0  0  0  0  0  0  0  0  0  0  0  0
   10.1902   25.8614    0.5743 H   0  0  0  0  0  0  0  0  0  0  0  0
   10.2140   26.5975    2.1600 H   0  0  0  0  0  0  0  0  0  0  0  0
   11.3605   23.8946    1.2751 H   0  0  0  0  0  0  0  0  0  0  0  0
   12.5250   25.7810    2.0580 H   0  0  0  0  0  0  0  0  0  0  0  0
  1  2  2  0
  2  3  1  0
  3  4  1  0
  4  5  1  0
  5  6  2  0
  6  7  1  0
  7  8  2  0
  8  9  1  0
  9 10  2  0
 10 11  1  0
 11 12  1  0
 12 13  1  0
  2 14  1  0
 14 15  1  0
 15 16  1  0
 16 17  1  0
 17 18  2  0
 18 19  1  0
 19 20  2  0
 20 21  1  0
 21 22  2  0
 14 23  1  0
 23 24  1  0
 23 25  1  0
 25 26  1  0
 25 27  1  0
 27 28  1  0
 28 29  1  0
 29 30  1  0
 30 31  2  0
 31 32  1  0
 32 33  2  0
 33 34  1  0
 34 35  2  0
 27 36  1  0
 36 37  2  0
 36 38  1  0
 38 39  1  0
 39 40  1  0
 40 41  2  0
 41 42  1  0
 42 43  2  0
 43 44  1  0
 44 45  2  0
 45 46  1  0
 46 47  1  0
 47 48  1  0
 12  4  1  0
 22 17  1  0
 35 30  1  0
 47 39  1  0
 10  5  1  0
 45 40  1  0
  3 49  1  0
  4 50  1  1
  6 51  1  0
  7 52  1  0
  8 53  1  0
  9 54  1  0
 11 55  1  0
 11 56  1  0
 12 57  1  1
 13 58  1  0
 14 59  1  6
 16 60  1  0
 16 61  1  0
 18 62  1  0
 19 63  1  0
 20 64  1  0
 21 65  1  0
 22 66  1  0
 23 67  1  6
 24 68  1  0
 25 69  1  1
 26 70  1  0
 27 71  1  1
 29 72  1  0
 29 73  1  0
 31 74  1  0
 32 75  1  0
 33 76  1  0
 34 77  1  0
 35 78  1  0
 38 79  1  0
 39 80  1  1
 41 81  1  0
 42 82  1  0
 43 83  1  0
 44 84  1  0
 46 85  1  0
 46 86  1  0
 47 87  1  6
 48 88  1  0
M  END
>  <meeko>  (2) 
{"is_sidechain": [false], "free_energy": -12.026, "intermolecular_energy": -22.721, "internal_energy": -2.564}

$$$$
1eby_ligand
     RDKit          3D

 88 93  0  0  0  0  0  0  0  0999 V2000
   14.1260   20.1210    5.2760 O   0  0  0  0  0  0  0  0  0  0  0  0
   15.0050   20.9840    5.3050 C   0  0  0  0  0  0  0  0  0  0  0  0
   16.3360   20.6670    5.1750 N   0  0  0  0  0  0  0  0  0  0  0  0
   16.7760   19.2950    5.2370 C   0  0  1  0  0  0  0  0  0  0  0  0
   16.9060   18.6530    3.8820 C   0  0  0  0  0  0  0  0  0  0  0  0
   16.0460   18.7430    2.7980 C   0  0  0  0  0  0  0  0  0  0  0  0
   16.3480   18.0140    1.6470 C   0  0  0  0  0  0  0  0  0  0  0  0
   17.4880   17.1970    1.5960 C   0  0  0  0  0  0  0  0  0  0  0  0
   18.3430   17.0990    2.6960 C   0  0  0  0  0  0  0  0  0  0  0  0
   18.0440   17.8370    3.8300 C   0  0  0  0  0  0  0  0  0  0  0  0
   18.7900   17.8640    5.1320 C   0  0  0  0  0  0  0  0  0  0  0  0
   18.2230   19.1360    5.7940 C   0  0  1  0  0  0  0  0  0  0  0  0
   19.0420   20.2700    5.4460 O   0  0  0  0  0  0  0  0  0  0  0  0
   14.7070   22.4820    5.5580 C   0  0  2  0  0  0  0  0  0  0  0  0
   14.4600   22.6780    6.9600 O   0  0  0  0  0  0  0  0  0  0  0  0
   15.5980   23.1800    7.6610 C   0  0  0  0  0  0  0  0  0  0  0  0
   16.1620   22.0820    8.5280 C   0  0  0  0  0  0  0  0  0  0  0  0
   15.3370   21.3560    9.3970 C   0  0  0  0  0  0  0  0  0  0  0  0
   15.8590   20.3080   10.1580 C   0  0  0  0  0  0  0  0  0  0  0  0
   17.2100   19.9760   10.0570 C   0  0  0  0  0  0  0  0  0  0  0  0
   18.0400   20.6910    9.1960 C   0  0  0  0  0  0  0  0  0  0  0  0
   17.5190   21.7370    8.4340 C   0  0  0  0  0  0  0  0  0  0  0  0
   13.4720   22.9770    4.7650 C   0  0  2  0  0  0  0  0  0  0  0  0
   13.7220   22.7910    3.3590 O   0  0  0  0  0  0  0  0  0  0  0  0
   13.1830   24.4700    5.0970 C   0  0  1  0  0  0  0  0  0  0  0  0
   14.2060   25.3080    4.5190 O   0  0  0  0  0  0  0  0  0  0  0  0
   11.7860   24.9720    4.6820 C   0  0  1  0  0  0  0  0  0  0  0  0
   11.3450   24.1510    3.5870 O   0  0  0  0  0  0  0  0  0  0  0  0
   10.9140   24.9120    2.4590 C   0  0  0  0  0  0  0  0  0  0  0  0
    9.4280   24.7190    2.3250 C   0  0  0  0  0  0  0  0  0  0  0  0
    8.7890   23.6490    2.9690 C   0  0  0  0  0  0  0  0  0  0  0  0
    7.4070   23.4850    2.8690 C   0  0  0  0  0  0  0  0  0  0  0  0
    6.6480   24.3930    2.1310 C   0  0  0  0  0  0  0  0  0  0  0  0
    7.2700   25.4640    1.4950 C   0  0  0  0  0  0  0  0  0  0  0  0
    8.6530   25.6280    1.5920 C   0  0  0  0  0  0  0  0  0  0  0  0
   10.8270   24.8700    5.8730 C   0  0  0  0  0  0  0  0  0  0  0  0
   10.8620   23.9180    6.6520 O   0  0  0  0  0  0  0  0  0  0  0  0
    9.8890   25.8660    5.9170 N   0  0  0  0  0  0  0  0  0  0  0  0
    8.7450   25.8610    6.7980 C   0  0  1  0  0  0  0  0  0  0  0  0
    9.0400   26.5930    8.0720 C   0  0  0  0  0  0  0  0  0  0  0  0
    9.8260   26.1660    9.1320 C   0  0  0  0  0  0  0  0  0  0  0  0
    9.9940   27.0220   10.2210 C   0  0  0  0  0  0  0  0  0  0  0  0
    9.3880   28.2860   10.2360 C   0  0  0  0  0  0  0  0  0  0  0  0
    8.6010   28.7110    9.1630 C   0  0  0  0  0  0  0  0  0  0  0  0
    8.4300   27.8520    8.0900 C   0  0  0  0  0  0  0  0  0  0  0  0
    7.6650   28.1050    6.8300 C   0  0  0  0  0  0  0  0  0  0  0  0
    7.5740   26.6990    6.2010 C   0  0  1  0  0  0  0  0  0  0  0  0
    7.6320   26.8060    4.7750 O   0  0  0  0  0  0  0  0  0  0  0  0
   17.0020   21.3830    5.4600 H   0  0  0  0  0  0  0  0  0  0  0  0
   16.0052   18.8358    5.8734 H   0  0  0  0  0  0  0  0  0  0  0  0
   15.1465   19.3745    2.8443 H   0  0  0  0  0  0  0  0  0  0  0  0
   15.6860   18.0804    0.7710 H   0  0  0  0  0  0  0  0  0  0  0  0
   17.7102   16.6284    0.6809 H   0  0  0  0  0  0  0  0  0  0  0  0
   19.2319   16.4519    2.6629 H   0  0  0  0  0  0  0  0  0  0  0  0
   18.5759   16.9692    5.7349 H   0  0  0  0  0  0  0  0  0  0  0  0
   19.8841   17.8707    5.0185 H   0  0  0  0  0  0  0  0  0  0  0  0
   18.2150   19.0679    6.8919 H   0  0  0  0  0  0  0  0  0  0  0  0
   18.6660   21.0460    5.8940 H   0  0  0  0  0  0  0  0  0  0  0  0
   15.5812   23.0578    5.2201 H   0  0  0  0  0  0  0  0  0  0  0  0
   16.3604   23.5091    6.9396 H   0  0  0  0  0  0  0  0  0  0  0  0
   15.3024   24.0345    8.2875 H   0  0  0  0  0  0  0  0  0  0  0  0
   14.2708   21.6133    9.4804 H   0  0  0  0  0  0  0  0  0  0  0  0
   15.2040   19.7436   10.8380 H   0  0  0  0  0  0  0  0  0  0  0  0
   17.6200   19.1501   10.6568 H   0  0  0  0  0  0  0  0  0  0  0  0
   19.1059   20.4307    9.1171 H   0  0  0  0  0  0  0  0  0  0  0  0
   18.1778   22.2963    7.7534 H   0  0  0  0  0  0  0  0  0  0  0  0
   12.5812   22.3979    5.0498 H   0  0  0  0  0  0  0  0  0  0  0  0
   14.6640   22.9960    3.1790 H   0  0  0  0  0  0  0  0  0  0  0  0
   13.1977   24.5357    6.1949 H   0  0  0  0  0  0  0  0  0  0  0  0
   13.7390   25.9460    3.9440 H   0  0  0  0  0  0  0  0  0  0  0  0
   11.8146   26.0265    4.3701 H   0  0  0  0  0  0  0  0  0  0  0  0
   11.1420   25.9768    2.6149 H   0  0  0  0  0  0  0  0  0  0  0  0
   11.4318   24.5803    1.5469 H   0  0  0  0  0  0  0  0  0  0  0  0
    9.3822   22.9336    3.5575 H   0  0  0  0  0  0  0  0  0  0  0  0
    6.9159   22.6392    3.3724 H   0  0  0  0  0  0  0  0  0  0  0  0
    5.5586   24.2630    2.0515 H   0  0  0  0  0  0  0  0  0  0  0  0
    6.6710   26.1818    0.9154 H   0  0  0  0  0  0  0  0  0  0  0  0
    9.1383   26.4775    1.0891 H   0  0  0  0  0  0  0  0  0  0  0  0
    9.9680   26.6190    5.2360 H   0  0  0  0  0  0  0  0  0  0  0  0
    8.4996   24.7989    6.9455 H   0  0  0  0  0  0  0  0  0  0  0  0
   10.3055   25.1762    9.1146 H   0  0  0  0  0  0  0  0  0  0  0  0
   10.6078   26.7020   11.0759 H   0  0  0  0  0  0  0  0  0  0  0  0
    9.5336   28.9496   11.1011 H   0  0  0  0  0  0  0  0  0  0  0  0
    8.1283   29.7042    9.1700 H   0  0  0  0  0  0  0  0  0  0  0  0
    6.6648   28.5079    7.0472 H   0  0  0  0  0  0  0  0  0  0  0  0
    8.1401   28.8478    6.1723 H   0  0  0  0  0  0  0  0  0  0  0  0
    6.6224   26.1974    6.4311 H   0  0  0  0  0  0  0  0  0  0  0  0
    6.7140   26.8220    4.4350 H   0  0  0  0  0  0  0  0  0  0  0  0
  1  2  2  0
  2  3  1  0
  3  4  1  0
  4  5  1  0
  5  6  2  0
  6  7  1  0
  7  8  2  0
  8  9  1  0
  9 10  2  0
 10 11  1  0
 11 12  1  0
 12 13  1  0
  2 14  1  0
 14 15  1  0
 15 16  1  0
 16 17  1  0
 17 18  2  0
 18 19  1  0
 19 20  2  0
 20 21  1  0
 21 22  2  0
 14 23  1  0
 23 24  1  0
 23 25  1  0
 25 26  1  0
 25 27  1  0
 27 28  1  0
 28 29  1  0
 29 30  1  0
 30 31  2  0
 31 32  1  0
 32 33  2  0
 33 34  1  0
 34 35  2  0
 27 36  1  0
 36 37  2  0
 36 38  1  0
 38 39  1  0
 39 40  1  0
 40 41  2  0
 41 42  1  0
 42 43  2  0
 43 44  1  0
 44 45  2  0
 45 46  1  0
 46 47  1  0
 47 48  1  0
 12  4  1  0
 22 17  1  0
 35 30  1  0
 47 39  1  0
 10  5  1  0
 45 40  1  0
  3 49  1  0
  4 50  1  1
  6 51  1  0
  7 52  1  0
  8 53  1  0
  9 54  1  0
 11 55  1  0
 11 56  1  0
 12 57  1  1
 13 58  1  0
 14 59  1  6
 16 60  1  0
 16 61  1  0
 18 62  1  0
 19 63  1  0
 20 64  1  0
 21 65  1  0
 22 66  1  0
 23 67  1  1
 24 68  1  0
 25 69  1  1
 26 70  1  0
 27 71  1  6
 29 72  1  0
 29 73  1  0
 31 74  1  0
 32 75  1  0
 33 76  1  0
 34 77  1  0
 35 78  1  0
 38 79  1  0
 39 80  1  1
 41 81  1  0
 42 82  1  0
 43 83  1  0
 44 84  1  0
 46 85  1  0
 46 86  1  0
 47 87  1  6
 48 88  1  0
M  END
>  <meeko>  (3) 
{"is_sidechain": [false], "free_energy": -11.797, "intermolecular_energy": -21.827, "internal_energy": -3.029}

$$$$
1eby_ligand
     RDKit          3D

 88 93  0  0  0  0  0  0  0  0999 V2000
   10.5280   22.8920    3.5960 O   0  0  0  0  0  0  0  0  0  0  0  0
   10.5400   24.0230    4.0850 C   0  0  0  0  0  0  0  0  0  0  0  0
    9.7920   25.0480    3.5570 N   0  0  0  0  0  0  0  0  0  0  0  0
    9.1510   24.9070    2.2730 C   0  0  1  0  0  0  0  0  0  0  0  0
    7.6880   24.5700    2.3760 C   0  0  0  0  0  0  0  0  0  0  0  0
    7.0660   23.6710    3.2290 C   0  0  0  0  0  0  0  0  0  0  0  0
    5.6880   23.4850    3.1110 C   0  0  0  0  0  0  0  0  0  0  0  0
    4.9530   24.1830    2.1400 C   0  0  0  0  0  0  0  0  0  0  0  0
    5.5860   25.0770    1.2740 C   0  0  0  0  0  0  0  0  0  0  0  0
    6.9520   25.2660    1.4070 C   0  0  0  0  0  0  0  0  0  0  0  0
    7.8440   26.1410    0.5750 C   0  0  0  0  0  0  0  0  0  0  0  0
    9.1060   26.2330    1.4560 C   0  0  1  0  0  0  0  0  0  0  0  0
    9.0070   27.3780    2.3260 O   0  0  0  0  0  0  0  0  0  0  0  0
   11.4380   24.4140    5.2840 C   0  0  2  0  0  0  0  0  0  0  0  0
   10.7930   25.4580    6.0300 O   0  0  0  0  0  0  0  0  0  0  0  0
    9.9860   24.9630    7.0990 C   0  0  0  0  0  0  0  0  0  0  0  0
    9.7650   26.0710    8.0980 C   0  0  0  0  0  0  0  0  0  0  0  0
   10.8010   26.4980    8.9400 C   0  0  0  0  0  0  0  0  0  0  0  0
   10.6000   27.5580    9.8260 C   0  0  0  0  0  0  0  0  0  0  0  0
    9.3630   28.2000    9.8800 C   0  0  0  0  0  0  0  0  0  0  0  0
    8.3260   27.7830    9.0490 C   0  0  0  0  0  0  0  0  0  0  0  0
    8.5260   26.7260    8.1610 C   0  0  0  0  0  0  0  0  0  0  0  0
   12.8320   24.9190    4.8320 C   0  0  2  0  0  0  0  0  0  0  0  0
   12.7290   25.4070    3.4810 O   0  0  0  0  0  0  0  0  0  0  0  0
   13.8800   23.7740    4.9440 C   0  0  1  0  0  0  0  0  0  0  0  0
   15.1750   24.3230    5.2620 O   0  0  0  0  0  0  0  0  0  0  0  0
   13.5170   22.6530    5.9390 C   0  0  1  0  0  0  0  0  0  0  0  0
   14.0880   21.4340    5.4350 O   0  0  0  0  0  0  0  0  0  0  0  0
   14.0530   21.3510    4.0100 C   0  0  0  0  0  0  0  0  0  0  0  0
   14.7210   20.0610    3.6170 C   0  0  0  0  0  0  0  0  0  0  0  0
   15.0880   19.8290    2.2840 C   0  0  0  0  0  0  0  0  0  0  0  0
   15.7340   18.6460    1.9220 C   0  0  0  0  0  0  0  0  0  0  0  0
   16.0260   17.6860    2.8910 C   0  0  0  0  0  0  0  0  0  0  0  0
   15.6740   17.9100    4.2200 C   0  0  0  0  0  0  0  0  0  0  0  0
   15.0260   19.0920    4.5820 C   0  0  0  0  0  0  0  0  0  0  0  0
   14.0740   22.9950    7.3260 C   0  0  0  0  0  0  0  0  0  0  0  0
   13.8120   24.0590    7.8840 O   0  0  0  0  0  0  0  0  0  0  0  0
   14.9500   22.0650    7.8150 N   0  0  0  0  0  0  0  0  0  0  0  0
   15.7760   22.2680    8.9820 C   0  0  1  0  0  0  0  0  0  0  0  0
   16.3730   20.9770    9.4550 C   0  0  0  0  0  0  0  0  0  0  0  0
   15.7320   19.9420   10.1200 C   0  0  0  0  0  0  0  0  0  0  0  0
   16.4720   18.8050   10.4490 C   0  0  0  0  0  0  0  0  0  0  0  0
   17.8290   18.7130   10.1050 C   0  0  0  0  0  0  0  0  0  0  0  0
   18.4660   19.7580    9.4320 C   0  0  0  0  0  0  0  0  0  0  0  0
   17.7270   20.8870    9.1180 C   0  0  0  0  0  0  0  0  0  0  0  0
   18.1870   22.1030    8.3780 C   0  0  0  0  0  0  0  0  0  0  0  0
   17.0430   23.1070    8.6330 C   0  0  1  0  0  0  0  0  0  0  0  0
   16.8660   23.9360    7.4800 O   0  0  0  0  0  0  0  0  0  0  0  0
   10.0450   25.9900    3.8500 H   0  0  0  0  0  0  0  0  0  0  0  0
    9.7560   24.1191    1.8007 H   0  0  0  0  0  0  0  0  0  0  0  0
    7.6458   23.1168    3.9818 H   0  0  0  0  0  0  0  0  0  0  0  0
    5.1730   22.7849    3.7852 H   0  0  0  0  0  0  0  0  0  0  0  0
    3.8674   24.0242    2.0605 H   0  0  0  0  0  0  0  0  0  0  0  0
    5.0143   25.6177    0.5054 H   0  0  0  0  0  0  0  0  0  0  0  0
    8.0670   25.6767   -0.3969 H   0  0  0  0  0  0  0  0  0  0  0  0
    7.4030   27.1172    0.3250 H   0  0  0  0  0  0  0  0  0  0  0  0
   10.0231   26.3573    0.8614 H   0  0  0  0  0  0  0  0  0  0  0  0
    8.4140   28.0170    1.8960 H   0  0  0  0  0  0  0  0  0  0  0  0
   11.5840   23.5137    5.8990 H   0  0  0  0  0  0  0  0  0  0  0  0
    9.0172   24.6236    6.7037 H   0  0  0  0  0  0  0  0  0  0  0  0
   10.4920   24.1168    7.5869 H   0  0  0  0  0  0  0  0  0  0  0  0
   11.7784   25.9948    8.9025 H   0  0  0  0  0  0  0  0  0  0  0  0
   11.4187   27.8875   10.4827 H   0  0  0  0  0  0  0  0  0  0  0  0
    9.2065   29.0352   10.5785 H   0  0  0  0  0  0  0  0  0  0  0  0
    7.3493   28.2872    9.0929 H   0  0  0  0  0  0  0  0  0  0  0  0
    7.7048   26.4031    7.5042 H   0  0  0  0  0  0  0  0  0  0  0  0
   13.1693   25.7386    5.4836 H   0  0  0  0  0  0  0  0  0  0  0  0
   12.4850   24.6590    2.8960 H   0  0  0  0  0  0  0  0  0  0  0  0
   13.8934   23.2894    3.9566 H   0  0  0  0  0  0  0  0  0  0  0  0
   15.1420   24.5630    6.2100 H   0  0  0  0  0  0  0  0  0  0  0  0
   12.4272   22.5416    6.0388 H   0  0  0  0  0  0  0  0  0  0  0  0
   13.0106   21.3567    3.6587 H   0  0  0  0  0  0  0  0  0  0  0  0
   14.5714   22.2097    3.5584 H   0  0  0  0  0  0  0  0  0  0  0  0
   14.8650   20.5855    1.5172 H   0  0  0  0  0  0  0  0  0  0  0  0
   16.0129   18.4706    0.8725 H   0  0  0  0  0  0  0  0  0  0  0  0
   16.5338   16.7528    2.6059 H   0  0  0  0  0  0  0  0  0  0  0  0
   15.9070   17.1546    4.9849 H   0  0  0  0  0  0  0  0  0  0  0  0
   14.7525   19.2642    5.6335 H   0  0  0  0  0  0  0  0  0  0  0  0
   15.0760   21.2070    7.2810 H   0  0  0  0  0  0  0  0  0  0  0  0
   15.1168   22.7465    9.7212 H   0  0  0  0  0  0  0  0  0  0  0  0
   14.6661   20.0155   10.3818 H   0  0  0  0  0  0  0  0  0  0  0  0
   15.9871   17.9742   10.9825 H   0  0  0  0  0  0  0  0  0  0  0  0
   18.3971   17.8085   10.3680 H   0  0  0  0  0  0  0  0  0  0  0  0
   19.5289   19.6863    9.1579 H   0  0  0  0  0  0  0  0  0  0  0  0
   19.1398   22.4763    8.7814 H   0  0  0  0  0  0  0  0  0  0  0  0
   18.3768   21.9189    7.3103 H   0  0  0  0  0  0  0  0  0  0  0  0
   17.2611   23.7885    9.4685 H   0  0  0  0  0  0  0  0  0  0  0  0
   17.4370   24.7250    7.5840 H   0  0  0  0  0  0  0  0  0  0  0  0
  1  2  2  0
  2  3  1  0
  3  4  1  0
  4  5  1  0
  5  6  2  0
  6  7  1  0
  7  8  2  0
  8  9  1  0
  9 10  2  0
 10 11  1  0
 11 12  1  0
 12 13  1  0
  2 14  1  0
 14 15  1  0
 15 16  1  0
 16 17  1  0
 17 18  2  0
 18 19  1  0
 19 20  2  0
 20 21  1  0
 21 22  2  0
 14 23  1  0
 23 24  1  0
 23 25  1  0
 25 26  1  0
 25 27  1  0
 27 28  1  0
 28 29  1  0
 29 30  1  0
 30 31  2  0
 31 32  1  0
 32 33  2  0
 33 34  1  0
 34 35  2  0
 27 36  1  0
 36 37  2  0
 36 38  1  0
 38 39  1  0
 39 40  1  0
 40 41  2  0
 41 42  1  0
 42 43  2  0
 43 44  1  0
 44 45  2  0
 45 46  1  0
 46 47  1  0
 47 48  1  0
 12  4  1  0
 22 17  1  0
 35 30  1  0
 47 39  1  0
 10  5  1  0
 45 40  1  0
  3 49  1  0
  4 50  1  6
  6 51  1  0
  7 52  1  0
  8 53  1  0
  9 54  1  0
 11 55  1  0
 11 56  1  0
 12 57  1  6
 13 58  1  0
 14 59  1  1
 16 60  1  0
 16 61  1  0
 18 62  1  0
 19 63  1  0
 20 64  1  0
 21 65  1  0
 22 66  1  0
 23 67  1  1
 24 68  1  0
 25 69  1  6
 26 70  1  0
 27 71  1  1
 29 72  1  0
 29 73  1  0
 31 74  1  0
 32 75  1  0
 33 76  1  0
 34 77  1  0
 35 78  1  0
 38 79  1  0
 39 80  1  1
 41 81  1  0
 42 82  1  0
 43 83  1  0
 44 84  1  0
 46 85  1  0
 46 86  1  0
 47 87  1  1
 48 88  1  0
M  END
>  <meeko>  (4) 
{"is_sidechain": [false], "free_energy": -11.105, "intermolecular_energy": -20.335, "internal_energy": -3.221}

$$$$
1eby_ligand
     RDKit          3D

 88 93  0  0  0  0  0  0  0  0999 V2000
   10.6540   23.9300    6.4980 O   0  0  0  0  0  0  0  0  0  0  0  0
   11.0930   24.8360    5.7880 C   0  0  0  0  0  0  0  0  0  0  0  0
   10.4470   26.0430    5.6740 N   0  0  0  0  0  0  0  0  0  0  0  0
    9.1120   26.2170    6.1900 C   0  0  1  0  0  0  0  0  0  0  0  0
    9.0730   26.9810    7.4860 C   0  0  0  0  0  0  0  0  0  0  0  0
    9.9090   26.8610    8.5850 C   0  0  0  0  0  0  0  0  0  0  0  0
    9.6500   27.6500    9.7070 C   0  0  0  0  0  0  0  0  0  0  0  0
    8.5590   28.5320    9.7250 C   0  0  0  0  0  0  0  0  0  0  0  0
    7.7110   28.6390    8.6210 C   0  0  0  0  0  0  0  0  0  0  0  0
    7.9840   27.8630    7.5060 C   0  0  0  0  0  0  0  0  0  0  0  0
    7.2000   27.7850    6.2270 C   0  0  0  0  0  0  0  0  0  0  0  0
    8.2080   27.1030    5.2810 C   0  0  1  0  0  0  0  0  0  0  0  0
    8.9840   28.1060    4.5960 O   0  0  0  0  0  0  0  0  0  0  0  0
   12.3590   24.6810    4.9090 C   0  0  2  0  0  0  0  0  0  0  0  0
   11.9870   24.8140    3.5280 O   0  0  0  0  0  0  0  0  0  0  0  0
   11.2710   23.6830    3.0320 C   0  0  0  0  0  0  0  0  0  0  0  0
    9.8870   24.1210    2.6240 C   0  0  0  0  0  0  0  0  0  0  0  0
    8.7740   23.3020    2.8570 C   0  0  0  0  0  0  0  0  0  0  0  0
    7.4910   23.7390    2.5210 C   0  0  0  0  0  0  0  0  0  0  0  0
    7.3090   24.9980    1.9490 C   0  0  0  0  0  0  0  0  0  0  0  0
    8.4080   25.8210    1.7120 C   0  0  0  0  0  0  0  0  0  0  0  0
    9.6900   25.3870    2.0500 C   0  0  0  0  0  0  0  0  0  0  0  0
   13.0450   23.3060    5.1060 C   0  0  2  0  0  0  0  0  0  0  0  0
   12.7710   22.8410    6.4420 O   0  0  0  0  0  0  0  0  0  0  0  0
   14.5750   23.4280    4.8510 C   0  0  1  0  0  0  0  0  0  0  0  0
   14.9610   24.8180    4.8360 O   0  0  0  0  0  0  0  0  0  0  0  0
   15.4640   22.6380    5.8320 C   0  0  1  0  0  0  0  0  0  0  0  0
   15.0380   22.9770    7.1630 O   0  0  0  0  0  0  0  0  0  0  0  0
   16.1220   23.3400    8.0180 C   0  0  0  0  0  0  0  0  0  0  0  0
   16.5500   22.1010    8.7560 C   0  0  0  0  0  0  0  0  0  0  0  0
   17.9020   21.7330    8.8030 C   0  0  0  0  0  0  0  0  0  0  0  0
   18.3040   20.5990    9.5100 C   0  0  0  0  0  0  0  0  0  0  0  0
   17.3590   19.8270   10.1850 C   0  0  0  0  0  0  0  0  0  0  0  0
   16.0150   20.1880   10.1530 C   0  0  0  0  0  0  0  0  0  0  0  0
   15.6110   21.3200    9.4430 C   0  0  0  0  0  0  0  0  0  0  0  0
   15.3150   21.1360    5.5680 C   0  0  0  0  0  0  0  0  0  0  0  0
   14.2370   20.5600    5.7000 O   0  0  0  0  0  0  0  0  0  0  0  0
   16.4940   20.5050    5.2780 N   0  0  0  0  0  0  0  0  0  0  0  0
   16.6500   19.0710    5.2190 C   0  0  1  0  0  0  0  0  0  0  0  0
   16.4450   18.5600    3.8250 C   0  0  0  0  0  0  0  0  0  0  0  0
   15.2460   18.4320    3.1380 C   0  0  0  0  0  0  0  0  0  0  0  0
   15.2800   17.9570    1.8260 C   0  0  0  0  0  0  0  0  0  0  0  0
   16.5000   17.6260    1.2180 C   0  0  0  0  0  0  0  0  0  0  0  0
   17.7030   17.7610    1.9150 C   0  0  0  0  0  0  0  0  0  0  0  0
   17.6600   18.2230    3.2200 C   0  0  0  0  0  0  0  0  0  0  0  0
   18.8140   18.4760    4.1380 C   0  0  0  0  0  0  0  0  0  0  0  0
   18.1250   18.6550    5.5070 C   0  0  1  0  0  0  0  0  0  0  0  0
   18.8390   19.6230    6.2820 O   0  0  0  0  0  0  0  0  0  0  0  0
   10.7230   26.6330    4.8900 H   0  0  0  0  0  0  0  0  0  0  0  0
    8.7639   25.1772    6.2771 H   0  0  0  0  0  0  0  0  0  0  0  0
   10.7569   26.1603    8.5733 H   0  0  0  0  0  0  0  0  0  0  0  0
   10.3078   27.5796   10.5858 H   0  0  0  0  0  0  0  0  0  0  0  0
    8.3698   29.1456   10.6182 H   0  0  0  0  0  0  0  0  0  0  0  0
    6.8486   29.3216    8.6360 H   0  0  0  0  0  0  0  0  0  0  0  0
    6.2917   27.1769    6.3503 H   0  0  0  0  0  0  0  0  0  0  0  0
    6.8385   28.7591    5.8658 H   0  0  0  0  0  0  0  0  0  0  0  0
    7.7120   26.4946    4.5104 H   0  0  0  0  0  0  0  0  0  0  0  0
    8.9130   28.9280    5.1110 H   0  0  0  0  0  0  0  0  0  0  0  0
   13.0719   25.4630    5.2093 H   0  0  0  0  0  0  0  0  0  0  0  0
   11.7978   23.2654    2.1613 H   0  0  0  0  0  0  0  0  0  0  0  0
   11.2025   22.9130    3.8146 H   0  0  0  0  0  0  0  0  0  0  0  0
    8.9120   22.3081    3.3077 H   0  0  0  0  0  0  0  0  0  0  0  0
    6.6230   23.0896    2.7076 H   0  0  0  0  0  0  0  0  0  0  0  0
    6.2978   25.3412    1.6850 H   0  0  0  0  0  0  0  0  0  0  0  0
    8.2648   26.8128    1.2584 H   0  0  0  0  0  0  0  0  0  0  0  0
   10.5539   26.0423    1.8652 H   0  0  0  0  0  0  0  0  0  0  0  0
   12.6477   22.5767    4.3847 H   0  0  0  0  0  0  0  0  0  0  0  0
   11.8590   23.1060    6.6840 H   0  0  0  0  0  0  0  0  0  0  0  0
   14.7481   22.9645    3.8686 H   0  0  0  0  0  0  0  0  0  0  0  0
   14.2630   25.2880    4.3370 H   0  0  0  0  0  0  0  0  0  0  0  0
   16.5265   22.8922    5.7039 H   0  0  0  0  0  0  0  0  0  0  0  0
   16.9589   23.7284    7.4191 H   0  0  0  0  0  0  0  0  0  0  0  0
   15.8125   24.1243    8.7244 H   0  0  0  0  0  0  0  0  0  0  0  0
   18.6520   22.3431    8.2783 H   0  0  0  0  0  0  0  0  0  0  0  0
   19.3662   20.3141    9.5348 H   0  0  0  0  0  0  0  0  0  0  0  0
   17.6755   18.9331   10.7425 H   0  0  0  0  0  0  0  0  0  0  0  0
   15.2702   19.5804   10.6879 H   0  0  0  0  0  0  0  0  0  0  0  0
   14.5477   21.6010    9.4227 H   0  0  0  0  0  0  0  0  0  0  0  0
   17.3260   21.0840    5.1670 H   0  0  0  0  0  0  0  0  0  0  0  0
   15.9266   18.6731    5.9459 H   0  0  0  0  0  0  0  0  0  0  0  0
   14.2918   18.6985    3.6160 H   0  0  0  0  0  0  0  0  0  0  0  0
   14.3417   17.8412    1.2638 H   0  0  0  0  0  0  0  0  0  0  0  0
   16.5095   17.2564    0.1820 H   0  0  0  0  0  0  0  0  0  0  0  0
   18.6614   17.5065    1.4389 H   0  0  0  0  0  0  0  0  0  0  0  0
   19.5057   17.6208    4.1508 H   0  0  0  0  0  0  0  0  0  0  0  0
   19.4267   19.3400    3.8413 H   0  0  0  0  0  0  0  0  0  0  0  0
   18.1254   17.7289    6.1006 H   0  0  0  0  0  0  0  0  0  0  0  0
   19.3790   20.1630    5.6680 H   0  0  0  0  0  0  0  0  0  0  0  0
  1  2  2  0
  2  3  1  0
  3  4  1  0
  4  5  1  0
  5  6  2  0
  6  7  1  0
  7  8  2  0
  8  9  1  0
  9 10  2  0
 10 11  1  0
 11 12  1  0
 12 13  1  0
  2 14  1  0
 14 15  1  0
 15 16  1  0
 16 17  1  0
 17 18  2  0
 18 19  1  0
 19 20  2  0
 20 21  1  0
 21 22  2  0
 14 23  1  0
 23 24  1  0
 23 25  1  0
 25 26  1  0
 25 27  1  0
 27 28  1  0
 28 29  1  0
 29 30  1  0
 30 31  2  0
 31 32  1  0
 32 33  2  0
 33 34  1  0
 34 35  2  0
 27 36  1  0
 36 37  2  0
 36 38  1  0
 38 39  1  0
 39 40  1  0
 40 41  2  0
 41 42  1  0
 42 43  2  0
 43 44  1  0
 44 45  2  0
 45 46  1  0
 46 47  1  0
 47 48  1  0
 12  4  1  0
 22 17  1  0
 35 30  1  0
 47 39  1  0
 10  5  1  0
 45 40  1  0
  3 49  1  0
  4 50  1  1
  6 51  1  0
  7 52  1  0
  8 53  1  0
  9 54  1  0
 11 55  1  0
 11 56  1  0
 12 57  1  6
 13 58  1  0
 14 59  1  1
 16 60  1  0
 16 61  1  0
 18 62  1  0
 19 63  1  0
 20 64  1  0
 21 65  1  0
 22 66  1  0
 23 67  1  6
 24 68  1  0
 25 69  1  6
 26 70  1  0
 27 71  1  1
 29 72  1  0
 29 73  1  0
 31 74  1  0
 32 75  1  0
 33 76  1  0
 34 77  1  0
 35 78  1  0
 38 79  1  0
 39 80  1  1
 41 81  1  0
 42 82  1  0
 43 83  1  0
 44 84  1  0
 46 85  1  0
 46 86  1  0
 47 87  1  1
 48 88  1  0
M  END
>  <meeko>  (5) 
{"is_sidechain": [false], "free_energy": -11.052, "intermolecular_energy": -21.252, "internal_energy": -2.205}

$$$$
1eby_ligand
     RDKit          3D

 88 93  0  0  0  0  0  0  0  0999 V2000
   14.5890   23.1690    8.6220 O   0  0  0  0  0  0  0  0  0  0  0  0
   14.7690   22.2520    7.8190 C   0  0  0  0  0  0  0  0  0  0  0  0
   15.7040   21.2700    8.0390 N   0  0  0  0  0  0  0  0  0  0  0  0
   16.6730   21.3990    9.0990 C   0  0  1  0  0  0  0  0  0  0  0  0
   17.0000   20.0900    9.7660 C   0  0  0  0  0  0  0  0  0  0  0  0
   16.1350   19.0740   10.1430 C   0  0  0  0  0  0  0  0  0  0  0  0
   16.6640   17.9610   10.7980 C   0  0  0  0  0  0  0  0  0  0  0  0
   18.0360   17.8810   11.0810 C   0  0  0  0  0  0  0  0  0  0  0  0
   18.9000   18.9140   10.7110 C   0  0  0  0  0  0  0  0  0  0  0  0
   18.3700   20.0090   10.0490 C   0  0  0  0  0  0  0  0  0  0  0  0
   19.0920   21.2430    9.5890 C   0  0  0  0  0  0  0  0  0  0  0  0
   18.0780   21.8510    8.5990 C   0  0  1  0  0  0  0  0  0  0  0  0
   18.3420   21.3550    7.2710 O   0  0  0  0  0  0  0  0  0  0  0  0
   14.0210   22.1570    6.4660 C   0  0  2  0  0  0  0  0  0  0  0  0
   14.4040   20.9400    5.8060 O   0  0  0  0  0  0  0  0  0  0  0  0
   14.2130   20.9900    4.3920 C   0  0  0  0  0  0  0  0  0  0  0  0
   14.9770   19.8550    3.7560 C   0  0  0  0  0  0  0  0  0  0  0  0
   15.4740   18.7980    4.5300 C   0  0  0  0  0  0  0  0  0  0  0  0
   16.1350   17.7280    3.9260 C   0  0  0  0  0  0  0  0  0  0  0  0
   16.3050   17.7030    2.5420 C   0  0  0  0  0  0  0  0  0  0  0  0
   15.8150   18.7480    1.7610 C   0  0  0  0  0  0  0  0  0  0  0  0
   15.1530   19.8170    2.3640 C   0  0  0  0  0  0  0  0  0  0  0  0
   14.3450   23.3500    5.5310 C   0  0  2  0  0  0  0  0  0  0  0  0
   15.6870   23.7980    5.8040 O   0  0  0  0  0  0  0  0  0  0  0  0
   13.3120   24.4930    5.7420 C   0  0  1  0  0  0  0  0  0  0  0  0
   13.2130   25.2930    4.5450 O   0  0  0  0  0  0  0  0  0  0  0  0
   11.9110   24.0320    6.1910 C   0  0  1  0  0  0  0  0  0  0  0  0
   11.1840   25.2040    6.5970 O   0  0  0  0  0  0  0  0  0  0  0  0
   11.6560   25.7530    7.8270 C   0  0  0  0  0  0  0  0  0  0  0  0
   10.5740   26.6490    8.3660 C   0  0  0  0  0  0  0  0  0  0  0  0
   10.6940   27.2190    9.6420 C   0  0  0  0  0  0  0  0  0  0  0  0
    9.7050   28.0730   10.1320 C   0  0  0  0  0  0  0  0  0  0  0  0
    8.5910   28.3720    9.3490 C   0  0  0  0  0  0  0  0  0  0  0  0
    8.4660   27.8190    8.0770 C   0  0  0  0  0  0  0  0  0  0  0  0
    9.4530   26.9630    7.5870 C   0  0  0  0  0  0  0  0  0  0  0  0
   11.2080   23.3170    5.0320 C   0  0  0  0  0  0  0  0  0  0  0  0
   11.1970   22.0900    4.9390 O   0  0  0  0  0  0  0  0  0  0  0  0
   10.6980   24.1640    4.0860 N   0  0  0  0  0  0  0  0  0  0  0  0
   10.2000   23.7350    2.8000 C   0  0  1  0  0  0  0  0  0  0  0  0
    8.7210   23.9540    2.6900 C   0  0  0  0  0  0  0  0  0  0  0  0
    7.7100   23.2240    3.2970 C   0  0  0  0  0  0  0  0  0  0  0  0
    6.3880   23.6170    3.0840 C   0  0  0  0  0  0  0  0  0  0  0  0
    6.0950   24.7290    2.2810 C   0  0  0  0  0  0  0  0  0  0  0  0
    7.1190   25.4610    1.6770 C   0  0  0  0  0  0  0  0  0  0  0  0
    8.4280   25.0590    1.8850 C   0  0  0  0  0  0  0  0  0  0  0  0
    9.6750   25.7060    1.3710 C   0  0  0  0  0  0  0  0  0  0  0  0
   10.7520   24.6380    1.6560 C   0  0  1  0  0  0  0  0  0  0  0  0
   11.9860   25.2790    1.9930 O   0  0  0  0  0  0  0  0  0  0  0  0
   15.9690   20.7070    7.2320 H   0  0  0  0  0  0  0  0  0  0  0  0
   16.1870   22.1267    9.7655 H   0  0  0  0  0  0  0  0  0  0  0  0
   15.0579   19.1436    9.9309 H   0  0  0  0  0  0  0  0  0  0  0  0
   15.9982   17.1375   11.0956 H   0  0  0  0  0  0  0  0  0  0  0  0
   18.4348   16.9964   11.5991 H   0  0  0  0  0  0  0  0  0  0  0  0
   19.9746   18.8593   10.9396 H   0  0  0  0  0  0  0  0  0  0  0  0
   19.2919   21.9261   10.4277 H   0  0  0  0  0  0  0  0  0  0  0  0
   20.0798   21.0430    9.1483 H   0  0  0  0  0  0  0  0  0  0  0  0
   18.1431   22.9482    8.5543 H   0  0  0  0  0  0  0  0  0  0  0  0
   18.7790   20.4910    7.3670 H   0  0  0  0  0  0  0  0  0  0  0  0
   12.9420   22.1752    6.6790 H   0  0  0  0  0  0  0  0  0  0  0  0
   13.1424   20.8903    4.1601 H   0  0  0  0  0  0  0  0  0  0  0  0
   14.5777   21.9509    4.0001 H   0  0  0  0  0  0  0  0  0  0  0  0
   15.3420   18.8119    5.6220 H   0  0  0  0  0  0  0  0  0  0  0  0
   16.5225   16.9032    4.5421 H   0  0  0  0  0  0  0  0  0  0  0  0
   16.8258   16.8586    2.0669 H   0  0  0  0  0  0  0  0  0  0  0  0
   15.9503   18.7296    0.6695 H   0  0  0  0  0  0  0  0  0  0  0  0
   14.7652   20.6380    1.7431 H   0  0  0  0  0  0  0  0  0  0  0  0
   14.2792   23.0368    4.4786 H   0  0  0  0  0  0  0  0  0  0  0  0
   16.3160   23.1310    5.4580 H   0  0  0  0  0  0  0  0  0  0  0  0
   13.7013   25.0896    6.5801 H   0  0  0  0  0  0  0  0  0  0  0  0
   12.2890   25.2070    4.2380 H   0  0  0  0  0  0  0  0  0  0  0  0
   11.9720   23.3224    7.0293 H   0  0  0  0  0  0  0  0  0  0  0  0
   11.8660   24.9449    8.5431 H   0  0  0  0  0  0  0  0  0  0  0  0
   12.5852   26.3197    7.6675 H   0  0  0  0  0  0  0  0  0  0  0  0
   11.5743   26.9912   10.2611 H   0  0  0  0  0  0  0  0  0  0  0  0
    9.8045   28.5104   11.1364 H   0  0  0  0  0  0  0  0  0  0  0  0
    7.8111   29.0444    9.7357 H   0  0  0  0  0  0  0  0  0  0  0  0
    7.5884   28.0572    7.4580 H   0  0  0  0  0  0  0  0  0  0  0  0
    9.3499   26.5312    6.5806 H   0  0  0  0  0  0  0  0  0  0  0  0
   10.7380   25.1640    4.2760 H   0  0  0  0  0  0  0  0  0  0  0  0
   10.4969   22.6793    2.7143 H   0  0  0  0  0  0  0  0  0  0  0  0
    7.9445   22.3562    3.9310 H   0  0  0  0  0  0  0  0  0  0  0  0
    5.5687   23.0498    3.5499 H   0  0  0  0  0  0  0  0  0  0  0  0
    5.0477   25.0274    2.1255 H   0  0  0  0  0  0  0  0  0  0  0  0
    6.8916   26.3363    1.0508 H   0  0  0  0  0  0  0  0  0  0  0  0
    9.5986   25.9150    0.2937 H   0  0  0  0  0  0  0  0  0  0  0  0
    9.8884   26.6778    1.8401 H   0  0  0  0  0  0  0  0  0  0  0  0
   10.9642   24.0107    0.7777 H   0  0  0  0  0  0  0  0  0  0  0  0
   12.2320   25.8700    1.2520 H   0  0  0  0  0  0  0  0  0  0  0  0
  1  2  2  0
  2  3  1  0
  3  4  1  0
  4  5  1  0
  5  6  2  0
  6  7  1  0
  7  8  2  0
  8  9  1  0
  9 10  2  0
 10 11  1  0
 11 12  1  0
 12 13  1  0
  2 14  1  0
 14 15  1  0
 15 16  1  0
 16 17  1  0
 17 18  2  0
 18 19  1  0
 19 20  2  0
 20 21  1  0
 21 22  2  0
 14 23  1  0
 23 24  1  0
 23 25  1  0
 25 26  1  0
 25 27  1  0
 27 28  1  0
 28 29  1  0
 29 30  1  0
 30 31  2  0
 31 32  1  0
 32 33  2  0
 33 34  1  0
 34 35  2  0
 27 36  1  0
 36 37  2  0
 36 38  1  0
 38 39  1  0
 39 40  1  0
 40 41  2  0
 41 42  1  0
 42 43  2  0
 43 44  1  0
 44 45  2  0
 45 46  1  0
 46 47  1  0
 47 48  1  0
 12  4  1  0
 22 17  1  0
 35 30  1  0
 47 39  1  0
 10  5  1  0
 45 40  1  0
  3 49  1  0
  4 50  1  1
  6 51  1  0
  7 52  1  0
  8 53  1  0
  9 54  1  0
 11 55  1  0
 11 56  1  0
 12 57  1  6
 13 58  1  0
 14 59  1  1
 16 60  1  0
 16 61  1  0
 18 62  1  0
 19 63  1  0
 20 64  1  0
 21 65  1  0
 22 66  1  0
 23 67  1  6
 24 68  1  0
 25 69  1  1
 26 70  1  0
 27 71  1  1
 29 72  1  0
 29 73  1  0
 31 74  1  0
 32 75  1  0
 33 76  1  0
 34 77  1  0
 35 78  1  0
 38 79  1  0
 39 80  1  6
 41 81  1  0
 42 82  1  0
 43 83  1  0
 44 84  1  0
 46 85  1  0
 46 86  1  0
 47 87  1  6
 48 88  1  0
M  END
>  <meeko>  (6) 
{"is_sidechain": [false], "free_energy": -10.831, "intermolecular_energy": -19.948, "internal_energy": -3.094}

$$$$
1eby_ligand
     RDKit          3D

 88 93  0  0  0  0  0  0  0  0999 V2000
   10.1170   22.8230    4.0940 O   0  0  0  0  0  0  0  0  0  0  0  0
   10.0560   23.9480    4.5920 C   0  0  0  0  0  0  0  0  0  0  0  0
    9.3890   24.9780    3.9740 N   0  0  0  0  0  0  0  0  0  0  0  0
    8.9360   24.8510    2.6110 C   0  0  1  0  0  0  0  0  0  0  0  0
    7.4640   24.5580    2.5010 C   0  0  0  0  0  0  0  0  0  0  0  0
    6.6990   23.6820    3.2550 C   0  0  0  0  0  0  0  0  0  0  0  0
    5.3480   23.5360    2.9380 C   0  0  0  0  0  0  0  0  0  0  0  0
    4.7820   24.2510    1.8710 C   0  0  0  0  0  0  0  0  0  0  0  0
    5.5600   25.1230    1.1060 C   0  0  0  0  0  0  0  0  0  0  0  0
    6.8980   25.2720    1.4360 C   0  0  0  0  0  0  0  0  0  0  0  0
    7.9270   26.1170    0.7420 C   0  0  0  0  0  0  0  0  0  0  0  0
    9.0500   26.1750    1.7960 C   0  0  1  0  0  0  0  0  0  0  0  0
    8.8600   27.3250    2.6440 O   0  0  0  0  0  0  0  0  0  0  0  0
   10.7750   24.3270    5.9100 C   0  0  2  0  0  0  0  0  0  0  0  0
   10.5130   25.7090    6.2050 O   0  0  0  0  0  0  0  0  0  0  0  0
   10.9730   26.1000    7.4980 C   0  0  0  0  0  0  0  0  0  0  0  0
    9.8960   26.9110    8.1750 C   0  0  0  0  0  0  0  0  0  0  0  0
   10.1500   27.5880    9.3740 C   0  0  0  0  0  0  0  0  0  0  0  0
    9.1620   28.3770    9.9660 C   0  0  0  0  0  0  0  0  0  0  0  0
    7.9100   28.4960    9.3630 C   0  0  0  0  0  0  0  0  0  0  0  0
    7.6450   27.8280    8.1700 C   0  0  0  0  0  0  0  0  0  0  0  0
    8.6320   27.0410    7.5770 C   0  0  0  0  0  0  0  0  0  0  0  0
   12.3080   24.1230    5.8220 C   0  0  2  0  0  0  0  0  0  0  0  0
   12.6910   24.1040    4.4330 O   0  0  0  0  0  0  0  0  0  0  0  0
   12.7170   22.8050    6.5410 C   0  0  1  0  0  0  0  0  0  0  0  0
   12.4980   21.6790    5.6660 O   0  0  0  0  0  0  0  0  0  0  0  0
   14.1580   22.7810    7.0890 C   0  0  1  0  0  0  0  0  0  0  0  0
   14.2480   21.6770    8.0060 O   0  0  0  0  0  0  0  0  0  0  0  0
   14.8970   22.0210    9.2300 C   0  0  0  0  0  0  0  0  0  0  0  0
   16.0830   21.1090    9.3840 C   0  0  0  0  0  0  0  0  0  0  0  0
   17.3160   21.4420    8.8060 C   0  0  0  0  0  0  0  0  0  0  0  0
   18.4240   20.6110    8.9730 C   0  0  0  0  0  0  0  0  0  0  0  0
   18.3140   19.4430    9.7260 C   0  0  0  0  0  0  0  0  0  0  0  0
   17.0970   19.1070   10.3140 C   0  0  0  0  0  0  0  0  0  0  0  0
   15.9860   19.9360   10.1450 C   0  0  0  0  0  0  0  0  0  0  0  0
   15.1480   22.6220    5.9300 C   0  0  0  0  0  0  0  0  0  0  0  0
   15.4970   23.5790    5.2410 O   0  0  0  0  0  0  0  0  0  0  0  0
   15.5100   21.3250    5.6840 N   0  0  0  0  0  0  0  0  0  0  0  0
   16.2400   20.8970    4.5140 C   0  0  1  0  0  0  0  0  0  0  0  0
   16.8600   19.5490    4.7250 C   0  0  0  0  0  0  0  0  0  0  0  0
   17.9680   19.2390    5.4990 C   0  0  0  0  0  0  0  0  0  0  0  0
   18.3670   17.9040    5.5830 C   0  0  0  0  0  0  0  0  0  0  0  0
   17.6550   16.9030    4.9060 C   0  0  0  0  0  0  0  0  0  0  0  0
   16.5380   17.2230    4.1320 C   0  0  0  0  0  0  0  0  0  0  0  0
   16.1550   18.5510    4.0450 C   0  0  0  0  0  0  0  0  0  0  0  0
   14.9820   19.1170    3.3090 C   0  0  0  0  0  0  0  0  0  0  0  0
   15.2760   20.6320    3.3180 C   0  0  1  0  0  0  0  0  0  0  0  0
   14.0470   21.3600    3.4170 O   0  0  0  0  0  0  0  0  0  0  0  0
    9.5950   25.9180    4.3100 H   0  0  0  0  0  0  0  0  0  0  0  0
    9.5787   24.0432    2.2310 H   0  0  0  0  0  0  0  0  0  0  0  0
    7.1467   23.1148    4.0844 H   0  0  0  0  0  0  0  0  0  0  0  0
    4.7203   22.8538    3.5302 H   0  0  0  0  0  0  0  0  0  0  0  0
    3.7152   24.1234    1.6349 H   0  0  0  0  0  0  0  0  0  0  0  0
    5.1220   25.6775    0.2630 H   0  0  0  0  0  0  0  0  0  0  0  0
    8.2743   25.6424   -0.1876 H   0  0  0  0  0  0  0  0  0  0  0  0
    7.5562   27.1049    0.4312 H   0  0  0  0  0  0  0  0  0  0  0  0
   10.0465   26.2701    1.3400 H   0  0  0  0  0  0  0  0  0  0  0  0
    9.1050   27.0620    3.5470 H   0  0  0  0  0  0  0  0  0  0  0  0
   10.3886   23.6680    6.7015 H   0  0  0  0  0  0  0  0  0  0  0  0
   11.1932   25.2047    8.0979 H   0  0  0  0  0  0  0  0  0  0  0  0
   11.8883   26.7025    7.4016 H   0  0  0  0  0  0  0  0  0  0  0  0
   11.1359   27.4975    9.8534 H   0  0  0  0  0  0  0  0  0  0  0  0
    9.3710   28.9049   10.9082 H   0  0  0  0  0  0  0  0  0  0  0  0
    7.1317   29.1176    9.8298 H   0  0  0  0  0  0  0  0  0  0  0  0
    6.6571   27.9211    7.6954 H   0  0  0  0  0  0  0  0  0  0  0  0
    8.4186   26.5178    6.6332 H   0  0  0  0  0  0  0  0  0  0  0  0
   12.8307   24.9489    6.3266 H   0  0  0  0  0  0  0  0  0  0  0  0
   13.3290   24.8310    4.2750 H   0  0  0  0  0  0  0  0  0  0  0  0
   12.0700   22.7416    7.4284 H   0  0  0  0  0  0  0  0  0  0  0  0
   11.9800   21.0310    6.1840 H   0  0  0  0  0  0  0  0  0  0  0  0
   14.4056   23.7186    7.6082 H   0  0  0  0  0  0  0  0  0  0  0  0
   15.2305   23.0687    9.1968 H   0  0  0  0  0  0  0  0  0  0  0  0
   14.2076   21.9073   10.0796 H   0  0  0  0  0  0  0  0  0  0  0  0
   17.4105   22.3657    8.2162 H   0  0  0  0  0  0  0  0  0  0  0  0
   19.3855   20.8777    8.5100 H   0  0  0  0  0  0  0  0  0  0  0  0
   19.1876   18.7873    9.8557 H   0  0  0  0  0  0  0  0  0  0  0  0
   17.0109   18.1878   10.9121 H   0  0  0  0  0  0  0  0  0  0  0  0
   15.0276   19.6664   10.6126 H   0  0  0  0  0  0  0  0  0  0  0  0
   15.1820   20.6120    6.3340 H   0  0  0  0  0  0  0  0  0  0  0  0
   16.9731   21.6949    4.3243 H   0  0  0  0  0  0  0  0  0  0  0  0
   18.5193   20.0263    6.0340 H   0  0  0  0  0  0  0  0  0  0  0  0
   19.2472   17.6347    6.1852 H   0  0  0  0  0  0  0  0  0  0  0  0
   17.9800   15.8551    4.9857 H   0  0  0  0  0  0  0  0  0  0  0  0
   15.9755   16.4390    3.6039 H   0  0  0  0  0  0  0  0  0  0  0  0
   14.9333   18.7283    2.2811 H   0  0  0  0  0  0  0  0  0  0  0  0
   14.0144   18.8570    3.7631 H   0  0  0  0  0  0  0  0  0  0  0  0
   15.7575   20.9712    2.3889 H   0  0  0  0  0  0  0  0  0  0  0  0
   14.1850   22.2420    3.0140 H   0  0  0  0  0  0  0  0  0  0  0  0
  1  2  2  0
  2  3  1  0
  3  4  1  0
  4  5  1  0
  5  6  2  0
  6  7  1  0
  7  8  2  0
  8  9  1  0
  9 10  2  0
 10 11  1  0
 11 12  1  0
 12 13  1  0
  2 14  1  0
 14 15  1  0
 15 16  1  0
 16 17  1  0
 17 18  2  0
 18 19  1  0
 19 20  2  0
 20 21  1  0
 21 22  2  0
 14 23  1  0
 23 24  1  0
 23 25  1  0
 25 26  1  0
 25 27  1  0
 27 28  1  0
 28 29  1  0
 29 30  1  0
 30 31  2  0
 31 32  1  0
 32 33  2  0
 33 34  1  0
 34 35  2  0
 27 36  1  0
 36 37  2  0
 36 38  1  0
 38 39  1  0
 39 40  1  0
 40 41  2  0
 41 42  1  0
 42 43  2  0
 43 44  1  0
 44 45  2  0
 45 46  1  0
 46 47  1  0
 47 48  1  0
 12  4  1  0
 22 17  1  0
 35 30  1  0
 47 39  1  0
 10  5  1  0
 45 40  1  0
  3 49  1  0
  4 50  1  6
  6 51  1  0
  7 52  1  0
  8 53  1  0
  9 54  1  0
 11 55  1  0
 11 56  1  0
 12 57  1  6
 13 58  1  0
 14 59  1  1
 16 60  1  0
 16 61  1  0
 18 62  1  0
 19 63  1  0
 20 64  1  0
 21 65  1  0
 22 66  1  0
 23 67  1  1
 24 68  1  0
 25 69  1  1
 26 70  1  0
 27 71  1  1
 29 72  1  0
 29 73  1  0
 31 74  1  0
 32 75  1  0
 33 76  1  0
 34 77  1  0
 35 78  1  0
 38 79  1  0
 39 80  1  6
 41 81  1  0
 42 82  1  0
 43 83  1  0
 44 84  1  0
 46 85  1  0
 46 86  1  0
 47 87  1  6
 48 88  1  0
M  END
>  <meeko>  (7) 
{"is_sidechain": [false], "free_energy": -10.591, "intermolecular_energy": -18.693, "internal_energy": -3.899}

$$$$
1eby_ligand
     RDKit          3D

 88 93  0  0  0  0  0  0  0  0999 V2000
   13.0830   21.8230    7.0300 O   0  0  0  0  0  0  0  0  0  0  0  0
   13.7160   22.8370    6.7360 C   0  0  0  0  0  0  0  0  0  0  0  0
   13.0910   24.0370    6.4950 N   0  0  0  0  0  0  0  0  0  0  0  0
   11.6580   24.1040    6.3440 C   0  0  1  0  0  0  0  0  0  0  0  0
   11.0480   25.3070    7.0120 C   0  0  0  0  0  0  0  0  0  0  0  0
   11.3400   25.8440    8.2570 C   0  0  0  0  0  0  0  0  0  0  0  0
   10.6040   26.9460    8.6950 C   0  0  0  0  0  0  0  0  0  0  0  0
    9.5830   27.4860    7.8980 C   0  0  0  0  0  0  0  0  0  0  0  0
    9.2840   26.9330    6.6510 C   0  0  0  0  0  0  0  0  0  0  0  0
   10.0280   25.8480    6.2180 C   0  0  0  0  0  0  0  0  0  0  0  0
    9.8660   25.0730    4.9420 C   0  0  0  0  0  0  0  0  0  0  0  0
   11.2020   24.3060    4.8680 C   0  0  1  0  0  0  0  0  0  0  0  0
   12.1650   25.0820    4.1260 O   0  0  0  0  0  0  0  0  0  0  0  0
   15.2530   22.8450    6.5410 C   0  0  2  0  0  0  0  0  0  0  0  0
   15.6230   21.7340    5.7090 O   0  0  0  0  0  0  0  0  0  0  0  0
   15.0900   21.8240    4.3880 C   0  0  0  0  0  0  0  0  0  0  0  0
   14.9650   20.4340    3.8160 C   0  0  0  0  0  0  0  0  0  0  0  0
   14.9820   20.2210    2.4310 C   0  0  0  0  0  0  0  0  0  0  0  0
   14.9160   18.9260    1.9130 C   0  0  0  0  0  0  0  0  0  0  0  0
   14.8320   17.8330    2.7750 C   0  0  0  0  0  0  0  0  0  0  0  0
   14.8140   18.0320    4.1530 C   0  0  0  0  0  0  0  0  0  0  0  0
   14.8820   19.3250    4.6720 C   0  0  0  0  0  0  0  0  0  0  0  0
   16.0150   22.7330    7.8850 C   0  0  2  0  0  0  0  0  0  0  0  0
   16.4720   24.0450    8.2660 O   0  0  0  0  0  0  0  0  0  0  0  0
   17.2020   21.7370    7.7470 C   0  0  1  0  0  0  0  0  0  0  0  0
   18.2310   22.0630    8.7040 O   0  0  0  0  0  0  0  0  0  0  0  0
   16.8200   20.2470    7.8630 C   0  0  1  0  0  0  0  0  0  0  0  0
   17.9100   19.4830    7.3200 O   0  0  0  0  0  0  0  0  0  0  0  0
   18.2640   19.8820    5.9960 C   0  0  0  0  0  0  0  0  0  0  0  0
   18.3740   18.6340    5.1630 C   0  0  0  0  0  0  0  0  0  0  0  0
   18.3380   18.7090    3.7630 C   0  0  0  0  0  0  0  0  0  0  0  0
   18.4690   17.5560    2.9880 C   0  0  0  0  0  0  0  0  0  0  0  0
   18.6460   16.3180    3.6040 C   0  0  0  0  0  0  0  0  0  0  0  0
   18.6920   16.2330    4.9940 C   0  0  0  0  0  0  0  0  0  0  0  0
   18.5580   17.3850    5.7700 C   0  0  0  0  0  0  0  0  0  0  0  0
   16.5710   19.8920    9.3330 C   0  0  0  0  0  0  0  0  0  0  0  0
   15.6750   20.4260    9.9850 O   0  0  0  0  0  0  0  0  0  0  0  0
   17.4880   19.0220    9.8560 N   0  0  0  0  0  0  0  0  0  0  0  0
   17.6050   18.7190   11.2630 C   0  0  1  0  0  0  0  0  0  0  0  0
   17.7740   17.2470   11.4880 C   0  0  0  0  0  0  0  0  0  0  0  0
   16.8090   16.2570   11.3800 C   0  0  0  0  0  0  0  0  0  0  0  0
   17.1870   14.9320   11.6060 C   0  0  0  0  0  0  0  0  0  0  0  0
   18.5150   14.6150   11.9260 C   0  0  0  0  0  0  0  0  0  0  0  0
   19.4830   15.6160   12.0280 C   0  0  0  0  0  0  0  0  0  0  0  0
   19.0970   16.9290   11.8130 C   0  0  0  0  0  0  0  0  0  0  0  0
   19.9610   18.1500   11.8370 C   0  0  0  0  0  0  0  0  0  0  0  0
   18.9270   19.2960   11.8540 C   0  0  1  0  0  0  0  0  0  0  0  0
   19.4320   20.4110   11.1120 O   0  0  0  0  0  0  0  0  0  0  0  0
   13.6430   24.7480    6.0180 H   0  0  0  0  0  0  0  0  0  0  0  0
   11.3370   23.1453    6.7774 H   0  0  0  0  0  0  0  0  0  0  0  0
   12.1331   25.4115    8.8846 H   0  0  0  0  0  0  0  0  0  0  0  0
   10.8263   27.3954    9.6741 H   0  0  0  0  0  0  0  0  0  0  0  0
    9.0121   28.3541    8.2593 H   0  0  0  0  0  0  0  0  0  0  0  0
    8.4780   27.3486    6.0284 H   0  0  0  0  0  0  0  0  0  0  0  0
    9.0107   24.3835    4.9978 H   0  0  0  0  0  0  0  0  0  0  0  0
    9.6630   25.7008    4.0618 H   0  0  0  0  0  0  0  0  0  0  0  0
   11.1014   23.3385    4.3543 H   0  0  0  0  0  0  0  0  0  0  0  0
   11.7840   25.9670    3.9970 H   0  0  0  0  0  0  0  0  0  0  0  0
   15.5261   23.8030    6.0745 H   0  0  0  0  0  0  0  0  0  0  0  0
   14.0989   22.3001    4.4213 H   0  0  0  0  0  0  0  0  0  0  0  0
   15.7583   22.4281    3.7568 H   0  0  0  0  0  0  0  0  0  0  0  0
   15.0478   21.0801    1.7471 H   0  0  0  0  0  0  0  0  0  0  0  0
   14.9303   18.7679    0.8245 H   0  0  0  0  0  0  0  0  0  0  0  0
   14.7799   16.8131    2.3661 H   0  0  0  0  0  0  0  0  0  0  0  0
   14.7462   17.1695    4.8324 H   0  0  0  0  0  0  0  0  0  0  0  0
   14.8705   19.4767    5.7614 H   0  0  0  0  0  0  0  0  0  0  0  0
   15.3483   22.3446    8.6690 H   0  0  0  0  0  0  0  0  0  0  0  0
   16.8430   24.4890    7.4750 H   0  0  0  0  0  0  0  0  0  0  0  0
   17.5717   21.8609    6.7184 H   0  0  0  0  0  0  0  0  0  0  0  0
   17.8310   22.7060    9.3230 H   0  0  0  0  0  0  0  0  0  0  0  0
   15.8963   20.0248    7.3086 H   0  0  0  0  0  0  0  0  0  0  0  0
   17.4878   20.5426    5.5824 H   0  0  0  0  0  0  0  0  0  0  0  0
   19.2166   20.4321    5.9983 H   0  0  0  0  0  0  0  0  0  0  0  0
   18.2055   19.6844    3.2720 H   0  0  0  0  0  0  0  0  0  0  0  0
   18.4326   17.6240    1.8907 H   0  0  0  0  0  0  0  0  0  0  0  0
   18.7493   15.4090    2.9932 H   0  0  0  0  0  0  0  0  0  0  0  0
   18.8341   15.2566    5.4802 H   0  0  0  0  0  0  0  0  0  0  0  0
   18.5972   17.3118    6.8669 H   0  0  0  0  0  0  0  0  0  0  0  0
   18.1750   18.6200    9.2190 H   0  0  0  0  0  0  0  0  0  0  0  0
   16.6962   19.1345   11.7228 H   0  0  0  0  0  0  0  0  0  0  0  0
   15.7699   16.5097   11.1223 H   0  0  0  0  0  0  0  0  0  0  0  0
   16.4372   14.1305   11.5325 H   0  0  0  0  0  0  0  0  0  0  0  0
   18.7972   13.5659   12.0986 H   0  0  0  0  0  0  0  0  0  0  0  0
   20.5263   15.3682   12.2730 H   0  0  0  0  0  0  0  0  0  0  0  0
   20.5923   18.1718   12.7376 H   0  0  0  0  0  0  0  0  0  0  0  0
   20.6615   18.2062   10.9907 H   0  0  0  0  0  0  0  0  0  0  0  0
   18.7317   19.6691   12.8702 H   0  0  0  0  0  0  0  0  0  0  0  0
   19.8810   20.0640   10.3130 H   0  0  0  0  0  0  0  0  0  0  0  0
  1  2  2  0
  2  3  1  0
  3  4  1  0
  4  5  1  0
  5  6  2  0
  6  7  1  0
  7  8  2  0
  8  9  1  0
  9 10  2  0
 10 11  1  0
 11 12  1  0
 12 13  1  0
  2 14  1  0
 14 15  1  0
 15 16  1  0
 16 17  1  0
 17 18  2  0
 18 19  1  0
 19 20  2  0
 20 21  1  0
 21 22  2  0
 14 23  1  0
 23 24  1  0
 23 25  1  0
 25 26  1  0
 25 27  1  0
 27 28  1  0
 28 29  1  0
 29 30  1  0
 30 31  2  0
 31 32  1  0
 32 33  2  0
 33 34  1  0
 34 35  2  0
 27 36  1  0
 36 37  2  0
 36 38  1  0
 38 39  1  0
 39 40  1  0
 40 41  2  0
 41 42  1  0
 42 43  2  0
 43 44  1  0
 44 45  2  0
 45 46  1  0
 46 47  1  0
 47 48  1  0
 12  4  1  0
 22 17  1  0
 35 30  1  0
 47 39  1  0
 10  5  1  0
 45 40  1  0
  3 49  1  0
  4 50  1  1
  6 51  1  0
  7 52  1  0
  8 53  1  0
  9 54  1  0
 11 55  1  0
 11 56  1  0
 12 57  1  6
 13 58  1  0
 14 59  1  6
 16 60  1  0
 16 61  1  0
 18 62  1  0
 19 63  1  0
 20 64  1  0
 21 65  1  0
 22 66  1  0
 23 67  1  1
 24 68  1  0
 25 69  1  6
 26 70  1  0
 27 71  1  6
 29 72  1  0
 29 73  1  0
 31 74  1  0
 32 75  1  0
 33 76  1  0
 34 77  1  0
 35 78  1  0
 38 79  1  0
 39 80  1  1
 41 81  1  0
 42 82  1  0
 43 83  1  0
 44 84  1  0
 46 85  1  0
 46 86  1  0
 47 87  1  1
 48 88  1  0
M  END
>  <meeko>  (8) 
{"is_sidechain": [false], "free_energy": -10.298, "intermolecular_energy": -18.438, "internal_energy": -3.604}

$$$$
1eby_ligand
     RDKit          3D

 88 93  0  0  0  0  0  0  0  0999 V2000
   18.9930   19.9590    5.2530 O   0  0  0  0  0  0  0  0  0  0  0  0
   18.2900   19.0630    5.7220 C   0  0  0  0  0  0  0  0  0  0  0  0
   17.1160   19.3340    6.3820 N   0  0  0  0  0  0  0  0  0  0  0  0
   16.7770   20.6840    6.7590 C   0  0  1  0  0  0  0  0  0  0  0  0
   15.3540   21.0500    6.4360 C   0  0  0  0  0  0  0  0  0  0  0  0
   14.6290   20.7670    5.2890 C   0  0  0  0  0  0  0  0  0  0  0  0
   13.3250   21.2550    5.1890 C   0  0  0  0  0  0  0  0  0  0  0  0
   12.7690   22.0270    6.2210 C   0  0  0  0  0  0  0  0  0  0  0  0
   13.5090   22.3200    7.3680 C   0  0  0  0  0  0  0  0  0  0  0  0
   14.7970   21.8210    7.4660 C   0  0  0  0  0  0  0  0  0  0  0  0
   15.7830   22.0330    8.5780 C   0  0  0  0  0  0  0  0  0  0  0  0
   16.8160   20.9230    8.2990 C   0  0  1  0  0  0  0  0  0  0  0  0
   16.4510   19.7290    9.0200 O   0  0  0  0  0  0  0  0  0  0  0  0
   18.6900   17.5670    5.6770 C   0  0  2  0  0  0  0  0  0  0  0  0
   17.7930   16.8710    4.7980 O   0  0  0  0  0  0  0  0  0  0  0  0
   18.0780   17.0980    3.4170 C   0  0  0  0  0  0  0  0  0  0  0  0
   16.8860   17.7630    2.7750 C   0  0  0  0  0  0  0  0  0  0  0  0
   15.6420   17.7880    3.4200 C   0  0  0  0  0  0  0  0  0  0  0  0
   14.5580   18.4490    2.8390 C   0  0  0  0  0  0  0  0  0  0  0  0
   14.7070   19.0910    1.6110 C   0  0  0  0  0  0  0  0  0  0  0  0
   15.9390   19.0730    0.9610 C   0  0  0  0  0  0  0  0  0  0  0  0
   17.0230   18.4150    1.5400 C   0  0  0  0  0  0  0  0  0  0  0  0
   18.6280   16.9020    7.0750 C   0  0  2  0  0  0  0  0  0  0  0  0
   18.8370   17.9150    8.0780 O   0  0  0  0  0  0  0  0  0  0  0  0
   19.6910   15.7720    7.1800 C   0  0  1  0  0  0  0  0  0  0  0  0
   20.8020   16.0600    6.3050 O   0  0  0  0  0  0  0  0  0  0  0  0
   20.1990   15.4830    8.6070 C   0  0  1  0  0  0  0  0  0  0  0  0
   21.3120   16.3600    8.8500 O   0  0  0  0  0  0  0  0  0  0  0  0
   22.4590   15.6760    9.3530 C   0  0  0  0  0  0  0  0  0  0  0  0
   22.5200   15.9270   10.8350 C   0  0  0  0  0  0  0  0  0  0  0  0
   22.8300   17.2030   11.3280 C   0  0  0  0  0  0  0  0  0  0  0  0
   22.8590   17.4440   12.7020 C   0  0  0  0  0  0  0  0  0  0  0  0
   22.5710   16.4140   13.5980 C   0  0  0  0  0  0  0  0  0  0  0  0
   22.2520   15.1460   13.1200 C   0  0  0  0  0  0  0  0  0  0  0  0
   22.2260   14.9020   11.7460 C   0  0  0  0  0  0  0  0  0  0  0  0
   19.0690   15.7280    9.6140 C   0  0  0  0  0  0  0  0  0  0  0  0
   17.9860   15.1520    9.5250 O   0  0  0  0  0  0  0  0  0  0  0  0
   19.3490   16.7020   10.5340 N   0  0  0  0  0  0  0  0  0  0  0  0
   18.3710   17.2710   11.4320 C   0  0  1  0  0  0  0  0  0  0  0  0
   18.6270   16.8520   12.8480 C   0  0  0  0  0  0  0  0  0  0  0  0
   18.3920   15.6110   13.4190 C   0  0  0  0  0  0  0  0  0  0  0  0
   18.7310   15.4210   14.7600 C   0  0  0  0  0  0  0  0  0  0  0  0
   19.3040   16.4630   15.5050 C   0  0  0  0  0  0  0  0  0  0  0  0
   19.5420   17.7090   14.9210 C   0  0  0  0  0  0  0  0  0  0  0  0
   19.1930   17.8920   13.5930 C   0  0  0  0  0  0  0  0  0  0  0  0
   19.3830   19.1190   12.7590 C   0  0  0  0  0  0  0  0  0  0  0  0
   18.5210   18.8200   11.5150 C   0  0  1  0  0  0  0  0  0  0  0  0
   19.1390   19.3870   10.3550 O   0  0  0  0  0  0  0  0  0  0  0  0
   16.7320   18.5810    6.9510 H   0  0  0  0  0  0  0  0  0  0  0  0
   17.5227   21.2707    6.2025 H   0  0  0  0  0  0  0  0  0  0  0  0
   15.0710   20.1717    4.4764 H   0  0  0  0  0  0  0  0  0  0  0  0
   12.7274   21.0324    4.2927 H   0  0  0  0  0  0  0  0  0  0  0  0
   11.7404   22.4048    6.1251 H   0  0  0  0  0  0  0  0  0  0  0  0
   13.0793   22.9324    8.1744 H   0  0  0  0  0  0  0  0  0  0  0  0
   16.2422   23.0310    8.5214 H   0  0  0  0  0  0  0  0  0  0  0  0
   15.3383   21.9854    9.5830 H   0  0  0  0  0  0  0  0  0  0  0  0
   17.8283   21.2022    8.6266 H   0  0  0  0  0  0  0  0  0  0  0  0
   16.6520   18.9720    8.4440 H   0  0  0  0  0  0  0  0  0  0  0  0
   19.7281   17.5088    5.3180 H   0  0  0  0  0  0  0  0  0  0  0  0
   18.9590   17.7500    3.3241 H   0  0  0  0  0  0  0  0  0  0  0  0
   18.2847   16.1404    2.9168 H   0  0  0  0  0  0  0  0  0  0  0  0
   15.5189   17.2838    4.3899 H   0  0  0  0  0  0  0  0  0  0  0  0
   13.5847   18.4631    3.3514 H   0  0  0  0  0  0  0  0  0  0  0  0
   13.8520   19.6118    1.1551 H   0  0  0  0  0  0  0  0  0  0  0  0
   16.0564   19.5780   -0.0091 H   0  0  0  0  0  0  0  0  0  0  0  0
   17.9945   18.4068    1.0241 H   0  0  0  0  0  0  0  0  0  0  0  0
   17.6415   16.4414    7.2324 H   0  0  0  0  0  0  0  0  0  0  0  0
   18.1810   17.7860    8.7940 H   0  0  0  0  0  0  0  0  0  0  0  0
   19.1740   14.8529    6.8670 H   0  0  0  0  0  0  0  0  0  0  0  0
   21.1270   15.1940    5.9860 H   0  0  0  0  0  0  0  0  0  0  0  0
   20.5186   14.4361    8.7159 H   0  0  0  0  0  0  0  0  0  0  0  0
   22.3687   14.5972    9.1580 H   0  0  0  0  0  0  0  0  0  0  0  0
   23.3735   16.0379    8.8603 H   0  0  0  0  0  0  0  0  0  0  0  0
   23.0520   18.0201   10.6259 H   0  0  0  0  0  0  0  0  0  0  0  0
   23.1091   18.4466   13.0790 H   0  0  0  0  0  0  0  0  0  0  0  0
   22.5960   16.6037   14.6812 H   0  0  0  0  0  0  0  0  0  0  0  0
   22.0201   14.3352   13.8262 H   0  0  0  0  0  0  0  0  0  0  0  0
   21.9729   13.8979   11.3748 H   0  0  0  0  0  0  0  0  0  0  0  0
   20.2880   17.0970   10.5340 H   0  0  0  0  0  0  0  0  0  0  0  0
   17.3965   16.9402   11.0435 H   0  0  0  0  0  0  0  0  0  0  0  0
   17.9488   14.7950   12.8294 H   0  0  0  0  0  0  0  0  0  0  0  0
   18.5474   14.4466   15.2364 H   0  0  0  0  0  0  0  0  0  0  0  0
   19.5684   16.2967   16.5597 H   0  0  0  0  0  0  0  0  0  0  0  0
   19.9958   18.5256   15.5017 H   0  0  0  0  0  0  0  0  0  0  0  0
   19.0231   20.0157   13.2848 H   0  0  0  0  0  0  0  0  0  0  0  0
   20.4367   19.3260   12.5206 H   0  0  0  0  0  0  0  0  0  0  0  0
   17.5203   19.2721   11.5791 H   0  0  0  0  0  0  0  0  0  0  0  0
   18.7650   20.2820   10.2200 H   0  0  0  0  0  0  0  0  0  0  0  0
  1  2  2  0
  2  3  1  0
  3  4  1  0
  4  5  1  0
  5  6  2  0
  6  7  1  0
  7  8  2  0
  8  9  1  0
  9 10  2  0
 10 11  1  0
 11 12  1  0
 12 13  1  0
  2 14  1  0
 14 15  1  0
 15 16  1  0
 16 17  1  0
 17 18  2  0
 18 19  1  0
 19 20  2  0
 20 21  1  0
 21 22  2  0
 14 23  1  0
 23 24  1  0
 23 25  1  0
 25 26  1  0
 25 27  1  0
 27 28  1  0
 28 29  1  0
 29 30  1  0
 30 31  2  0
 31 32  1  0
 32 33  2  0
 33 34  1  0
 34 35  2  0
 27 36  1  0
 36 37  2  0
 36 38  1  0
 38 39  1  0
 39 40  1  0
 40 41  2  0
 41 42  1  0
 42 43  2  0
 43 44  1  0
 44 45  2  0
 45 46  1  0
 46 47  1  0
 47 48  1  0
 12  4  1  0
 22 17  1  0
 35 30  1  0
 47 39  1  0
 10  5  1  0
 45 40  1  0
  3 49  1  0
  4 50  1  6
  6 51  1  0
  7 52  1  0
  8 53  1  0
  9 54  1  0
 11 55  1  0
 11 56  1  0
 12 57  1  1
 13 58  1  0
 14 59  1  6
 16 60  1  0
 16 61  1  0
 18 62  1  0
 19 63  1  0
 20 64  1  0
 21 65  1  0
 22 66  1  0
 23 67  1  1
 24 68  1  0
 25 69  1  6
 26 70  1  0
 27 71  1  6
 29 72  1  0
 29 73  1  0
 31 74  1  0
 32 75  1  0
 33 76  1  0
 34 77  1  0
 35 78  1  0
 38 79  1  0
 39 80  1  6
 41 81  1  0
 42 82  1  0
 43 83  1  0
 44 84  1  0
 46 85  1  0
 46 86  1  0
 47 87  1  1
 48 88  1  0
M  END
>  <meeko>  (9) 
{"is_sidechain": [false], "free_energy": -9.57, "intermolecular_energy": -15.7, "internal_energy": -4.975}

$$$$
