4kz6_ligand
     RDKit          3D

 31 31  0  0  0  0  0  0  0  0999 V2000
   81.3090    7.6170   30.3890 C   0  0  0  0  0  0  0  0  0  0  0  0
   80.5350    7.6880   29.0700 C   0  0  2  0  0  0  0  0  0  0  0  0
   80.1420    9.1260   28.6920 C   0  0  0  0  0  0  0  0  0  0  0  0
   79.5000    9.1690   27.2950 C   0  0  0  0  0  0  0  0  0  0  0  0
   78.4050    8.1070   27.0980 C   0  0  0  0  0  0  0  0  0  0  0  0
   78.9010    6.7160   27.5280 C   0  0  2  0  0  0  0  0  0  0  0  0
   78.0020    5.5240   27.0880 C   0  0  0  0  0  0  0  0  0  0  0  0
   78.4640    4.3770   27.3540 O   0  0  0  0  0  0  0  0  0  0  0  0
   76.9160    5.8300   26.5170 O   0  0  0  0  0  0  0  0  0  0  0  0
   79.3490    6.8250   28.9620 N   0  0  0  0  0  0  0  0  0  0  0  0
   78.4240    6.8170   30.0170 C   0  0  0  0  0  0  0  0  0  0  0  0
   77.6880    7.7790   30.2600 O   0  0  0  0  0  0  0  0  0  0  0  0
   78.3500    5.5820   30.8960 C   0  0  0  0  0  0  0  0  0  0  0  0
   78.7700    5.8990   32.3270 C   0  0  0  0  0  0  0  0  0  0  0  0
   80.0480    4.7440   32.9240 S   0  0  0  0  0  0  0  0  0  0  0  0
   80.6046    7.6816   31.2314 H   0  0  0  0  0  0  0  0  0  0  0  0
   81.8572    6.6648   30.4416 H   0  0  0  0  0  0  0  0  0  0  0  0
   82.0213    8.4536   30.4416 H   0  0  0  0  0  0  0  0  0  0  0  0
   81.2692    7.2896   28.3543 H   0  0  0  0  0  0  0  0  0  0  0  0
   79.4229    9.5091   29.4310 H   0  0  0  0  0  0  0  0  0  0  0  0
   81.0494    9.7477   28.6816 H   0  0  0  0  0  0  0  0  0  0  0  0
   79.0535   10.1632   27.1460 H   0  0  0  0  0  0  0  0  0  0  0  0
   80.2944    8.9587   26.5638 H   0  0  0  0  0  0  0  0  0  0  0  0
   77.5276    8.3788   27.7032 H   0  0  0  0  0  0  0  0  0  0  0  0
   78.1412    8.0700   26.0307 H   0  0  0  0  0  0  0  0  0  0  0  0
   79.7872    6.4059   26.9549 H   0  0  0  0  0  0  0  0  0  0  0  0
   77.3163    5.2058   30.9002 H   0  0  0  0  0  0  0  0  0  0  0  0
   79.0365    4.8239   30.4909 H   0  0  0  0  0  0  0  0  0  0  0  0
   79.1698    6.9231   32.3629 H   0  0  0  0  0  0  0  0  0  0  0  0
   77.8866    5.7987   32.9747 H   0  0  0  0  0  0  0  0  0  0  0  0
   79.6910    3.7110   32.1420 H   0  0  0  0  0  0  0  0  0  0  0  0
  1  2  1  0
  2  3  1  0
  3  4  1  0
  4  5  1  0
  5  6  1  0
  6  7  1  0
  7  8  2  0
  7  9  1  0
  6 10  1  0
 10 11  1  0
 11 12  2  0
 11 13  1  0
 13 14  1  0
 14 15  1  0
 10  2  1  0
  1 16  1  0
  1 17  1  0
  1 18  1  0
  2 19  1  6
  3 20  1  0
  3 21  1  0
  4 22  1  0
  4 23  1  0
  5 24  1  0
  5 25  1  0
  6 26  1  6
 13 27  1  0
 13 28  1  0
 14 29  1  0
 14 30  1  0
 15 31  1  0
M  CHG  1   9  -1
M  END
>  <meeko>  (1) 
{"is_sidechain": [false], "free_energy": -5.424, "intermolecular_energy": -6.851, "internal_energy": -0.323}

$$$$
4kz6_ligand
     RDKit          3D

 31 31  0  0  0  0  0  0  0  0999 V2000
   77.2550    6.5390   25.5160 C   0  0  0  0  0  0  0  0  0  0  0  0
   77.6950    7.3190   26.7560 C   0  0  2  0  0  0  0  0  0  0  0  0
   78.8450    8.2970   26.4630 C   0  0  0  0  0  0  0  0  0  0  0  0
   79.1560    9.1640   27.6950 C   0  0  0  0  0  0  0  0  0  0  0  0
   79.2930    8.3470   28.9910 C   0  0  0  0  0  0  0  0  0  0  0  0
   78.1020    7.3910   29.1690 C   0  0  2  0  0  0  0  0  0  0  0  0
   77.9720    6.7460   30.5810 C   0  0  0  0  0  0  0  0  0  0  0  0
   78.8050    7.1610   31.4380 O   0  0  0  0  0  0  0  0  0  0  0  0
   77.0560    5.8850   30.7150 O   0  0  0  0  0  0  0  0  0  0  0  0
   78.0400    6.5200   27.9420 N   0  0  0  0  0  0  0  0  0  0  0  0
   78.8960    5.4190   27.7870 C   0  0  0  0  0  0  0  0  0  0  0  0
   78.4860    4.3020   27.4560 O   0  0  0  0  0  0  0  0  0  0  0  0
   80.3770    5.6170   28.0610 C   0  0  0  0  0  0  0  0  0  0  0  0
   81.1580    5.7860   26.7630 C   0  0  0  0  0  0  0  0  0  0  0  0
   82.4690    7.0430   26.9250 S   0  0  0  0  0  0  0  0  0  0  0  0
   76.7364    5.6197   25.8260 H   0  0  0  0  0  0  0  0  0  0  0  0
   76.5738    7.1594   24.9151 H   0  0  0  0  0  0  0  0  0  0  0  0
   78.1383    6.2769   24.9151 H   0  0  0  0  0  0  0  0  0  0  0  0
   76.7781    7.8695   27.0134 H   0  0  0  0  0  0  0  0  0  0  0  0
   79.7436    7.7246   26.1894 H   0  0  0  0  0  0  0  0  0  0  0  0
   78.5430    8.9568   25.6363 H   0  0  0  0  0  0  0  0  0  0  0  0
   80.1008    9.6985   27.5170 H   0  0  0  0  0  0  0  0  0  0  0  0
   78.3105    9.8543   27.8312 H   0  0  0  0  0  0  0  0  0  0  0  0
   80.2223    7.7599   28.9494 H   0  0  0  0  0  0  0  0  0  0  0  0
   79.3140    9.0426   29.8429 H   0  0  0  0  0  0  0  0  0  0  0  0
   77.1469    7.9356   29.2044 H   0  0  0  0  0  0  0  0  0  0  0  0
   80.5106    6.5163   28.6802 H   0  0  0  0  0  0  0  0  0  0  0  0
   80.7573    4.7271   28.5840 H   0  0  0  0  0  0  0  0  0  0  0  0
   81.6180    4.8233   26.4956 H   0  0  0  0  0  0  0  0  0  0  0  0
   80.4583    6.1183   25.9820 H   0  0  0  0  0  0  0  0  0  0  0  0
   83.4180    6.2080   27.3840 H   0  0  0  0  0  0  0  0  0  0  0  0
  1  2  1  0
  2  3  1  0
  3  4  1  0
  4  5  1  0
  5  6  1  0
  6  7  1  0
  7  8  2  0
  7  9  1  0
  6 10  1  0
 10 11  1  0
 11 12  2  0
 11 13  1  0
 13 14  1  0
 14 15  1  0
 10  2  1  0
  1 16  1  0
  1 17  1  0
  1 18  1  0
  2 19  1  1
  3 20  1  0
  3 21  1  0
  4 22  1  0
  4 23  1  0
  5 24  1  0
  5 25  1  0
  6 26  1  6
 13 27  1  0
 13 28  1  0
 14 29  1  0
 14 30  1  0
 15 31  1  0
M  CHG  1   9  -1
M  END
>  <meeko>  (2) 
{"is_sidechain": [false], "free_energy": -5.166, "intermolecular_energy": -6.896, "internal_energy": 0.047}

$$$$
4kz6_ligand
     RDKit          3D

 31 31  0  0  0  0  0  0  0  0999 V2000
   80.3840    5.6780   25.9600 C   0  0  0  0  0  0  0  0  0  0  0  0
   79.3600    6.3680   26.8640 C   0  0  2  0  0  0  0  0  0  0  0  0
   79.1020    7.8280   26.4570 C   0  0  0  0  0  0  0  0  0  0  0  0
   77.9630    8.4370   27.2920 C   0  0  0  0  0  0  0  0  0  0  0  0
   78.1180    8.1860   28.8020 C   0  0  0  0  0  0  0  0  0  0  0  0
   78.3940    6.7000   29.0880 C   0  0  2  0  0  0  0  0  0  0  0  0
   78.2590    6.2730   30.5800 C   0  0  0  0  0  0  0  0  0  0  0  0
   77.8600    5.0870   30.7650 O   0  0  0  0  0  0  0  0  0  0  0  0
   78.5590    7.1530   31.4370 O   0  0  0  0  0  0  0  0  0  0  0  0
   79.6240    6.3150   28.3090 N   0  0  0  0  0  0  0  0  0  0  0  0
   80.9090    6.6390   28.7720 C   0  0  0  0  0  0  0  0  0  0  0  0
   81.3480    7.7940   28.7540 O   0  0  0  0  0  0  0  0  0  0  0  0
   81.7890    5.5150   29.2900 C   0  0  0  0  0  0  0  0  0  0  0  0
   82.6820    5.9960   30.4280 C   0  0  0  0  0  0  0  0  0  0  0  0
   81.8750    5.7890   32.0500 S   0  0  0  0  0  0  0  0  0  0  0  0
   81.1374    5.1703   26.5802 H   0  0  0  0  0  0  0  0  0  0  0  0
   79.8734    4.9390   25.3250 H   0  0  0  0  0  0  0  0  0  0  0  0
   80.8772    6.4287   25.3250 H   0  0  0  0  0  0  0  0  0  0  0  0
   78.4609    5.7571   26.6955 H   0  0  0  0  0  0  0  0  0  0  0  0
   80.0191    8.4140   26.6170 H   0  0  0  0  0  0  0  0  0  0  0  0
   78.8116    7.8513   25.3963 H   0  0  0  0  0  0  0  0  0  0  0  0
   77.9440    9.5230   27.1182 H   0  0  0  0  0  0  0  0  0  0  0  0
   77.0286    7.9515   26.9739 H   0  0  0  0  0  0  0  0  0  0  0  0
   78.9568    8.7874   29.1825 H   0  0  0  0  0  0  0  0  0  0  0  0
   77.1811    8.4713   29.3028 H   0  0  0  0  0  0  0  0  0  0  0  0
   77.5834    6.0578   28.7132 H   0  0  0  0  0  0  0  0  0  0  0  0
   81.1498    4.6980   29.6559 H   0  0  0  0  0  0  0  0  0  0  0  0
   82.4300    5.1660   28.4670 H   0  0  0  0  0  0  0  0  0  0  0  0
   83.6165    5.4158   30.4178 H   0  0  0  0  0  0  0  0  0  0  0  0
   82.8823    7.0672   30.2782 H   0  0  0  0  0  0  0  0  0  0  0  0
   82.5940    6.7250   32.6930 H   0  0  0  0  0  0  0  0  0  0  0  0
  1  2  1  0
  2  3  1  0
  3  4  1  0
  4  5  1  0
  5  6  1  0
  6  7  1  0
  7  8  2  0
  7  9  1  0
  6 10  1  0
 10 11  1  0
 11 12  2  0
 11 13  1  0
 13 14  1  0
 14 15  1  0
 10  2  1  0
  1 16  1  0
  1 17  1  0
  1 18  1  0
  2 19  1  1
  3 20  1  0
  3 21  1  0
  4 22  1  0
  4 23  1  0
  5 24  1  0
  5 25  1  0
  6 26  1  6
 13 27  1  0
 13 28  1  0
 14 29  1  0
 14 30  1  0
 15 31  1  0
M  CHG  1   9  -1
M  END
>  <meeko>  (3) 
{"is_sidechain": [false], "free_energy": -5.014, "intermolecular_energy": -6.299, "internal_energy": -0.358}

$$$$
4kz6_ligand
     RDKit          3D

 31 31  0  0  0  0  0  0  0  0999 V2000
   82.0940    5.7640   28.1820 C   0  0  0  0  0  0  0  0  0  0  0  0
   80.7300    6.3540   27.8190 C   0  0  2  0  0  0  0  0  0  0  0  0
   80.8040    7.3290   26.6320 C   0  0  0  0  0  0  0  0  0  0  0  0
   79.3970    7.7820   26.2050 C   0  0  0  0  0  0  0  0  0  0  0  0
   78.5240    8.2380   27.3860 C   0  0  0  0  0  0  0  0  0  0  0  0
   78.5410    7.1980   28.5200 C   0  0  2  0  0  0  0  0  0  0  0  0
   77.4600    7.3980   29.6230 C   0  0  0  0  0  0  0  0  0  0  0  0
   77.1700    8.6030   29.8770 O   0  0  0  0  0  0  0  0  0  0  0  0
   76.9960    6.3430   30.1420 O   0  0  0  0  0  0  0  0  0  0  0  0
   79.9800    6.9900   28.9120 N   0  0  0  0  0  0  0  0  0  0  0  0
   80.6470    7.9030   29.7440 C   0  0  0  0  0  0  0  0  0  0  0  0
   80.8760    9.0670   29.4010 O   0  0  0  0  0  0  0  0  0  0  0  0
   81.1190    7.4210   31.1050 C   0  0  0  0  0  0  0  0  0  0  0  0
   80.3850    6.1520   31.5230 C   0  0  0  0  0  0  0  0  0  0  0  0
   79.3430    6.4300   32.9930 S   0  0  0  0  0  0  0  0  0  0  0  0
   82.1951    5.7203   29.2765 H   0  0  0  0  0  0  0  0  0  0  0  0
   82.1773    4.7494   27.7653 H   0  0  0  0  0  0  0  0  0  0  0  0
   82.8904    6.3981   27.7653 H   0  0  0  0  0  0  0  0  0  0  0  0
   80.1618    5.4535   27.5428 H   0  0  0  0  0  0  0  0  0  0  0  0
   81.3924    8.2106   26.9262 H   0  0  0  0  0  0  0  0  0  0  0  0
   81.2801    6.8149   25.7841 H   0  0  0  0  0  0  0  0  0  0  0  0
   79.4983    8.6208   25.5006 H   0  0  0  0  0  0  0  0  0  0  0  0
   78.8994    6.9152   25.7457 H   0  0  0  0  0  0  0  0  0  0  0  0
   78.9092    9.1943   27.7695 H   0  0  0  0  0  0  0  0  0  0  0  0
   77.4888    8.3528   27.0320 H   0  0  0  0  0  0  0  0  0  0  0  0
   78.1730    6.2189   28.1795 H   0  0  0  0  0  0  0  0  0  0  0  0
   82.1981    7.2128   31.0579 H   0  0  0  0  0  0  0  0  0  0  0  0
   80.9085    8.2063   31.8459 H   0  0  0  0  0  0  0  0  0  0  0  0
   79.7468    5.8188   30.6913 H   0  0  0  0  0  0  0  0  0  0  0  0
   81.1357    5.3881   31.7739 H   0  0  0  0  0  0  0  0  0  0  0  0
   78.3090    5.6740   32.5860 H   0  0  0  0  0  0  0  0  0  0  0  0
  1  2  1  0
  2  3  1  0
  3  4  1  0
  4  5  1  0
  5  6  1  0
  6  7  1  0
  7  8  2  0
  7  9  1  0
  6 10  1  0
 10 11  1  0
 11 12  2  0
 11 13  1  0
 13 14  1  0
 14 15  1  0
 10  2  1  0
  1 16  1  0
  1 17  1  0
  1 18  1  0
  2 19  1  6
  3 20  1  0
  3 21  1  0
  4 22  1  0
  4 23  1  0
  5 24  1  0
  5 25  1  0
  6 26  1  6
 13 27  1  0
 13 28  1  0
 14 29  1  0
 14 30  1  0
 15 31  1  0
M  CHG  1   9  -1
M  END
>  <meeko>  (4) 
{"is_sidechain": [false], "free_energy": -4.946, "intermolecular_energy": -6.151, "internal_energy": -0.42}

$$$$
4kz6_ligand
     RDKit          3D

 31 31  0  0  0  0  0  0  0  0999 V2000
   77.0960    7.3860   28.9490 C   0  0  0  0  0  0  0  0  0  0  0  0
   78.5720    7.6620   28.6520 C   0  0  2  0  0  0  0  0  0  0  0  0
   78.7680    8.5620   27.4200 C   0  0  0  0  0  0  0  0  0  0  0  0
   80.2500    8.9350   27.2440 C   0  0  0  0  0  0  0  0  0  0  0  0
   81.1950    7.7250   27.3400 C   0  0  0  0  0  0  0  0  0  0  0  0
   80.8930    6.8880   28.5950 C   0  0  2  0  0  0  0  0  0  0  0  0
   81.9740    5.8280   28.9630 C   0  0  0  0  0  0  0  0  0  0  0  0
   82.7690    5.5260   28.0260 O   0  0  0  0  0  0  0  0  0  0  0  0
   81.9370    5.3880   30.1470 O   0  0  0  0  0  0  0  0  0  0  0  0
   79.4440    6.4850   28.5250 N   0  0  0  0  0  0  0  0  0  0  0  0
   79.0230    5.4180   27.7170 C   0  0  0  0  0  0  0  0  0  0  0  0
   78.4000    4.4510   28.1670 O   0  0  0  0  0  0  0  0  0  0  0  0
   79.3730    5.4560   26.2390 C   0  0  0  0  0  0  0  0  0  0  0  0
   78.3820    4.6390   25.4190 C   0  0  0  0  0  0  0  0  0  0  0  0
   76.8180    5.5410   25.1610 S   0  0  0  0  0  0  0  0  0  0  0  0
   76.9402    7.3569   30.0375 H   0  0  0  0  0  0  0  0  0  0  0  0
   76.4784    8.1842   28.5115 H   0  0  0  0  0  0  0  0  0  0  0  0
   76.8086    6.4185   28.5115 H   0  0  0  0  0  0  0  0  0  0  0  0
   78.8933    8.1836   29.5656 H   0  0  0  0  0  0  0  0  0  0  0  0
   78.4224    8.0261   26.5237 H   0  0  0  0  0  0  0  0  0  0  0  0
   78.1874    9.4853   27.5628 H   0  0  0  0  0  0  0  0  0  0  0  0
   80.3782    9.4012   26.2560 H   0  0  0  0  0  0  0  0  0  0  0  0
   80.5137    9.6214   28.0621 H   0  0  0  0  0  0  0  0  0  0  0  0
   81.0648    7.0952   26.4476 H   0  0  0  0  0  0  0  0  0  0  0  0
   82.2297    8.0926   27.4045 H   0  0  0  0  0  0  0  0  0  0  0  0
   80.9992    7.4816   29.5150 H   0  0  0  0  0  0  0  0  0  0  0  0
   79.3524    6.4995   25.8917 H   0  0  0  0  0  0  0  0  0  0  0  0
   80.3759    5.0240   26.1064 H   0  0  0  0  0  0  0  0  0  0  0  0
   78.8295    4.4134   24.4398 H   0  0  0  0  0  0  0  0  0  0  0  0
   78.1585    3.7145   25.9716 H   0  0  0  0  0  0  0  0  0  0  0  0
   76.0260    4.6390   25.7670 H   0  0  0  0  0  0  0  0  0  0  0  0
  1  2  1  0
  2  3  1  0
  3  4  1  0
  4  5  1  0
  5  6  1  0
  6  7  1  0
  7  8  2  0
  7  9  1  0
  6 10  1  0
 10 11  1  0
 11 12  2  0
 11 13  1  0
 13 14  1  0
 14 15  1  0
 10  2  1  0
  1 16  1  0
  1 17  1  0
  1 18  1  0
  2 19  1  1
  3 20  1  0
  3 21  1  0
  4 22  1  0
  4 23  1  0
  5 24  1  0
  5 25  1  0
  6 26  1  1
 13 27  1  0
 13 28  1  0
 14 29  1  0
 14 30  1  0
 15 31  1  0
M  CHG  1   9  -1
M  END
>  <meeko>  (5) 
{"is_sidechain": [false], "free_energy": -4.876, "intermolecular_energy": -6.492, "internal_energy": 0.009}

$$$$
4kz6_ligand
     RDKit          3D

 31 31  0  0  0  0  0  0  0  0999 V2000
   82.2080    6.0410   27.4030 C   0  0  0  0  0  0  0  0  0  0  0  0
   81.2070    6.5300   28.4520 C   0  0  2  0  0  0  0  0  0  0  0  0
   81.3340    5.7780   29.7870 C   0  0  0  0  0  0  0  0  0  0  0  0
   80.4170    6.3960   30.8550 C   0  0  0  0  0  0  0  0  0  0  0  0
   78.9800    6.6290   30.3590 C   0  0  0  0  0  0  0  0  0  0  0  0
   78.9750    7.3680   29.0090 C   0  0  2  0  0  0  0  0  0  0  0  0
   77.5930    7.9300   28.5640 C   0  0  0  0  0  0  0  0  0  0  0  0
   76.6590    7.7850   29.4040 O   0  0  0  0  0  0  0  0  0  0  0  0
   77.5550    8.4650   27.4180 O   0  0  0  0  0  0  0  0  0  0  0  0
   79.7930    6.5470   28.0480 N   0  0  0  0  0  0  0  0  0  0  0  0
   79.2580    5.4100   27.4230 C   0  0  0  0  0  0  0  0  0  0  0  0
   78.6890    4.5130   28.0540 O   0  0  0  0  0  0  0  0  0  0  0  0
   79.4100    5.2800   25.9180 C   0  0  0  0  0  0  0  0  0  0  0  0
   78.2950    4.4270   25.3240 C   0  0  0  0  0  0  0  0  0  0  0  0
   76.7580    5.3830   25.1100 S   0  0  0  0  0  0  0  0  0  0  0  0
   83.0867    5.6118   27.9067 H   0  0  0  0  0  0  0  0  0  0  0  0
   81.7342    5.2729   26.7741 H   0  0  0  0  0  0  0  0  0  0  0  0
   82.5227    6.8869   26.7741 H   0  0  0  0  0  0  0  0  0  0  0  0
   81.5036    7.5823   28.5734 H   0  0  0  0  0  0  0  0  0  0  0  0
   81.0520    4.7256   29.6356 H   0  0  0  0  0  0  0  0  0  0  0  0
   82.3754    5.8511   30.1335 H   0  0  0  0  0  0  0  0  0  0  0  0
   80.3824    5.7182   31.7206 H   0  0  0  0  0  0  0  0  0  0  0  0
   80.8359    7.3790   31.1162 H   0  0  0  0  0  0  0  0  0  0  0  0
   78.4790    5.6571   30.2388 H   0  0  0  0  0  0  0  0  0  0  0  0
   78.4501    7.2472   31.0986 H   0  0  0  0  0  0  0  0  0  0  0  0
   79.4764    8.3447   29.0780 H   0  0  0  0  0  0  0  0  0  0  0  0
   79.3751    6.2821   25.4658 H   0  0  0  0  0  0  0  0  0  0  0  0
   80.3729    4.7925   25.7055 H   0  0  0  0  0  0  0  0  0  0  0  0
   78.6192    4.0487   24.3433 H   0  0  0  0  0  0  0  0  0  0  0  0
   78.0901    3.5981   26.0175 H   0  0  0  0  0  0  0  0  0  0  0  0
   76.5750    5.0810   23.8130 H   0  0  0  0  0  0  0  0  0  0  0  0
  1  2  1  0
  2  3  1  0
  3  4  1  0
  4  5  1  0
  5  6  1  0
  6  7  1  0
  7  8  2  0
  7  9  1  0
  6 10  1  0
 10 11  1  0
 11 12  2  0
 11 13  1  0
 13 14  1  0
 14 15  1  0
 10  2  1  0
  1 16  1  0
  1 17  1  0
  1 18  1  0
  2 19  1  1
  3 20  1  0
  3 21  1  0
  4 22  1  0
  4 23  1  0
  5 24  1  0
  5 25  1  0
  6 26  1  1
 13 27  1  0
 13 28  1  0
 14 29  1  0
 14 30  1  0
 15 31  1  0
M  CHG  1   9  -1
M  END
>  <meeko>  (6) 
{"is_sidechain": [false], "free_energy": -4.831, "intermolecular_energy": -6.34, "internal_energy": -0.085}

$$$$
4kz6_ligand
     RDKit          3D

 31 31  0  0  0  0  0  0  0  0999 V2000
   81.8720    8.3320   32.4380 C   0  0  0  0  0  0  0  0  0  0  0  0
   80.8900    7.1900   32.7070 C   0  0  2  0  0  0  0  0  0  0  0  0
   81.5280    6.0340   33.4950 C   0  0  0  0  0  0  0  0  0  0  0  0
   80.4750    4.9790   33.8720 C   0  0  0  0  0  0  0  0  0  0  0  0
   79.5850    4.5630   32.6890 C   0  0  0  0  0  0  0  0  0  0  0  0
   79.0200    5.7960   31.9630 C   0  0  2  0  0  0  0  0  0  0  0  0
   77.8680    5.5050   30.9560 C   0  0  0  0  0  0  0  0  0  0  0  0
   77.6030    4.2800   30.7840 O   0  0  0  0  0  0  0  0  0  0  0  0
   77.3300    6.5170   30.4220 O   0  0  0  0  0  0  0  0  0  0  0  0
   80.1920    6.6380   31.5350 N   0  0  0  0  0  0  0  0  0  0  0  0
   80.9430    6.3150   30.3940 C   0  0  0  0  0  0  0  0  0  0  0  0
   81.8460    5.4730   30.4120 O   0  0  0  0  0  0  0  0  0  0  0  0
   80.6370    7.0520   29.1020 C   0  0  0  0  0  0  0  0  0  0  0  0
   80.1460    6.0920   28.0250 C   0  0  0  0  0  0  0  0  0  0  0  0
   79.3960    6.9820   26.6210 S   0  0  0  0  0  0  0  0  0  0  0  0
   82.2262    8.7439   33.3945 H   0  0  0  0  0  0  0  0  0  0  0  0
   82.7289    7.9510   31.8631 H   0  0  0  0  0  0  0  0  0  0  0  0
   81.3669    9.1221   31.8631 H   0  0  0  0  0  0  0  0  0  0  0  0
   80.1217    7.6919   33.3135 H   0  0  0  0  0  0  0  0  0  0  0  0
   82.3050    5.5619   32.8758 H   0  0  0  0  0  0  0  0  0  0  0  0
   81.9660    6.4388   34.4193 H   0  0  0  0  0  0  0  0  0  0  0  0
   80.9943    4.0860   34.2500 H   0  0  0  0  0  0  0  0  0  0  0  0
   79.8195    5.4282   34.6326 H   0  0  0  0  0  0  0  0  0  0  0  0
   80.1825    3.9708   31.9803 H   0  0  0  0  0  0  0  0  0  0  0  0
   78.7441    3.9684   33.0755 H   0  0  0  0  0  0  0  0  0  0  0  0
   78.4227    6.4267   32.6378 H   0  0  0  0  0  0  0  0  0  0  0  0
   79.8585    7.8051   29.2938 H   0  0  0  0  0  0  0  0  0  0  0  0
   81.5607    7.5322   28.7468 H   0  0  0  0  0  0  0  0  0  0  0  0
   80.9983    5.5011   27.6584 H   0  0  0  0  0  0  0  0  0  0  0  0
   79.3780    5.4416   28.4690 H   0  0  0  0  0  0  0  0  0  0  0  0
   80.2410    6.5200   25.6840 H   0  0  0  0  0  0  0  0  0  0  0  0
  1  2  1  0
  2  3  1  0
  3  4  1  0
  4  5  1  0
  5  6  1  0
  6  7  1  0
  7  8  2  0
  7  9  1  0
  6 10  1  0
 10 11  1  0
 11 12  2  0
 11 13  1  0
 13 14  1  0
 14 15  1  0
 10  2  1  0
  1 16  1  0
  1 17  1  0
  1 18  1  0
  2 19  1  1
  3 20  1  0
  3 21  1  0
  4 22  1  0
  4 23  1  0
  5 24  1  0
  5 25  1  0
  6 26  1  1
 13 27  1  0
 13 28  1  0
 14 29  1  0
 14 30  1  0
 15 31  1  0
M  CHG  1   9  -1
M  END
>  <meeko>  (7) 
{"is_sidechain": [false], "free_energy": -4.728, "intermolecular_energy": -5.936, "internal_energy": -0.359}

$$$$
4kz6_ligand
     RDKit          3D

 31 31  0  0  0  0  0  0  0  0999 V2000
   77.3200    8.1580   28.6060 C   0  0  0  0  0  0  0  0  0  0  0  0
   78.2630    7.7700   27.4660 C   0  0  2  0  0  0  0  0  0  0  0  0
   77.5350    7.0640   26.3100 C   0  0  0  0  0  0  0  0  0  0  0  0
   78.4860    6.8260   25.1260 C   0  0  0  0  0  0  0  0  0  0  0  0
   79.8290    6.2010   25.5440 C   0  0  0  0  0  0  0  0  0  0  0  0
   80.4540    6.9730   26.7180 C   0  0  2  0  0  0  0  0  0  0  0  0
   81.9430    6.6310   27.0210 C   0  0  0  0  0  0  0  0  0  0  0  0
   82.4270    5.6870   26.3330 O   0  0  0  0  0  0  0  0  0  0  0  0
   82.5010    7.3290   27.9160 O   0  0  0  0  0  0  0  0  0  0  0  0
   79.4460    6.9780   27.8370 N   0  0  0  0  0  0  0  0  0  0  0  0
   79.2750    5.8600   28.6680 C   0  0  0  0  0  0  0  0  0  0  0  0
   78.6850    4.8410   28.2940 O   0  0  0  0  0  0  0  0  0  0  0  0
   79.8210    5.9280   30.0830 C   0  0  0  0  0  0  0  0  0  0  0  0
   78.7080    5.7590   31.1110 C   0  0  0  0  0  0  0  0  0  0  0  0
   79.1930    6.4130   32.7420 S   0  0  0  0  0  0  0  0  0  0  0  0
   77.8088    7.9569   29.5707 H   0  0  0  0  0  0  0  0  0  0  0  0
   77.0783    9.2287   28.5336 H   0  0  0  0  0  0  0  0  0  0  0  0
   76.3948    7.5675   28.5336 H   0  0  0  0  0  0  0  0  0  0  0  0
   78.6401    8.7512   27.1418 H   0  0  0  0  0  0  0  0  0  0  0  0
   77.1514    6.0957   26.6640 H   0  0  0  0  0  0  0  0  0  0  0  0
   76.7074    7.7052   25.9724 H   0  0  0  0  0  0  0  0  0  0  0  0
   77.9929    6.1501   24.4118 H   0  0  0  0  0  0  0  0  0  0  0  0
   78.7063    7.8075   24.6809 H   0  0  0  0  0  0  0  0  0  0  0  0
   79.6609    5.1574   25.8484 H   0  0  0  0  0  0  0  0  0  0  0  0
   80.5183    6.2463   24.6880 H   0  0  0  0  0  0  0  0  0  0  0  0
   80.6299    8.0283   26.4622 H   0  0  0  0  0  0  0  0  0  0  0  0
   80.5617    5.1266   30.2209 H   0  0  0  0  0  0  0  0  0  0  0  0
   80.2853    6.9142   30.2306 H   0  0  0  0  0  0  0  0  0  0  0  0
   77.8151    6.2981   30.7617 H   0  0  0  0  0  0  0  0  0  0  0  0
   78.5015    4.6840   31.2198 H   0  0  0  0  0  0  0  0  0  0  0  0
   80.2420    7.1330   32.3060 H   0  0  0  0  0  0  0  0  0  0  0  0
  1  2  1  0
  2  3  1  0
  3  4  1  0
  4  5  1  0
  5  6  1  0
  6  7  1  0
  7  8  2  0
  7  9  1  0
  6 10  1  0
 10 11  1  0
 11 12  2  0
 11 13  1  0
 13 14  1  0
 14 15  1  0
 10  2  1  0
  1 16  1  0
  1 17  1  0
  1 18  1  0
  2 19  1  6
  3 20  1  0
  3 21  1  0
  4 22  1  0
  4 23  1  0
  5 24  1  0
  5 25  1  0
  6 26  1  6
 13 27  1  0
 13 28  1  0
 14 29  1  0
 14 30  1  0
 15 31  1  0
M  CHG  1   9  -1
M  END
>  <meeko>  (8) 
{"is_sidechain": [false], "free_energy": -4.711, "intermolecular_energy": -5.951, "internal_energy": -0.323}

$$$$
4kz6_ligand
     RDKit          3D

 31 31  0  0  0  0  0  0  0  0999 V2000
   82.2120    5.7490   30.8070 C   0  0  0  0  0  0  0  0  0  0  0  0
   81.9200    5.8550   29.3090 C   0  0  2  0  0  0  0  0  0  0  0  0
   82.7810    6.9220   28.6130 C   0  0  0  0  0  0  0  0  0  0  0  0
   82.5660    6.8940   27.0900 C   0  0  0  0  0  0  0  0  0  0  0  0
   81.0810    6.8750   26.6900 C   0  0  0  0  0  0  0  0  0  0  0  0
   80.3150    5.7870   27.4620 C   0  0  2  0  0  0  0  0  0  0  0  0
   78.8900    5.4650   26.9210 C   0  0  0  0  0  0  0  0  0  0  0  0
   78.4390    6.2900   26.0740 O   0  0  0  0  0  0  0  0  0  0  0  0
   78.3430    4.4240   27.3860 O   0  0  0  0  0  0  0  0  0  0  0  0
   80.5140    6.0570   28.9300 N   0  0  0  0  0  0  0  0  0  0  0  0
   79.7720    7.0460   29.5950 C   0  0  0  0  0  0  0  0  0  0  0  0
   80.1780    8.2060   29.7220 O   0  0  0  0  0  0  0  0  0  0  0  0
   78.4330    6.6560   30.1960 C   0  0  0  0  0  0  0  0  0  0  0  0
   78.6040    5.5930   31.2760 C   0  0  0  0  0  0  0  0  0  0  0  0
   79.0930    6.3280   32.8710 S   0  0  0  0  0  0  0  0  0  0  0  0
   81.3274    6.0701   31.3766 H   0  0  0  0  0  0  0  0  0  0  0  0
   82.4528    4.7061   31.0607 H   0  0  0  0  0  0  0  0  0  0  0  0
   83.0657    6.3946   31.0607 H   0  0  0  0  0  0  0  0  0  0  0  0
   82.1912    4.8496   28.9545 H   0  0  0  0  0  0  0  0  0  0  0  0
   82.5044    7.9148   28.9975 H   0  0  0  0  0  0  0  0  0  0  0  0
   83.8399    6.7100   28.8221 H   0  0  0  0  0  0  0  0  0  0  0  0
   83.0345    7.7886   26.6539 H   0  0  0  0  0  0  0  0  0  0  0  0
   83.0192    5.9657   26.7120 H   0  0  0  0  0  0  0  0  0  0  0  0
   80.6358    7.8556   26.9138 H   0  0  0  0  0  0  0  0  0  0  0  0
   81.0110    6.6559   25.6143 H   0  0  0  0  0  0  0  0  0  0  0  0
   80.7337    4.7868   27.2770 H   0  0  0  0  0  0  0  0  0  0  0  0
   77.9654    7.5472   30.6401 H   0  0  0  0  0  0  0  0  0  0  0  0
   77.7988    6.2435   29.3975 H   0  0  0  0  0  0  0  0  0  0  0  0
   77.6506    5.0599   31.4061 H   0  0  0  0  0  0  0  0  0  0  0  0
   79.3996    4.9037   30.9569 H   0  0  0  0  0  0  0  0  0  0  0  0
   78.6700    7.5740   32.5950 H   0  0  0  0  0  0  0  0  0  0  0  0
  1  2  1  0
  2  3  1  0
  3  4  1  0
  4  5  1  0
  5  6  1  0
  6  7  1  0
  7  8  2  0
  7  9  1  0
  6 10  1  0
 10 11  1  0
 11 12  2  0
 11 13  1  0
 13 14  1  0
 14 15  1  0
 10  2  1  0
  1 16  1  0
  1 17  1  0
  1 18  1  0
  2 19  1  6
  3 20  1  0
  3 21  1  0
  4 22  1  0
  4 23  1  0
  5 24  1  0
  5 25  1  0
  6 26  1  6
 13 27  1  0
 13 28  1  0
 14 29  1  0
 14 30  1  0
 15 31  1  0
M  CHG  1   9  -1
M  END
>  <meeko>  (9) 
{"is_sidechain": [false], "free_energy": -4.588, "intermolecular_energy": -5.798, "internal_energy": -0.32}

$$$$
