3ivg_ligand
     RDKit          3D

 46 49  0  0  0  0  0  0  0  0999 V2000
   -3.1350   -6.5380   41.1700 C   0  0  0  0  0  0  0  0  0  0  0  0
   -2.3210   -7.6020   41.6450 O   0  0  0  0  0  0  0  0  0  0  0  0
   -1.5220   -8.2240   40.7210 C   0  0  0  0  0  0  0  0  0  0  0  0
   -0.7610   -9.2770   41.2260 C   0  0  0  0  0  0  0  0  0  0  0  0
    0.1060  -10.0120   40.4110 C   0  0  0  0  0  0  0  0  0  0  0  0
    0.1970   -9.6560   39.0570 C   0  0  0  0  0  0  0  0  0  0  0  0
   -0.5610   -8.6160   38.5220 C   0  0  0  0  0  0  0  0  0  0  0  0
   -1.4290   -7.8880   39.3650 C   0  0  0  0  0  0  0  0  0  0  0  0
   -0.2570   -8.5480   37.1370 C   0  0  0  0  0  0  0  0  0  0  0  0
    0.6720   -9.5300   36.8450 C   0  0  0  0  0  0  0  0  0  0  0  0
    1.2610   -9.9010   35.5270 C   0  0  0  0  0  0  0  0  0  0  0  0
    0.4240  -10.9650   34.9740 N   0  0  0  0  0  0  0  0  0  0  0  0
    1.1850  -12.0550   33.9510 S   0  0  0  0  0  0  0  0  0  0  0  0
    2.3820  -12.5440   34.6020 O   0  0  0  0  0  0  0  0  0  0  0  0
    0.1540  -12.9660   33.4980 O   0  0  0  0  0  0  0  0  0  0  0  0
    1.7410  -11.1840   32.4890 C   0  0  0  0  0  0  0  0  0  0  0  0
    2.8290  -10.3400   32.2860 C   0  0  0  0  0  0  0  0  0  0  0  0
    2.7890   -9.8850   30.9470 C   0  0  0  0  0  0  0  0  0  0  0  0
    3.5630   -9.0180   30.1570 C   0  0  0  0  0  0  0  0  0  0  0  0
    3.1900   -8.8140   28.8210 C   0  0  0  0  0  0  0  0  0  0  0  0
    2.0730   -9.4570   28.2800 C   0  0  0  0  0  0  0  0  0  0  0  0
    1.2900  -10.3210   29.0540 C   0  0  0  0  0  0  0  0  0  0  0  0
    1.6850  -10.4990   30.3780 C   0  0  0  0  0  0  0  0  0  0  0  0
    1.0550  -11.2800   31.2910 O   0  0  0  0  0  0  0  0  0  0  0  0
    0.9660  -10.1820   38.0290 N   0  0  0  0  0  0  0  0  0  0  0  0
    2.0060  -11.1840   38.2190 C   0  0  0  0  0  0  0  0  0  0  0  0
    1.4260  -12.5810   38.3460 C   0  0  0  0  0  0  0  0  0  0  0  0
    1.6650  -13.1730   39.4410 O   0  0  0  0  0  0  0  0  0  0  0  0
    0.7140  -12.9690   37.3740 O   0  0  0  0  0  0  0  0  0  0  0  0
   -3.5556   -5.9883   42.0249 H   0  0  0  0  0  0  0  0  0  0  0  0
   -2.5264   -5.8554   40.5587 H   0  0  0  0  0  0  0  0  0  0  0  0
   -3.9530   -6.9469   40.5587 H   0  0  0  0  0  0  0  0  0  0  0  0
   -0.8444   -9.5363   42.2917 H   0  0  0  0  0  0  0  0  0  0  0  0
    0.6986  -10.8440   40.8192 H   0  0  0  0  0  0  0  0  0  0  0  0
   -2.0293   -7.0608   38.9582 H   0  0  0  0  0  0  0  0  0  0  0  0
   -0.6873   -7.8352   36.4181 H   0  0  0  0  0  0  0  0  0  0  0  0
    1.2611   -9.0309   34.8540 H   0  0  0  0  0  0  0  0  0  0  0  0
    2.3022  -10.2371   35.6408 H   0  0  0  0  0  0  0  0  0  0  0  0
   -0.1430  -11.4420   35.6690 H   0  0  0  0  0  0  0  0  0  0  0  0
    3.5880  -10.0732   33.0362 H   0  0  0  0  0  0  0  0  0  0  0  0
    4.4431   -8.5100   30.5781 H   0  0  0  0  0  0  0  0  0  0  0  0
    3.7851   -8.1381   28.1893 H   0  0  0  0  0  0  0  0  0  0  0  0
    1.8048   -9.2809   27.2278 H   0  0  0  0  0  0  0  0  0  0  0  0
    0.4091  -10.8326   28.6388 H   0  0  0  0  0  0  0  0  0  0  0  0
    2.6872  -11.1584   37.3557 H   0  0  0  0  0  0  0  0  0  0  0  0
    2.5406  -10.9496   39.1513 H   0  0  0  0  0  0  0  0  0  0  0  0
  1  2  1  0
  2  3  1  0
  3  4  2  0
  4  5  1  0
  5  6  2  0
  6  7  1  0
  7  8  2  0
  7  9  1  0
  9 10  2  0
 10 11  1  0
 11 12  1  0
 12 13  1  0
 13 14  2  0
 13 15  2  0
 13 16  1  0
 16 17  2  0
 17 18  1  0
 18 19  2  0
 19 20  1  0
 20 21  2  0
 21 22  1  0
 22 23  2  0
 23 24  1  0
 10 25  1  0
 25 26  1  0
 26 27  1  0
 27 28  2  0
 27 29  1  0
  8  3  1  0
 24 16  1  0
 25  6  1  0
 23 18  1  0
  1 30  1  0
  1 31  1  0
  1 32  1  0
  4 33  1  0
  5 34  1  0
  8 35  1  0
  9 36  1  0
 11 37  1  0
 11 38  1  0
 12 39  1  0
 17 40  1  0
 19 41  1  0
 20 42  1  0
 21 43  1  0
 22 44  1  0
 26 45  1  0
 26 46  1  0
M  CHG  1  29  -1
M  END
>  <meeko>  (1) 
{"is_sidechain": [false], "free_energy": -9.098, "intermolecular_energy": -12.821, "internal_energy": -1.143}

$$$$
3ivg_ligand
     RDKit          3D

 46 49  0  0  0  0  0  0  0  0999 V2000
   -2.2660   -7.1990   41.3530 C   0  0  0  0  0  0  0  0  0  0  0  0
   -1.5200   -8.4010   41.4890 O   0  0  0  0  0  0  0  0  0  0  0  0
   -0.9590   -8.9080   40.3450 C   0  0  0  0  0  0  0  0  0  0  0  0
   -1.2640   -8.1990   39.1850 C   0  0  0  0  0  0  0  0  0  0  0  0
   -0.7710   -8.5900   37.9350 C   0  0  0  0  0  0  0  0  0  0  0  0
    0.0430   -9.7310   37.8760 C   0  0  0  0  0  0  0  0  0  0  0  0
    0.3750  -10.4520   39.0220 C   0  0  0  0  0  0  0  0  0  0  0  0
   -0.1350  -10.0380   40.2730 C   0  0  0  0  0  0  0  0  0  0  0  0
    1.2310  -11.5090   38.6170 C   0  0  0  0  0  0  0  0  0  0  0  0
    1.4090  -11.4270   37.2470 C   0  0  0  0  0  0  0  0  0  0  0  0
    2.2600  -12.2690   36.3600 C   0  0  0  0  0  0  0  0  0  0  0  0
    1.5660  -13.5470   36.1980 N   0  0  0  0  0  0  0  0  0  0  0  0
    2.2290  -14.8590   37.0050 S   0  0  0  0  0  0  0  0  0  0  0  0
    1.5180  -15.0460   38.2520 O   0  0  0  0  0  0  0  0  0  0  0  0
    2.3180  -15.9260   36.0280 O   0  0  0  0  0  0  0  0  0  0  0  0
    3.9170  -14.4690   37.4550 C   0  0  0  0  0  0  0  0  0  0  0  0
    4.9820  -14.0030   36.6910 C   0  0  0  0  0  0  0  0  0  0  0  0
    6.1140  -13.8960   37.5330 C   0  0  0  0  0  0  0  0  0  0  0  0
    7.4590  -13.5240   37.3650 C   0  0  0  0  0  0  0  0  0  0  0  0
    8.3060  -13.5460   38.4820 C   0  0  0  0  0  0  0  0  0  0  0  0
    7.8290  -13.9310   39.7390 C   0  0  0  0  0  0  0  0  0  0  0  0
    6.4930  -14.3080   39.9220 C   0  0  0  0  0  0  0  0  0  0  0  0
    5.6800  -14.2780   38.7910 C   0  0  0  0  0  0  0  0  0  0  0  0
    4.3660  -14.6180   38.7550 O   0  0  0  0  0  0  0  0  0  0  0  0
    0.6550  -10.3550   36.8000 N   0  0  0  0  0  0  0  0  0  0  0  0
    0.4240   -9.9950   35.4080 C   0  0  0  0  0  0  0  0  0  0  0  0
    1.2710   -8.8070   34.9860 C   0  0  0  0  0  0  0  0  0  0  0  0
    2.4570   -9.0810   34.6350 O   0  0  0  0  0  0  0  0  0  0  0  0
    0.6770   -7.6900   34.9680 O   0  0  0  0  0  0  0  0  0  0  0  0
   -2.5108   -6.8046   42.3502 H   0  0  0  0  0  0  0  0  0  0  0  0
   -1.6692   -6.4574   40.8017 H   0  0  0  0  0  0  0  0  0  0  0  0
   -3.1954   -7.4047   40.8017 H   0  0  0  0  0  0  0  0  0  0  0  0
   -1.9082   -7.3100   39.2534 H   0  0  0  0  0  0  0  0  0  0  0  0
   -1.0144   -8.0199   37.0263 H   0  0  0  0  0  0  0  0  0  0  0  0
    0.1138  -10.6001   41.1852 H   0  0  0  0  0  0  0  0  0  0  0  0
    1.6773  -12.2652   39.2796 H   0  0  0  0  0  0  0  0  0  0  0  0
    2.3876  -11.7807   35.3826 H   0  0  0  0  0  0  0  0  0  0  0  0
    3.2599  -12.4149   36.7945 H   0  0  0  0  0  0  0  0  0  0  0  0
    0.5630  -13.4880   36.3450 H   0  0  0  0  0  0  0  0  0  0  0  0
    4.9497  -13.7600   35.6187 H   0  0  0  0  0  0  0  0  0  0  0  0
    7.8390  -13.2220   36.3779 H   0  0  0  0  0  0  0  0  0  0  0  0
    9.3610  -13.2562   38.3680 H   0  0  0  0  0  0  0  0  0  0  0  0
    8.5152  -13.9378   40.5987 H   0  0  0  0  0  0  0  0  0  0  0  0
    6.1061  -14.6116   40.9059 H   0  0  0  0  0  0  0  0  0  0  0  0
    0.6751  -10.8559   34.7709 H   0  0  0  0  0  0  0  0  0  0  0  0
   -0.6346   -9.7175   35.2972 H   0  0  0  0  0  0  0  0  0  0  0  0
  1  2  1  0
  2  3  1  0
  3  4  2  0
  4  5  1  0
  5  6  2  0
  6  7  1  0
  7  8  2  0
  7  9  1  0
  9 10  2  0
 10 11  1  0
 11 12  1  0
 12 13  1  0
 13 14  2  0
 13 15  2  0
 13 16  1  0
 16 17  2  0
 17 18  1  0
 18 19  2  0
 19 20  1  0
 20 21  2  0
 21 22  1  0
 22 23  2  0
 23 24  1  0
 10 25  1  0
 25 26  1  0
 26 27  1  0
 27 28  2  0
 27 29  1  0
  8  3  1  0
 24 16  1  0
 25  6  1  0
 23 18  1  0
  1 30  1  0
  1 31  1  0
  1 32  1  0
  4 33  1  0
  5 34  1  0
  8 35  1  0
  9 36  1  0
 11 37  1  0
 11 38  1  0
 12 39  1  0
 17 40  1  0
 19 41  1  0
 20 42  1  0
 21 43  1  0
 22 44  1  0
 26 45  1  0
 26 46  1  0
M  CHG  1  29  -1
M  END
>  <meeko>  (2) 
{"is_sidechain": [false], "free_energy": -8.99, "intermolecular_energy": -12.967, "internal_energy": -0.846}

$$$$
3ivg_ligand
     RDKit          3D

 46 49  0  0  0  0  0  0  0  0999 V2000
    8.1950  -13.8510   39.0430 C   0  0  0  0  0  0  0  0  0  0  0  0
    7.5280  -14.5890   38.0280 O   0  0  0  0  0  0  0  0  0  0  0  0
    6.2810  -14.1480   37.6670 C   0  0  0  0  0  0  0  0  0  0  0  0
    5.2490  -14.5870   38.4940 C   0  0  0  0  0  0  0  0  0  0  0  0
    3.9170  -14.2260   38.2600 C   0  0  0  0  0  0  0  0  0  0  0  0
    3.6420  -13.4050   37.1560 C   0  0  0  0  0  0  0  0  0  0  0  0
    4.6560  -12.9410   36.3200 C   0  0  0  0  0  0  0  0  0  0  0  0
    5.9920  -13.3190   36.5760 C   0  0  0  0  0  0  0  0  0  0  0  0
    4.0430  -12.1180   35.3380 C   0  0  0  0  0  0  0  0  0  0  0  0
    2.6820  -12.0910   35.5800 C   0  0  0  0  0  0  0  0  0  0  0  0
    1.6180  -11.3280   34.8670 C   0  0  0  0  0  0  0  0  0  0  0  0
    1.8250   -9.9150   35.1870 N   0  0  0  0  0  0  0  0  0  0  0  0
    0.4480   -9.0190   35.5230 S   0  0  0  0  0  0  0  0  0  0  0  0
    0.7200   -7.6250   35.2430 O   0  0  0  0  0  0  0  0  0  0  0  0
   -0.6470   -9.7120   34.8750 O   0  0  0  0  0  0  0  0  0  0  0  0
    0.1120   -9.1120   37.2780 C   0  0  0  0  0  0  0  0  0  0  0  0
    0.5540  -10.0060   38.2470 C   0  0  0  0  0  0  0  0  0  0  0  0
   -0.0450   -9.6510   39.4800 C   0  0  0  0  0  0  0  0  0  0  0  0
   -0.0260  -10.1610   40.7900 C   0  0  0  0  0  0  0  0  0  0  0  0
   -0.7780   -9.5070   41.7750 C   0  0  0  0  0  0  0  0  0  0  0  0
   -1.5320   -8.3700   41.4680 C   0  0  0  0  0  0  0  0  0  0  0  0
   -1.5640   -7.8530   40.1690 C   0  0  0  0  0  0  0  0  0  0  0  0
   -0.8090   -8.5280   39.2120 C   0  0  0  0  0  0  0  0  0  0  0  0
   -0.7190   -8.1950   37.9000 O   0  0  0  0  0  0  0  0  0  0  0  0
    2.4420  -12.9040   36.6740 N   0  0  0  0  0  0  0  0  0  0  0  0
    1.1330  -13.2890   37.1830 C   0  0  0  0  0  0  0  0  0  0  0  0
    0.8370  -14.7550   36.9210 C   0  0  0  0  0  0  0  0  0  0  0  0
    0.7710  -15.0870   35.7000 O   0  0  0  0  0  0  0  0  0  0  0  0
    0.7570  -15.4900   37.9480 O   0  0  0  0  0  0  0  0  0  0  0  0
    7.8704  -14.2101   40.0308 H   0  0  0  0  0  0  0  0  0  0  0  0
    9.2817  -13.9881   38.9419 H   0  0  0  0  0  0  0  0  0  0  0  0
    7.9491  -12.7836   38.9419 H   0  0  0  0  0  0  0  0  0  0  0  0
    5.4869  -15.2331   39.3518 H   0  0  0  0  0  0  0  0  0  0  0  0
    3.1105  -14.5753   38.9215 H   0  0  0  0  0  0  0  0  0  0  0  0
    6.8019  -12.9641   35.9217 H   0  0  0  0  0  0  0  0  0  0  0  0
    4.5626  -11.5918   34.5237 H   0  0  0  0  0  0  0  0  0  0  0  0
    1.7008  -11.4866   33.7817 H   0  0  0  0  0  0  0  0  0  0  0  0
    0.6170  -11.6610   35.1787 H   0  0  0  0  0  0  0  0  0  0  0  0
    2.5500   -9.7550   35.8800 H   0  0  0  0  0  0  0  0  0  0  0  0
    1.2483  -10.8435   38.0840 H   0  0  0  0  0  0  0  0  0  0  0  0
    0.5666  -11.0544   41.0365 H   0  0  0  0  0  0  0  0  0  0  0  0
   -0.7752   -9.8936   42.8048 H   0  0  0  0  0  0  0  0  0  0  0  0
   -2.1097   -7.8739   42.2618 H   0  0  0  0  0  0  0  0  0  0  0  0
   -2.1544   -6.9600   39.9159 H   0  0  0  0  0  0  0  0  0  0  0  0
    1.1051  -13.1081   38.2677 H   0  0  0  0  0  0  0  0  0  0  0  0
    0.3727  -12.6876   36.6631 H   0  0  0  0  0  0  0  0  0  0  0  0
  1  2  1  0
  2  3  1  0
  3  4  2  0
  4  5  1  0
  5  6  2  0
  6  7  1  0
  7  8  2  0
  7  9  1  0
  9 10  2  0
 10 11  1  0
 11 12  1  0
 12 13  1  0
 13 14  2  0
 13 15  2  0
 13 16  1  0
 16 17  2  0
 17 18  1  0
 18 19  2  0
 19 20  1  0
 20 21  2  0
 21 22  1  0
 22 23  2  0
 23 24  1  0
 10 25  1  0
 25 26  1  0
 26 27  1  0
 27 28  2  0
 27 29  1  0
  8  3  1  0
 24 16  1  0
 25  6  1  0
 23 18  1  0
  1 30  1  0
  1 31  1  0
  1 32  1  0
  4 33  1  0
  5 34  1  0
  8 35  1  0
  9 36  1  0
 11 37  1  0
 11 38  1  0
 12 39  1  0
 17 40  1  0
 19 41  1  0
 20 42  1  0
 21 43  1  0
 22 44  1  0
 26 45  1  0
 26 46  1  0
M  CHG  1  29  -1
M  END
>  <meeko>  (3) 
{"is_sidechain": [false], "free_energy": -8.625, "intermolecular_energy": -12.347, "internal_energy": -0.95}

$$$$
3ivg_ligand
     RDKit          3D

 46 49  0  0  0  0  0  0  0  0999 V2000
    6.7890  -14.8280   42.5240 C   0  0  0  0  0  0  0  0  0  0  0  0
    7.5430  -13.9280   41.7230 O   0  0  0  0  0  0  0  0  0  0  0  0
    7.1290  -13.7660   40.4260 C   0  0  0  0  0  0  0  0  0  0  0  0
    8.1290  -13.9430   39.4720 C   0  0  0  0  0  0  0  0  0  0  0  0
    7.8690  -13.8100   38.1040 C   0  0  0  0  0  0  0  0  0  0  0  0
    6.5630  -13.4840   37.7110 C   0  0  0  0  0  0  0  0  0  0  0  0
    5.5400  -13.3140   38.6420 C   0  0  0  0  0  0  0  0  0  0  0  0
    5.8270  -13.4530   40.0180 C   0  0  0  0  0  0  0  0  0  0  0  0
    4.3550  -13.0320   37.9140 C   0  0  0  0  0  0  0  0  0  0  0  0
    4.6600  -13.0300   36.5650 C   0  0  0  0  0  0  0  0  0  0  0  0
    3.7530  -12.8430   35.3980 C   0  0  0  0  0  0  0  0  0  0  0  0
    2.9770  -11.6290   35.6580 N   0  0  0  0  0  0  0  0  0  0  0  0
    1.3120  -11.8150   35.7380 S   0  0  0  0  0  0  0  0  0  0  0  0
    0.7100  -11.0950   34.6370 O   0  0  0  0  0  0  0  0  0  0  0  0
    1.0760  -13.2330   35.9230 O   0  0  0  0  0  0  0  0  0  0  0  0
    0.7140  -11.0240   37.2290 C   0  0  0  0  0  0  0  0  0  0  0  0
    0.9520  -11.3040   38.5700 C   0  0  0  0  0  0  0  0  0  0  0  0
    0.2000  -10.3930   39.3500 C   0  0  0  0  0  0  0  0  0  0  0  0
   -0.0060  -10.1790   40.7240 C   0  0  0  0  0  0  0  0  0  0  0  0
   -0.8560   -9.1360   41.1200 C   0  0  0  0  0  0  0  0  0  0  0  0
   -1.4860   -8.3230   40.1730 C   0  0  0  0  0  0  0  0  0  0  0  0
   -1.2940   -8.5260   38.8020 C   0  0  0  0  0  0  0  0  0  0  0  0
   -0.4480   -9.5720   38.4420 C   0  0  0  0  0  0  0  0  0  0  0  0
   -0.1430   -9.9390   37.1720 O   0  0  0  0  0  0  0  0  0  0  0  0
    6.0170  -13.2770   36.4520 N   0  0  0  0  0  0  0  0  0  0  0  0
    6.7990  -13.2130   35.2250 C   0  0  0  0  0  0  0  0  0  0  0  0
    7.0770  -14.5950   34.6610 C   0  0  0  0  0  0  0  0  0  0  0  0
    8.2890  -14.9620   34.6930 O   0  0  0  0  0  0  0  0  0  0  0  0
    6.0600  -15.2480   34.2870 O   0  0  0  0  0  0  0  0  0  0  0  0
    6.9698  -14.6122   43.5873 H   0  0  0  0  0  0  0  0  0  0  0  0
    5.7183  -14.7074   42.3023 H   0  0  0  0  0  0  0  0  0  0  0  0
    7.0953  -15.8610   42.3023 H   0  0  0  0  0  0  0  0  0  0  0  0
    9.1478  -14.1934   39.8027 H   0  0  0  0  0  0  0  0  0  0  0  0
    8.6650  -13.9567   37.3591 H   0  0  0  0  0  0  0  0  0  0  0  0
    5.0314  -13.3160   40.7652 H   0  0  0  0  0  0  0  0  0  0  0  0
    3.3619  -12.8464   38.3490 H   0  0  0  0  0  0  0  0  0  0  0  0
    4.3411  -12.7267   34.4757 H   0  0  0  0  0  0  0  0  0  0  0  0
    3.0934  -13.7134   35.2663 H   0  0  0  0  0  0  0  0  0  0  0  0
    3.3270  -11.0790   36.4360 H   0  0  0  0  0  0  0  0  0  0  0  0
    1.6101  -12.0957   38.9574 H   0  0  0  0  0  0  0  0  0  0  0  0
    0.4887  -10.8157   41.4723 H   0  0  0  0  0  0  0  0  0  0  0  0
   -1.0295   -8.9550   42.1911 H   0  0  0  0  0  0  0  0  0  0  0  0
   -2.1442   -7.5094   40.5117 H   0  0  0  0  0  0  0  0  0  0  0  0
   -1.7853   -7.8929   38.0484 H   0  0  0  0  0  0  0  0  0  0  0  0
    6.2419  -12.6289   34.4777 H   0  0  0  0  0  0  0  0  0  0  0  0
    7.7636  -12.7386   35.4586 H   0  0  0  0  0  0  0  0  0  0  0  0
  1  2  1  0
  2  3  1  0
  3  4  2  0
  4  5  1  0
  5  6  2  0
  6  7  1  0
  7  8  2  0
  7  9  1  0
  9 10  2  0
 10 11  1  0
 11 12  1  0
 12 13  1  0
 13 14  2  0
 13 15  2  0
 13 16  1  0
 16 17  2  0
 17 18  1  0
 18 19  2  0
 19 20  1  0
 20 21  2  0
 21 22  1  0
 22 23  2  0
 23 24  1  0
 10 25  1  0
 25 26  1  0
 26 27  1  0
 27 28  2  0
 27 29  1  0
  8  3  1  0
 24 16  1  0
 25  6  1  0
 23 18  1  0
  1 30  1  0
  1 31  1  0
  1 32  1  0
  4 33  1  0
  5 34  1  0
  8 35  1  0
  9 36  1  0
 11 37  1  0
 11 38  1  0
 12 39  1  0
 17 40  1  0
 19 41  1  0
 20 42  1  0
 21 43  1  0
 22 44  1  0
 26 45  1  0
 26 46  1  0
M  CHG  1  29  -1
M  END
>  <meeko>  (4) 
{"is_sidechain": [false], "free_energy": -8.505, "intermolecular_energy": -12.086, "internal_energy": -1.041}

$$$$
3ivg_ligand
     RDKit          3D

 46 49  0  0  0  0  0  0  0  0999 V2000
    0.9910  -10.7380   27.8710 C   0  0  0  0  0  0  0  0  0  0  0  0
    1.7840   -9.7930   28.5760 O   0  0  0  0  0  0  0  0  0  0  0  0
    1.7400   -9.8530   29.9450 C   0  0  0  0  0  0  0  0  0  0  0  0
    2.1820   -8.7010   30.5920 C   0  0  0  0  0  0  0  0  0  0  0  0
    2.2020   -8.6050   31.9870 C   0  0  0  0  0  0  0  0  0  0  0  0
    1.7650   -9.7120   32.7290 C   0  0  0  0  0  0  0  0  0  0  0  0
    1.3060  -10.8730   32.1090 C   0  0  0  0  0  0  0  0  0  0  0  0
    1.2960  -10.9460   30.6990 C   0  0  0  0  0  0  0  0  0  0  0  0
    0.9140  -11.7690   33.1380 C   0  0  0  0  0  0  0  0  0  0  0  0
    1.1360  -11.1570   34.3580 C   0  0  0  0  0  0  0  0  0  0  0  0
    0.8350  -11.6600   35.7290 C   0  0  0  0  0  0  0  0  0  0  0  0
    2.0850  -12.2010   36.2630 N   0  0  0  0  0  0  0  0  0  0  0  0
    2.1200  -12.4990   37.9130 S   0  0  0  0  0  0  0  0  0  0  0  0
    1.4520  -13.7570   38.1730 O   0  0  0  0  0  0  0  0  0  0  0  0
    3.4900  -12.2800   38.3300 O   0  0  0  0  0  0  0  0  0  0  0  0
    1.1510  -11.2460   38.7480 C   0  0  0  0  0  0  0  0  0  0  0  0
    0.6580  -10.0250   38.3010 C   0  0  0  0  0  0  0  0  0  0  0  0
   -0.0150   -9.4010   39.3790 C   0  0  0  0  0  0  0  0  0  0  0  0
   -0.6830   -8.1810   39.5750 C   0  0  0  0  0  0  0  0  0  0  0  0
   -1.2410   -7.9150   40.8330 C   0  0  0  0  0  0  0  0  0  0  0  0
   -1.1380   -8.8410   41.8760 C   0  0  0  0  0  0  0  0  0  0  0  0
   -0.4720  -10.0590   41.6980 C   0  0  0  0  0  0  0  0  0  0  0  0
    0.0730  -10.2910   40.4370 C   0  0  0  0  0  0  0  0  0  0  0  0
    0.7640  -11.3990   40.0680 O   0  0  0  0  0  0  0  0  0  0  0  0
    1.6840   -9.9130   34.1000 N   0  0  0  0  0  0  0  0  0  0  0  0
    2.2170   -8.9890   35.0920 C   0  0  0  0  0  0  0  0  0  0  0  0
    1.3680   -7.7370   35.2090 C   0  0  0  0  0  0  0  0  0  0  0  0
    0.1730   -7.9230   35.5890 O   0  0  0  0  0  0  0  0  0  0  0  0
    1.9660   -6.6460   34.9810 O   0  0  0  0  0  0  0  0  0  0  0  0
    0.4556  -11.3760   28.5895 H   0  0  0  0  0  0  0  0  0  0  0  0
    0.2637  -10.2074   27.2389 H   0  0  0  0  0  0  0  0  0  0  0  0
    1.6397  -11.3621   27.2389 H   0  0  0  0  0  0  0  0  0  0  0  0
    2.5237   -7.8457   29.9906 H   0  0  0  0  0  0  0  0  0  0  0  0
    2.5499   -7.6891   32.4871 H   0  0  0  0  0  0  0  0  0  0  0  0
    0.9411  -11.8572   30.1953 H   0  0  0  0  0  0  0  0  0  0  0  0
    0.5034  -12.7787   32.9900 H   0  0  0  0  0  0  0  0  0  0  0  0
    0.4763  -10.8368   36.3644 H   0  0  0  0  0  0  0  0  0  0  0  0
    0.0497  -12.4299   35.7041 H   0  0  0  0  0  0  0  0  0  0  0  0
    2.4470  -12.9900   35.7360 H   0  0  0  0  0  0  0  0  0  0  0  0
    0.7712   -9.6153   37.2864 H   0  0  0  0  0  0  0  0  0  0  0  0
   -0.7665   -7.4493   38.7579 H   0  0  0  0  0  0  0  0  0  0  0  0
   -1.7675   -6.9642   41.0023 H   0  0  0  0  0  0  0  0  0  0  0  0
   -1.5879   -8.6082   42.8524 H   0  0  0  0  0  0  0  0  0  0  0  0
   -0.3835  -10.7946   42.5111 H   0  0  0  0  0  0  0  0  0  0  0  0
    2.2449   -9.4930   36.0694 H   0  0  0  0  0  0  0  0  0  0  0  0
    3.2261   -8.6893   34.7729 H   0  0  0  0  0  0  0  0  0  0  0  0
  1  2  1  0
  2  3  1  0
  3  4  2  0
  4  5  1  0
  5  6  2  0
  6  7  1  0
  7  8  2  0
  7  9  1  0
  9 10  2  0
 10 11  1  0
 11 12  1  0
 12 13  1  0
 13 14  2  0
 13 15  2  0
 13 16  1  0
 16 17  2  0
 17 18  1  0
 18 19  2  0
 19 20  1  0
 20 21  2  0
 21 22  1  0
 22 23  2  0
 23 24  1  0
 10 25  1  0
 25 26  1  0
 26 27  1  0
 27 28  2  0
 27 29  1  0
  8  3  1  0
 24 16  1  0
 25  6  1  0
 23 18  1  0
  1 30  1  0
  1 31  1  0
  1 32  1  0
  4 33  1  0
  5 34  1  0
  8 35  1  0
  9 36  1  0
 11 37  1  0
 11 38  1  0
 12 39  1  0
 17 40  1  0
 19 41  1  0
 20 42  1  0
 21 43  1  0
 22 44  1  0
 26 45  1  0
 26 46  1  0
M  CHG  1  29  -1
M  END
>  <meeko>  (5) 
{"is_sidechain": [false], "free_energy": -8.499, "intermolecular_energy": -12.659, "internal_energy": -0.461}

$$$$
3ivg_ligand
     RDKit          3D

 46 49  0  0  0  0  0  0  0  0999 V2000
    3.0190   -9.3530   29.0730 C   0  0  0  0  0  0  0  0  0  0  0  0
    3.7860   -9.5410   30.2540 O   0  0  0  0  0  0  0  0  0  0  0  0
    3.0850   -9.7240   31.4180 C   0  0  0  0  0  0  0  0  0  0  0  0
    1.9360   -8.9430   31.5330 C   0  0  0  0  0  0  0  0  0  0  0  0
    1.1120   -9.0120   32.6620 C   0  0  0  0  0  0  0  0  0  0  0  0
    1.4780   -9.8920   33.6910 C   0  0  0  0  0  0  0  0  0  0  0  0
    2.6140  -10.6940   33.5980 C   0  0  0  0  0  0  0  0  0  0  0  0
    3.4310  -10.6070   32.4480 C   0  0  0  0  0  0  0  0  0  0  0  0
    2.6690  -11.4800   34.7790 C   0  0  0  0  0  0  0  0  0  0  0  0
    1.5830  -11.1540   35.5710 C   0  0  0  0  0  0  0  0  0  0  0  0
    1.1650  -11.7390   36.8760 C   0  0  0  0  0  0  0  0  0  0  0  0
    1.5150  -13.1590   36.8330 N   0  0  0  0  0  0  0  0  0  0  0  0
    2.1030  -13.8230   38.2570 S   0  0  0  0  0  0  0  0  0  0  0  0
    1.6590  -13.0080   39.3680 O   0  0  0  0  0  0  0  0  0  0  0  0
    1.7940  -15.2380   38.1960 O   0  0  0  0  0  0  0  0  0  0  0  0
    3.8900  -13.7150   38.2500 C   0  0  0  0  0  0  0  0  0  0  0  0
    4.7790  -13.3390   37.2490 C   0  0  0  0  0  0  0  0  0  0  0  0
    6.0940  -13.4660   37.7570 C   0  0  0  0  0  0  0  0  0  0  0  0
    7.3900  -13.2730   37.2490 C   0  0  0  0  0  0  0  0  0  0  0  0
    8.4840  -13.5110   38.0920 C   0  0  0  0  0  0  0  0  0  0  0  0
    8.2950  -13.9310   39.4120 C   0  0  0  0  0  0  0  0  0  0  0  0
    7.0120  -14.1320   39.9320 C   0  0  0  0  0  0  0  0  0  0  0  0
    5.9470  -13.8900   39.0670 C   0  0  0  0  0  0  0  0  0  0  0  0
    4.6330  -14.0370   39.3730 O   0  0  0  0  0  0  0  0  0  0  0  0
    0.8780  -10.1610   34.9130 N   0  0  0  0  0  0  0  0  0  0  0  0
   -0.2490   -9.4120   35.4510 C   0  0  0  0  0  0  0  0  0  0  0  0
    0.1740   -8.4950   36.5840 C   0  0  0  0  0  0  0  0  0  0  0  0
   -0.5330   -8.5650   37.6340 O   0  0  0  0  0  0  0  0  0  0  0  0
    1.2210   -7.8170   36.3770 O   0  0  0  0  0  0  0  0  0  0  0  0
    1.9837   -9.0992   29.3447 H   0  0  0  0  0  0  0  0  0  0  0  0
    3.4535   -8.5348   28.4800 H   0  0  0  0  0  0  0  0  0  0  0  0
    3.0259  -10.2794   28.4800 H   0  0  0  0  0  0  0  0  0  0  0  0
    1.6705   -8.2556   30.7163 H   0  0  0  0  0  0  0  0  0  0  0  0
    0.2048   -8.3948   32.7400 H   0  0  0  0  0  0  0  0  0  0  0  0
    4.3338  -11.2296   32.3627 H   0  0  0  0  0  0  0  0  0  0  0  0
    3.4436  -12.2220   35.0227 H   0  0  0  0  0  0  0  0  0  0  0  0
    1.6965  -11.2426   37.7013 H   0  0  0  0  0  0  0  0  0  0  0  0
    0.0863  -11.6028   37.0427 H   0  0  0  0  0  0  0  0  0  0  0  0
    0.7950  -13.7450   36.4200 H   0  0  0  0  0  0  0  0  0  0  0  0
    4.5074  -13.0015   36.2379 H   0  0  0  0  0  0  0  0  0  0  0  0
    7.5426  -12.9420   36.2112 H   0  0  0  0  0  0  0  0  0  0  0  0
    9.5052  -13.3654   37.7099 H   0  0  0  0  0  0  0  0  0  0  0  0
    9.1712  -14.1066   40.0534 H   0  0  0  0  0  0  0  0  0  0  0  0
    6.8525  -14.4635   40.9687 H   0  0  0  0  0  0  0  0  0  0  0  0
   -0.6895   -8.8045   34.6467 H   0  0  0  0  0  0  0  0  0  0  0  0
   -0.9800  -10.1317   35.8480 H   0  0  0  0  0  0  0  0  0  0  0  0
  1  2  1  0
  2  3  1  0
  3  4  2  0
  4  5  1  0
  5  6  2  0
  6  7  1  0
  7  8  2  0
  7  9  1  0
  9 10  2  0
 10 11  1  0
 11 12  1  0
 12 13  1  0
 13 14  2  0
 13 15  2  0
 13 16  1  0
 16 17  2  0
 17 18  1  0
 18 19  2  0
 19 20  1  0
 20 21  2  0
 21 22  1  0
 22 23  2  0
 23 24  1  0
 10 25  1  0
 25 26  1  0
 26 27  1  0
 27 28  2  0
 27 29  1  0
  8  3  1  0
 24 16  1  0
 25  6  1  0
 23 18  1  0
  1 30  1  0
  1 31  1  0
  1 32  1  0
  4 33  1  0
  5 34  1  0
  8 35  1  0
  9 36  1  0
 11 37  1  0
 11 38  1  0
 12 39  1  0
 17 40  1  0
 19 41  1  0
 20 42  1  0
 21 43  1  0
 22 44  1  0
 26 45  1  0
 26 46  1  0
M  CHG  1  29  -1
M  END
>  <meeko>  (6) 
{"is_sidechain": [false], "free_energy": -8.431, "intermolecular_energy": -12.107, "internal_energy": -0.916}

$$$$
3ivg_ligand
     RDKit          3D

 46 49  0  0  0  0  0  0  0  0999 V2000
   -2.2750   -7.1450   41.3580 C   0  0  0  0  0  0  0  0  0  0  0  0
   -1.5110   -8.3310   41.5210 O   0  0  0  0  0  0  0  0  0  0  0  0
   -0.9660   -8.8720   40.3850 C   0  0  0  0  0  0  0  0  0  0  0  0
   -1.2550   -8.1740   39.2130 C   0  0  0  0  0  0  0  0  0  0  0  0
   -0.7740   -8.5980   37.9700 C   0  0  0  0  0  0  0  0  0  0  0  0
    0.0100   -9.7600   37.9290 C   0  0  0  0  0  0  0  0  0  0  0  0
    0.3260  -10.4710   39.0860 C   0  0  0  0  0  0  0  0  0  0  0  0
   -0.1710  -10.0230   40.3300 C   0  0  0  0  0  0  0  0  0  0  0  0
    1.1530  -11.5570   38.6960 C   0  0  0  0  0  0  0  0  0  0  0  0
    1.3300  -11.5010   37.3260 C   0  0  0  0  0  0  0  0  0  0  0  0
    2.1580  -12.3790   36.4510 C   0  0  0  0  0  0  0  0  0  0  0  0
    3.4450  -12.5530   37.1240 N   0  0  0  0  0  0  0  0  0  0  0  0
    3.8090  -14.1060   37.6440 S   0  0  0  0  0  0  0  0  0  0  0  0
    5.2440  -14.2220   37.7940 O   0  0  0  0  0  0  0  0  0  0  0  0
    2.9160  -14.3750   38.7530 O   0  0  0  0  0  0  0  0  0  0  0  0
    3.3530  -15.2670   36.3590 C   0  0  0  0  0  0  0  0  0  0  0  0
    4.1240  -15.9270   35.4080 C   0  0  0  0  0  0  0  0  0  0  0  0
    3.2600  -16.7060   34.6040 C   0  0  0  0  0  0  0  0  0  0  0  0
    3.4120  -17.5520   33.4920 C   0  0  0  0  0  0  0  0  0  0  0  0
    2.2730  -18.1680   32.9560 C   0  0  0  0  0  0  0  0  0  0  0  0
    1.0090  -17.9500   33.5120 C   0  0  0  0  0  0  0  0  0  0  0  0
    0.8390  -17.1080   34.6160 C   0  0  0  0  0  0  0  0  0  0  0  0
    1.9910  -16.5090   35.1220 C   0  0  0  0  0  0  0  0  0  0  0  0
    2.0370  -15.6530   36.1750 O   0  0  0  0  0  0  0  0  0  0  0  0
    0.6040  -10.4180   36.8610 N   0  0  0  0  0  0  0  0  0  0  0  0
    0.3800  -10.0740   35.4640 C   0  0  0  0  0  0  0  0  0  0  0  0
    1.2040   -8.8710   35.0410 C   0  0  0  0  0  0  0  0  0  0  0  0
    2.4040   -9.1200   34.7190 O   0  0  0  0  0  0  0  0  0  0  0  0
    0.5810   -7.7710   34.9930 O   0  0  0  0  0  0  0  0  0  0  0  0
   -2.5367   -6.7387   42.3462 H   0  0  0  0  0  0  0  0  0  0  0  0
   -1.6850   -6.4024   40.8008 H   0  0  0  0  0  0  0  0  0  0  0  0
   -3.1951   -7.3752   40.8008 H   0  0  0  0  0  0  0  0  0  0  0  0
   -1.8763   -7.2679   39.2673 H   0  0  0  0  0  0  0  0  0  0  0  0
   -1.0038   -8.0369   37.0522 H   0  0  0  0  0  0  0  0  0  0  0  0
    0.0655  -10.5758   41.2511 H   0  0  0  0  0  0  0  0  0  0  0  0
    1.5804  -12.3144   39.3695 H   0  0  0  0  0  0  0  0  0  0  0  0
    1.6655  -13.3535   36.3176 H   0  0  0  0  0  0  0  0  0  0  0  0
    2.2906  -11.9316   35.4549 H   0  0  0  0  0  0  0  0  0  0  0  0
    4.2260  -12.1360   36.6270 H   0  0  0  0  0  0  0  0  0  0  0  0
    5.2163  -15.8554   35.3000 H   0  0  0  0  0  0  0  0  0  0  0  0
    4.4046  -17.7270   33.0514 H   0  0  0  0  0  0  0  0  0  0  0  0
    2.3750  -18.8325   32.0854 H   0  0  0  0  0  0  0  0  0  0  0  0
    0.1325  -18.4495   33.0735 H   0  0  0  0  0  0  0  0  0  0  0  0
   -0.1509  -16.9283   35.0609 H   0  0  0  0  0  0  0  0  0  0  0  0
    0.6572  -10.9340   34.8366 H   0  0  0  0  0  0  0  0  0  0  0  0
   -0.6833   -9.8210   35.3402 H   0  0  0  0  0  0  0  0  0  0  0  0
  1  2  1  0
  2  3  1  0
  3  4  2  0
  4  5  1  0
  5  6  2  0
  6  7  1  0
  7  8  2  0
  7  9  1  0
  9 10  2  0
 10 11  1  0
 11 12  1  0
 12 13  1  0
 13 14  2  0
 13 15  2  0
 13 16  1  0
 16 17  2  0
 17 18  1  0
 18 19  2  0
 19 20  1  0
 20 21  2  0
 21 22  1  0
 22 23  2  0
 23 24  1  0
 10 25  1  0
 25 26  1  0
 26 27  1  0
 27 28  2  0
 27 29  1  0
  8  3  1  0
 24 16  1  0
 25  6  1  0
 23 18  1  0
  1 30  1  0
  1 31  1  0
  1 32  1  0
  4 33  1  0
  5 34  1  0
  8 35  1  0
  9 36  1  0
 11 37  1  0
 11 38  1  0
 12 39  1  0
 17 40  1  0
 19 41  1  0
 20 42  1  0
 21 43  1  0
 22 44  1  0
 26 45  1  0
 26 46  1  0
M  CHG  1  29  -1
M  END
>  <meeko>  (7) 
{"is_sidechain": [false], "free_energy": -8.105, "intermolecular_energy": -11.792, "internal_energy": -0.772}

$$$$
3ivg_ligand
     RDKit          3D

 46 49  0  0  0  0  0  0  0  0999 V2000
    8.1520  -14.0890   39.9870 C   0  0  0  0  0  0  0  0  0  0  0  0
    7.8160  -14.5870   38.6990 O   0  0  0  0  0  0  0  0  0  0  0  0
    6.6270  -14.1600   38.1660 C   0  0  0  0  0  0  0  0  0  0  0  0
    5.5100  -14.4110   38.9620 C   0  0  0  0  0  0  0  0  0  0  0  0
    4.2230  -14.0380   38.5590 C   0  0  0  0  0  0  0  0  0  0  0  0
    4.0810  -13.4020   37.3170 C   0  0  0  0  0  0  0  0  0  0  0  0
    5.1810  -13.1260   36.5070 C   0  0  0  0  0  0  0  0  0  0  0  0
    6.4710  -13.5130   36.9350 C   0  0  0  0  0  0  0  0  0  0  0  0
    4.6940  -12.4530   35.3560 C   0  0  0  0  0  0  0  0  0  0  0  0
    3.3210  -12.3280   35.4720 C   0  0  0  0  0  0  0  0  0  0  0  0
    2.3610  -11.6500   34.5560 C   0  0  0  0  0  0  0  0  0  0  0  0
    2.0560  -10.3490   35.1520 N   0  0  0  0  0  0  0  0  0  0  0  0
    0.9860   -9.3750   34.3030 S   0  0  0  0  0  0  0  0  0  0  0  0
   -0.3370   -9.9560   34.3870 O   0  0  0  0  0  0  0  0  0  0  0  0
    1.2380   -8.0200   34.7510 O   0  0  0  0  0  0  0  0  0  0  0  0
    1.4280   -9.4050   32.5690 C   0  0  0  0  0  0  0  0  0  0  0  0
    2.2750   -8.5880   31.8270 C   0  0  0  0  0  0  0  0  0  0  0  0
    2.2390   -9.0240   30.4810 C   0  0  0  0  0  0  0  0  0  0  0  0
    2.8320   -8.6100   29.2750 C   0  0  0  0  0  0  0  0  0  0  0  0
    2.5400   -9.3250   28.1050 C   0  0  0  0  0  0  0  0  0  0  0  0
    1.6790  -10.4260   28.1300 C   0  0  0  0  0  0  0  0  0  0  0  0
    1.0780  -10.8480   29.3220 C   0  0  0  0  0  0  0  0  0  0  0  0
    1.3860  -10.1150   30.4650 C   0  0  0  0  0  0  0  0  0  0  0  0
    0.9000  -10.3530   31.7100 O   0  0  0  0  0  0  0  0  0  0  0  0
    2.9520  -12.9370   36.6580 N   0  0  0  0  0  0  0  0  0  0  0  0
    1.5880  -13.1770   37.1090 C   0  0  0  0  0  0  0  0  0  0  0  0
    1.1270  -14.5870   36.7830 C   0  0  0  0  0  0  0  0  0  0  0  0
    1.0240  -15.3680   37.7750 O   0  0  0  0  0  0  0  0  0  0  0  0
    0.8340  -14.8000   35.5710 O   0  0  0  0  0  0  0  0  0  0  0  0
    7.7130  -14.7396   40.7577 H   0  0  0  0  0  0  0  0  0  0  0  0
    9.2461  -14.0733   40.1001 H   0  0  0  0  0  0  0  0  0  0  0  0
    7.7570  -13.0686   40.1001 H   0  0  0  0  0  0  0  0  0  0  0  0
    5.6439  -14.9147   39.9307 H   0  0  0  0  0  0  0  0  0  0  0  0
    3.3493  -14.2375   39.1968 H   0  0  0  0  0  0  0  0  0  0  0  0
    7.3479  -13.3067   36.3038 H   0  0  0  0  0  0  0  0  0  0  0  0
    5.3043  -12.0922   34.5150 H   0  0  0  0  0  0  0  0  0  0  0  0
    2.8156  -11.5148   33.5635 H   0  0  0  0  0  0  0  0  0  0  0  0
    1.4476  -12.2493   34.4271 H   0  0  0  0  0  0  0  0  0  0  0  0
    1.8140  -10.3970   36.1360 H   0  0  0  0  0  0  0  0  0  0  0  0
    2.8693   -7.7491   32.2183 H   0  0  0  0  0  0  0  0  0  0  0  0
    3.5101   -7.7442   29.2502 H   0  0  0  0  0  0  0  0  0  0  0  0
    2.9953   -9.0149   27.1529 H   0  0  0  0  0  0  0  0  0  0  0  0
    1.4701  -10.9701   27.1971 H   0  0  0  0  0  0  0  0  0  0  0  0
    0.3987  -11.7126   29.3538 H   0  0  0  0  0  0  0  0  0  0  0  0
    1.5419  -13.0300   38.1982 H   0  0  0  0  0  0  0  0  0  0  0  0
    0.9256  -12.4709   36.5868 H   0  0  0  0  0  0  0  0  0  0  0  0
  1  2  1  0
  2  3  1  0
  3  4  2  0
  4  5  1  0
  5  6  2  0
  6  7  1  0
  7  8  2  0
  7  9  1  0
  9 10  2  0
 10 11  1  0
 11 12  1  0
 12 13  1  0
 13 14  2  0
 13 15  2  0
 13 16  1  0
 16 17  2  0
 17 18  1  0
 18 19  2  0
 19 20  1  0
 20 21  2  0
 21 22  1  0
 22 23  2  0
 23 24  1  0
 10 25  1  0
 25 26  1  0
 26 27  1  0
 27 28  2  0
 27 29  1  0
  8  3  1  0
 24 16  1  0
 25  6  1  0
 23 18  1  0
  1 30  1  0
  1 31  1  0
  1 32  1  0
  4 33  1  0
  5 34  1  0
  8 35  1  0
  9 36  1  0
 11 37  1  0
 11 38  1  0
 12 39  1  0
 17 40  1  0
 19 41  1  0
 20 42  1  0
 21 43  1  0
 22 44  1  0
 26 45  1  0
 26 46  1  0
M  CHG  1  29  -1
M  END
>  <meeko>  (8) 
{"is_sidechain": [false], "free_energy": -8.006, "intermolecular_energy": -11.573, "internal_energy": -0.852}

$$$$
3ivg_ligand
     RDKit          3D

 46 49  0  0  0  0  0  0  0  0999 V2000
    1.4960   -9.4180   30.5960 C   0  0  0  0  0  0  0  0  0  0  0  0
    1.3090   -8.3610   31.5270 O   0  0  0  0  0  0  0  0  0  0  0  0
    1.2030   -8.7170   32.8470 C   0  0  0  0  0  0  0  0  0  0  0  0
    0.4630   -7.8320   33.6290 C   0  0  0  0  0  0  0  0  0  0  0  0
    0.2630   -8.0520   34.9960 C   0  0  0  0  0  0  0  0  0  0  0  0
    0.8360   -9.1960   35.5690 C   0  0  0  0  0  0  0  0  0  0  0  0
    1.5700  -10.1060   34.8090 C   0  0  0  0  0  0  0  0  0  0  0  0
    1.7590   -9.8620   33.4310 C   0  0  0  0  0  0  0  0  0  0  0  0
    1.9700  -11.1520   35.6810 C   0  0  0  0  0  0  0  0  0  0  0  0
    1.4860  -10.8750   36.9470 C   0  0  0  0  0  0  0  0  0  0  0  0
    1.5890  -11.6910   38.1900 C   0  0  0  0  0  0  0  0  0  0  0  0
    0.7520  -12.8740   37.9880 N   0  0  0  0  0  0  0  0  0  0  0  0
    1.5390  -14.2600   37.4620 S   0  0  0  0  0  0  0  0  0  0  0  0
    1.2060  -15.3490   38.3550 O   0  0  0  0  0  0  0  0  0  0  0  0
    1.2780  -14.3520   36.0400 O   0  0  0  0  0  0  0  0  0  0  0  0
    3.3050  -14.0160   37.6190 C   0  0  0  0  0  0  0  0  0  0  0  0
    4.1430  -14.0930   38.7270 C   0  0  0  0  0  0  0  0  0  0  0  0
    5.4570  -13.7720   38.3080 C   0  0  0  0  0  0  0  0  0  0  0  0
    6.7090  -13.6490   38.9340 C   0  0  0  0  0  0  0  0  0  0  0  0
    7.8190  -13.3010   38.1520 C   0  0  0  0  0  0  0  0  0  0  0  0
    7.6900  -13.0820   36.7770 C   0  0  0  0  0  0  0  0  0  0  0  0
    6.4500  -13.1970   36.1390 C   0  0  0  0  0  0  0  0  0  0  0  0
    5.3660  -13.5400   36.9460 C   0  0  0  0  0  0  0  0  0  0  0  0
    4.0850  -13.6880   36.5240 O   0  0  0  0  0  0  0  0  0  0  0  0
    0.8210   -9.6630   36.8760 N   0  0  0  0  0  0  0  0  0  0  0  0
    0.2870   -8.9130   38.0040 C   0  0  0  0  0  0  0  0  0  0  0  0
   -1.1830   -9.2130   38.2340 C   0  0  0  0  0  0  0  0  0  0  0  0
   -1.5430  -10.4000   37.9770 O   0  0  0  0  0  0  0  0  0  0  0  0
   -1.8660   -8.2650   38.7200 O   0  0  0  0  0  0  0  0  0  0  0  0
    1.6626  -10.3599   31.1392 H   0  0  0  0  0  0  0  0  0  0  0  0
    0.6007   -9.5127   29.9640 H   0  0  0  0  0  0  0  0  0  0  0  0
    2.3695   -9.1997   29.9640 H   0  0  0  0  0  0  0  0  0  0  0  0
    0.0254   -6.9385   33.1598 H   0  0  0  0  0  0  0  0  0  0  0  0
   -0.3260   -7.3486   35.6029 H   0  0  0  0  0  0  0  0  0  0  0  0
    2.3401  -10.5678   32.8193 H   0  0  0  0  0  0  0  0  0  0  0  0
    2.5641  -12.0335   35.3981 H   0  0  0  0  0  0  0  0  0  0  0  0
    2.6335  -11.9906   38.3612 H   0  0  0  0  0  0  0  0  0  0  0  0
    1.2573  -11.1174   39.0680 H   0  0  0  0  0  0  0  0  0  0  0  0
    0.1310  -13.0720   38.7660 H   0  0  0  0  0  0  0  0  0  0  0  0
    3.8379  -14.3572   39.7503 H   0  0  0  0  0  0  0  0  0  0  0  0
    6.8158  -13.8222   40.0150 H   0  0  0  0  0  0  0  0  0  0  0  0
    8.8059  -13.1987   38.6269 H   0  0  0  0  0  0  0  0  0  0  0  0
    8.5788  -12.8147   36.1866 H   0  0  0  0  0  0  0  0  0  0  0  0
    6.3365  -13.0259   35.0583 H   0  0  0  0  0  0  0  0  0  0  0  0
    0.8512   -9.1813   38.9093 H   0  0  0  0  0  0  0  0  0  0  0  0
    0.3865   -7.8407   37.7800 H   0  0  0  0  0  0  0  0  0  0  0  0
  1  2  1  0
  2  3  1  0
  3  4  2  0
  4  5  1  0
  5  6  2  0
  6  7  1  0
  7  8  2  0
  7  9  1  0
  9 10  2  0
 10 11  1  0
 11 12  1  0
 12 13  1  0
 13 14  2  0
 13 15  2  0
 13 16  1  0
 16 17  2  0
 17 18  1  0
 18 19  2  0
 19 20  1  0
 20 21  2  0
 21 22  1  0
 22 23  2  0
 23 24  1  0
 10 25  1  0
 25 26  1  0
 26 27  1  0
 27 28  2  0
 27 29  1  0
  8  3  1  0
 24 16  1  0
 25  6  1  0
 23 18  1  0
  1 30  1  0
  1 31  1  0
  1 32  1  0
  4 33  1  0
  5 34  1  0
  8 35  1  0
  9 36  1  0
 11 37  1  0
 11 38  1  0
 12 39  1  0
 17 40  1  0
 19 41  1  0
 20 42  1  0
 21 43  1  0
 22 44  1  0
 26 45  1  0
 26 46  1  0
M  CHG  1  29  -1
M  END
>  <meeko>  (9) 
{"is_sidechain": [false], "free_energy": -7.842, "intermolecular_energy": -11.192, "internal_energy": -1.002}

$$$$
