2qnq_ligand
     RDKit          3D

 71 75  0  0  0  0  0  0  0  0999 V2000
  -17.9780   22.5130   -5.9790 O   0  0  0  0  0  0  0  0  0  0  0  0
  -18.0050   22.0260   -4.6190 S   0  0  0  0  0  0  0  0  0  0  0  0
  -19.1190   22.3100   -3.7410 O   0  0  0  0  0  0  0  0  0  0  0  0
  -16.5320   22.5990   -3.8180 C   0  0  0  0  0  0  0  0  0  0  0  0
  -16.4970   22.8840   -2.4470 C   0  0  0  0  0  0  0  0  0  0  0  0
  -15.3220   23.3610   -1.8570 C   0  0  0  0  0  0  0  0  0  0  0  0
  -14.1800   23.5510   -2.6270 C   0  0  0  0  0  0  0  0  0  0  0  0
  -14.2050   23.2560   -3.9890 C   0  0  0  0  0  0  0  0  0  0  0  0
  -15.3760   22.7780   -4.5910 C   0  0  0  0  0  0  0  0  0  0  0  0
  -15.2830   22.4220   -6.2780 Cl  0  0  0  0  0  0  0  0  0  0  0  0
  -17.9450   20.3080   -4.7240 N   0  0  0  0  0  0  0  0  0  0  0  0
  -17.9820   19.6140   -3.3980 C   0  0  0  0  0  0  0  0  0  0  0  0
  -19.3320   19.0000   -3.1030 C   0  0  0  0  0  0  0  0  0  0  0  0
  -19.5120   18.1570   -1.9960 C   0  0  0  0  0  0  0  0  0  0  0  0
  -20.7550   17.5740   -1.7420 C   0  0  0  0  0  0  0  0  0  0  0  0
  -21.8360   17.8450   -2.5770 C   0  0  0  0  0  0  0  0  0  0  0  0
  -21.6830   18.7140   -3.6540 C   0  0  0  0  0  0  0  0  0  0  0  0
  -20.4410   19.2960   -3.9100 C   0  0  0  0  0  0  0  0  0  0  0  0
  -17.2010   19.6740   -5.8860 C   0  0  1  0  0  0  0  0  0  0  0  0
  -16.0170   18.7770   -5.4560 C   0  0  0  0  0  0  0  0  0  0  0  0
  -16.6210   17.4530   -5.0840 N   0  0  0  0  0  0  0  0  0  0  0  0
  -18.0360   17.4680   -5.5800 C   0  0  0  0  0  0  0  0  0  0  0  0
  -18.0590   18.5980   -6.6280 C   0  0  2  0  0  0  0  0  0  0  0  0
  -17.4040   18.2890   -8.0020 N   0  0  0  0  0  0  0  0  0  0  0  0
  -17.2060   19.5740   -8.7730 C   0  0  0  0  0  0  0  0  0  0  0  0
  -15.7550   19.9810   -8.8690 C   0  0  0  0  0  0  0  0  0  0  0  0
  -14.7550   19.1890   -8.2890 C   0  0  0  0  0  0  0  0  0  0  0  0
  -13.4160   19.5810   -8.3420 C   0  0  0  0  0  0  0  0  0  0  0  0
  -13.0630   20.7720   -8.9720 C   0  0  0  0  0  0  0  0  0  0  0  0
  -14.0460   21.5740   -9.5440 C   0  0  0  0  0  0  0  0  0  0  0  0
  -15.3850   21.1860   -9.4870 C   0  0  0  0  0  0  0  0  0  0  0  0
  -18.1590   17.0630   -8.9460 S   0  0  0  0  0  0  0  0  0  0  0  0
  -18.4770   17.6700  -10.2260 O   0  0  0  0  0  0  0  0  0  0  0  0
  -17.2520   15.9380   -8.8970 O   0  0  0  0  0  0  0  0  0  0  0  0
  -19.6660   16.6490   -8.1280 C   0  0  0  0  0  0  0  0  0  0  0  0
  -19.7410   15.4100   -7.4720 C   0  0  0  0  0  0  0  0  0  0  0  0
  -20.9150   15.0300   -6.8240 C   0  0  0  0  0  0  0  0  0  0  0  0
  -22.0190   15.8760   -6.8360 C   0  0  0  0  0  0  0  0  0  0  0  0
  -21.9520   17.1030   -7.5010 C   0  0  0  0  0  0  0  0  0  0  0  0
  -20.7770   17.4940   -8.1540 C   0  0  0  0  0  0  0  0  0  0  0  0
  -20.8040   19.0310   -8.9380 Cl  0  0  0  0  0  0  0  0  0  0  0  0
  -17.3965   22.7322   -1.8324 H   0  0  0  0  0  0  0  0  0  0  0  0
  -15.3013   23.5865   -0.7806 H   0  0  0  0  0  0  0  0  0  0  0  0
  -13.2591   23.9332   -2.1624 H   0  0  0  0  0  0  0  0  0  0  0  0
  -13.2986   23.3996   -4.5955 H   0  0  0  0  0  0  0  0  0  0  0  0
  -17.2239   18.8169   -3.3958 H   0  0  0  0  0  0  0  0  0  0  0  0
  -17.7802   20.3664   -2.6213 H   0  0  0  0  0  0  0  0  0  0  0  0
  -18.6665   17.9536   -1.3224 H   0  0  0  0  0  0  0  0  0  0  0  0
  -20.8805   16.9001   -0.8817 H   0  0  0  0  0  0  0  0  0  0  0  0
  -22.8108   17.3725   -2.3857 H   0  0  0  0  0  0  0  0  0  0  0  0
  -22.5413   18.9418   -4.3031 H   0  0  0  0  0  0  0  0  0  0  0  0
  -20.3301   19.9939   -4.7530 H   0  0  0  0  0  0  0  0  0  0  0  0
  -16.9174   20.5576   -6.4767 H   0  0  0  0  0  0  0  0  0  0  0  0
  -15.3076   18.6543   -6.2877 H   0  0  0  0  0  0  0  0  0  0  0  0
  -15.4590   19.2177   -4.6167 H   0  0  0  0  0  0  0  0  0  0  0  0
  -16.1220   16.6930   -5.5900 H   0  0  0  0  0  0  0  0  0  0  0  0
  -16.5810   17.2540   -4.0750 H   0  0  0  0  0  0  0  0  0  0  0  0
  -18.2980   16.5039   -6.0404 H   0  0  0  0  0  0  0  0  0  0  0  0
  -18.7637   17.6295   -4.7711 H   0  0  0  0  0  0  0  0  0  0  0  0
  -19.0909   18.8534   -6.9106 H   0  0  0  0  0  0  0  0  0  0  0  0
  -17.6009   19.4377   -9.7906 H   0  0  0  0  0  0  0  0  0  0  0  0
  -17.7383   20.3703   -8.2320 H   0  0  0  0  0  0  0  0  0  0  0  0
  -15.0277   18.2490   -7.7869 H   0  0  0  0  0  0  0  0  0  0  0  0
  -12.6396   18.9490   -7.8861 H   0  0  0  0  0  0  0  0  0  0  0  0
  -12.0076   21.0786   -9.0174 H   0  0  0  0  0  0  0  0  0  0  0  0
  -13.7671   22.5146  -10.0415 H   0  0  0  0  0  0  0  0  0  0  0  0
  -16.1582   21.8305   -9.9306 H   0  0  0  0  0  0  0  0  0  0  0  0
  -18.8707   14.7372   -7.4694 H   0  0  0  0  0  0  0  0  0  0  0  0
  -20.9684   14.0623   -6.3038 H   0  0  0  0  0  0  0  0  0  0  0  0
  -22.9450   15.5790   -6.3219 H   0  0  0  0  0  0  0  0  0  0  0  0
  -22.8291   17.7668   -7.5115 H   0  0  0  0  0  0  0  0  0  0  0  0
  1  2  2  0
  2  3  2  0
  2  4  1  0
  4  5  2  0
  5  6  1  0
  6  7  2  0
  7  8  1  0
  8  9  2  0
  9 10  1  0
  2 11  1  0
 11 12  1  0
 12 13  1  0
 13 14  2  0
 14 15  1  0
 15 16  2  0
 16 17  1  0
 17 18  2  0
 11 19  1  0
 19 20  1  0
 20 21  1  0
 21 22  1  0
 22 23  1  0
 23 24  1  0
 24 25  1  0
 25 26  1  0
 26 27  2  0
 27 28  1  0
 28 29  2  0
 29 30  1  0
 30 31  2  0
 24 32  1  0
 32 33  2  0
 32 34  2  0
 32 35  1  0
 35 36  2  0
 36 37  1  0
 37 38  2  0
 38 39  1  0
 39 40  2  0
 40 41  1  0
  9  4  1  0
 18 13  1  0
 23 19  1  0
 31 26  1  0
 40 35  1  0
  5 42  1  0
  6 43  1  0
  7 44  1  0
  8 45  1  0
 12 46  1  0
 12 47  1  0
 14 48  1  0
 15 49  1  0
 16 50  1  0
 17 51  1  0
 18 52  1  0
 19 53  1  6
 20 54  1  0
 20 55  1  0
 21 56  1  0
 21 57  1  0
 22 58  1  0
 22 59  1  0
 23 60  1  6
 25 61  1  0
 25 62  1  0
 27 63  1  0
 28 64  1  0
 29 65  1  0
 30 66  1  0
 31 67  1  0
 36 68  1  0
 37 69  1  0
 38 70  1  0
 39 71  1  0
M  CHG  1  21   1
M  END
>  <meeko>  (1) 
{"is_sidechain": [false], "free_energy": -11.036, "intermolecular_energy": -17.488, "internal_energy": 0.084}

$$$$
2qnq_ligand
     RDKit          3D

 71 75  0  0  0  0  0  0  0  0999 V2000
  -17.3860   20.7770   -7.7360 O   0  0  0  0  0  0  0  0  0  0  0  0
  -16.5130   21.3330   -6.7290 S   0  0  0  0  0  0  0  0  0  0  0  0
  -16.7160   22.6680   -6.2120 O   0  0  0  0  0  0  0  0  0  0  0  0
  -14.8560   21.2470   -7.3520 C   0  0  0  0  0  0  0  0  0  0  0  0
  -13.9750   22.3320   -7.2680 C   0  0  0  0  0  0  0  0  0  0  0  0
  -12.6840   22.2340   -7.7970 C   0  0  0  0  0  0  0  0  0  0  0  0
  -12.2660   21.0560   -8.4060 C   0  0  0  0  0  0  0  0  0  0  0  0
  -13.1340   19.9680   -8.4810 C   0  0  0  0  0  0  0  0  0  0  0  0
  -14.4290   20.0560   -7.9550 C   0  0  0  0  0  0  0  0  0  0  0  0
  -15.4060   18.6380   -8.0810 Cl  0  0  0  0  0  0  0  0  0  0  0  0
  -16.6420   20.2980   -5.3580 N   0  0  0  0  0  0  0  0  0  0  0  0
  -15.4300   20.2950   -4.4800 C   0  0  0  0  0  0  0  0  0  0  0  0
  -15.2710   21.5850   -3.7060 C   0  0  0  0  0  0  0  0  0  0  0  0
  -14.1030   22.3540   -3.8230 C   0  0  0  0  0  0  0  0  0  0  0  0
  -13.9530   23.5320   -3.0890 C   0  0  0  0  0  0  0  0  0  0  0  0
  -14.9750   23.9660   -2.2490 C   0  0  0  0  0  0  0  0  0  0  0  0
  -16.1570   23.2350   -2.1560 C   0  0  0  0  0  0  0  0  0  0  0  0
  -16.3080   22.0570   -2.8880 C   0  0  0  0  0  0  0  0  0  0  0  0
  -17.4980   19.0490   -5.4650 C   0  0  1  0  0  0  0  0  0  0  0  0
  -17.0390   17.8940   -4.5450 C   0  0  0  0  0  0  0  0  0  0  0  0
  -17.6070   18.2020   -3.1890 N   0  0  0  0  0  0  0  0  0  0  0  0
  -18.6140   19.2970   -3.3800 C   0  0  0  0  0  0  0  0  0  0  0  0
  -18.9350   19.2590   -4.8870 C   0  0  2  0  0  0  0  0  0  0  0  0
  -19.8510   18.1050   -5.3760 N   0  0  0  0  0  0  0  0  0  0  0  0
  -20.3410   18.4010   -6.7760 C   0  0  0  0  0  0  0  0  0  0  0  0
  -19.4970   17.7460   -7.8420 C   0  0  0  0  0  0  0  0  0  0  0  0
  -18.7780   16.5760   -7.5610 C   0  0  0  0  0  0  0  0  0  0  0  0
  -17.9650   15.9890   -8.5320 C   0  0  0  0  0  0  0  0  0  0  0  0
  -17.8600   16.5660   -9.7950 C   0  0  0  0  0  0  0  0  0  0  0  0
  -18.5610   17.7330  -10.0860 C   0  0  0  0  0  0  0  0  0  0  0  0
  -19.3690   18.3240   -9.1150 C   0  0  0  0  0  0  0  0  0  0  0  0
  -21.1260   17.6420   -4.3150 S   0  0  0  0  0  0  0  0  0  0  0  0
  -20.5250   16.8040   -3.2930 O   0  0  0  0  0  0  0  0  0  0  0  0
  -21.7670   18.8810   -3.9350 O   0  0  0  0  0  0  0  0  0  0  0  0
  -22.2430   16.6610   -5.2650 C   0  0  0  0  0  0  0  0  0  0  0  0
  -21.7040   15.6560   -6.0840 C   0  0  0  0  0  0  0  0  0  0  0  0
  -22.5440   14.8640   -6.8660 C   0  0  0  0  0  0  0  0  0  0  0  0
  -23.9190   15.0770   -6.8410 C   0  0  0  0  0  0  0  0  0  0  0  0
  -24.4560   16.0850   -6.0380 C   0  0  0  0  0  0  0  0  0  0  0  0
  -23.6210   16.8860   -5.2490 C   0  0  0  0  0  0  0  0  0  0  0  0
  -24.3920   18.0970   -4.2920 Cl  0  0  0  0  0  0  0  0  0  0  0  0
  -14.2995   23.2650   -6.7841 H   0  0  0  0  0  0  0  0  0  0  0  0
  -11.9976   23.0910   -7.7311 H   0  0  0  0  0  0  0  0  0  0  0  0
  -11.2526   20.9829   -8.8276 H   0  0  0  0  0  0  0  0  0  0  0  0
  -12.7997   19.0341   -8.9565 H   0  0  0  0  0  0  0  0  0  0  0  0
  -15.5144   19.4631   -3.7653 H   0  0  0  0  0  0  0  0  0  0  0  0
  -14.5484   20.1839   -5.1284 H   0  0  0  0  0  0  0  0  0  0  0  0
  -13.2992   22.0260   -4.4985 H   0  0  0  0  0  0  0  0  0  0  0  0
  -13.0261   24.1181   -3.1744 H   0  0  0  0  0  0  0  0  0  0  0  0
  -14.8490   24.8858   -1.6590 H   0  0  0  0  0  0  0  0  0  0  0  0
  -16.9714   23.5865   -1.5054 H   0  0  0  0  0  0  0  0  0  0  0  0
  -17.2499   21.4926   -2.8230 H   0  0  0  0  0  0  0  0  0  0  0  0
  -17.4371   18.8304   -6.5413 H   0  0  0  0  0  0  0  0  0  0  0  0
  -17.4270   16.9330   -4.9138 H   0  0  0  0  0  0  0  0  0  0  0  0
  -15.9426   17.8104   -4.5157 H   0  0  0  0  0  0  0  0  0  0  0  0
  -18.1190   17.3680   -2.8330 H   0  0  0  0  0  0  0  0  0  0  0  0
  -16.8940   18.4670   -2.4960 H   0  0  0  0  0  0  0  0  0  0  0  0
  -19.5180   19.1036   -2.7838 H   0  0  0  0  0  0  0  0  0  0  0  0
  -18.2360   20.2776   -3.0550 H   0  0  0  0  0  0  0  0  0  0  0  0
  -19.4981   20.1527   -5.1939 H   0  0  0  0  0  0  0  0  0  0  0  0
  -21.3739   18.0351   -6.8715 H   0  0  0  0  0  0  0  0  0  0  0  0
  -20.2779   19.4889   -6.9258 H   0  0  0  0  0  0  0  0  0  0  0  0
  -18.8553   16.1157   -6.5650 H   0  0  0  0  0  0  0  0  0  0  0  0
  -17.4069   15.0701   -8.2994 H   0  0  0  0  0  0  0  0  0  0  0  0
  -17.2238   16.1001  -10.5620 H   0  0  0  0  0  0  0  0  0  0  0  0
  -18.4775   18.1896  -11.0832 H   0  0  0  0  0  0  0  0  0  0  0  0
  -19.9113   19.2520   -9.3488 H   0  0  0  0  0  0  0  0  0  0  0  0
  -20.6164   15.4930   -6.1088 H   0  0  0  0  0  0  0  0  0  0  0  0
  -22.1205   14.0723   -7.5015 H   0  0  0  0  0  0  0  0  0  0  0  0
  -24.5833   14.4506   -7.4544 H   0  0  0  0  0  0  0  0  0  0  0  0
  -25.5433   16.2513   -6.0249 H   0  0  0  0  0  0  0  0  0  0  0  0
  1  2  2  0
  2  3  2  0
  2  4  1  0
  4  5  2  0
  5  6  1  0
  6  7  2  0
  7  8  1  0
  8  9  2  0
  9 10  1  0
  2 11  1  0
 11 12  1  0
 12 13  1  0
 13 14  2  0
 14 15  1  0
 15 16  2  0
 16 17  1  0
 17 18  2  0
 11 19  1  0
 19 20  1  0
 20 21  1  0
 21 22  1  0
 22 23  1  0
 23 24  1  0
 24 25  1  0
 25 26  1  0
 26 27  2  0
 27 28  1  0
 28 29  2  0
 29 30  1  0
 30 31  2  0
 24 32  1  0
 32 33  2  0
 32 34  2  0
 32 35  1  0
 35 36  2  0
 36 37  1  0
 37 38  2  0
 38 39  1  0
 39 40  2  0
 40 41  1  0
  9  4  1  0
 18 13  1  0
 23 19  1  0
 31 26  1  0
 40 35  1  0
  5 42  1  0
  6 43  1  0
  7 44  1  0
  8 45  1  0
 12 46  1  0
 12 47  1  0
 14 48  1  0
 15 49  1  0
 16 50  1  0
 17 51  1  0
 18 52  1  0
 19 53  1  6
 20 54  1  0
 20 55  1  0
 21 56  1  0
 21 57  1  0
 22 58  1  0
 22 59  1  0
 23 60  1  6
 25 61  1  0
 25 62  1  0
 27 63  1  0
 28 64  1  0
 29 65  1  0
 30 66  1  0
 31 67  1  0
 36 68  1  0
 37 69  1  0
 38 70  1  0
 39 71  1  0
M  CHG  1  21   1
M  END
>  <meeko>  (2) 
{"is_sidechain": [false], "free_energy": -10.869, "intermolecular_energy": -15.753, "internal_energy": -1.387}

$$$$
2qnq_ligand
     RDKit          3D

 71 75  0  0  0  0  0  0  0  0999 V2000
  -18.6570   17.8150  -10.1860 O   0  0  0  0  0  0  0  0  0  0  0  0
  -18.2740   17.0160   -9.0460 S   0  0  0  0  0  0  0  0  0  0  0  0
  -17.4210   15.8570   -9.1910 O   0  0  0  0  0  0  0  0  0  0  0  0
  -19.7620   16.4890   -8.2400 C   0  0  0  0  0  0  0  0  0  0  0  0
  -19.8810   15.2190   -7.6600 C   0  0  0  0  0  0  0  0  0  0  0  0
  -21.0810   14.8290   -7.0590 C   0  0  0  0  0  0  0  0  0  0  0  0
  -22.1640   15.7020   -7.0290 C   0  0  0  0  0  0  0  0  0  0  0  0
  -22.0470   16.9710   -7.5930 C   0  0  0  0  0  0  0  0  0  0  0  0
  -20.8490   17.3720   -8.1980 C   0  0  0  0  0  0  0  0  0  0  0  0
  -20.8110   18.9750   -8.8390 Cl  0  0  0  0  0  0  0  0  0  0  0  0
  -17.4180   18.0710   -7.9870 N   0  0  0  0  0  0  0  0  0  0  0  0
  -15.9300   17.9190   -8.0450 C   0  0  0  0  0  0  0  0  0  0  0  0
  -15.2430   19.1540   -8.5860 C   0  0  0  0  0  0  0  0  0  0  0  0
  -15.9310   20.0530   -9.4160 C   0  0  0  0  0  0  0  0  0  0  0  0
  -15.2860   21.1790   -9.9310 C   0  0  0  0  0  0  0  0  0  0  0  0
  -13.9550   21.4300   -9.6070 C   0  0  0  0  0  0  0  0  0  0  0  0
  -13.2730   20.5690   -8.7510 C   0  0  0  0  0  0  0  0  0  0  0  0
  -13.9160   19.4430   -8.2360 C   0  0  0  0  0  0  0  0  0  0  0  0
  -18.0810   18.4970   -6.6880 C   0  0  1  0  0  0  0  0  0  0  0  0
  -17.9530   17.4580   -5.5500 C   0  0  0  0  0  0  0  0  0  0  0  0
  -16.5890   17.6690   -4.9560 N   0  0  0  0  0  0  0  0  0  0  0  0
  -16.0790   18.9720   -5.4960 C   0  0  0  0  0  0  0  0  0  0  0  0
  -17.3420   19.6930   -6.0050 C   0  0  2  0  0  0  0  0  0  0  0  0
  -18.2720   20.3130   -4.9280 N   0  0  0  0  0  0  0  0  0  0  0  0
  -19.6900   19.8320   -5.1400 C   0  0  0  0  0  0  0  0  0  0  0  0
  -20.2620   19.1420   -3.9250 C   0  0  0  0  0  0  0  0  0  0  0  0
  -19.4840   18.9730   -2.7720 C   0  0  0  0  0  0  0  0  0  0  0  0
  -19.9960   18.3010   -1.6610 C   0  0  0  0  0  0  0  0  0  0  0  0
  -21.2900   17.7880   -1.6910 C   0  0  0  0  0  0  0  0  0  0  0  0
  -22.0720   17.9400   -2.8330 C   0  0  0  0  0  0  0  0  0  0  0  0
  -21.5590   18.6060   -3.9460 C   0  0  0  0  0  0  0  0  0  0  0  0
  -18.1780   22.0210   -4.7320 S   0  0  0  0  0  0  0  0  0  0  0  0
  -18.3000   22.5930   -6.0610 O   0  0  0  0  0  0  0  0  0  0  0  0
  -19.1670   22.3400   -3.7260 O   0  0  0  0  0  0  0  0  0  0  0  0
  -16.5640   22.3720   -4.1120 C   0  0  0  0  0  0  0  0  0  0  0  0
  -16.4050   22.5000   -2.7230 C   0  0  0  0  0  0  0  0  0  0  0  0
  -15.1540   22.7920   -2.1850 C   0  0  0  0  0  0  0  0  0  0  0  0
  -14.0590   22.9670   -3.0280 C   0  0  0  0  0  0  0  0  0  0  0  0
  -14.2180   22.8540   -4.4100 C   0  0  0  0  0  0  0  0  0  0  0  0
  -15.4720   22.5600   -4.9610 C   0  0  0  0  0  0  0  0  0  0  0  0
  -15.5510   22.4380   -6.6800 Cl  0  0  0  0  0  0  0  0  0  0  0  0
  -19.0267   14.5263   -7.6778 H   0  0  0  0  0  0  0  0  0  0  0  0
  -21.1695   13.8294   -6.6086 H   0  0  0  0  0  0  0  0  0  0  0  0
  -23.1100   15.3914   -6.5614 H   0  0  0  0  0  0  0  0  0  0  0  0
  -22.9017   17.6628   -7.5628 H   0  0  0  0  0  0  0  0  0  0  0  0
  -15.5554   17.7230   -7.0295 H   0  0  0  0  0  0  0  0  0  0  0  0
  -15.7051   17.0853   -8.7264 H   0  0  0  0  0  0  0  0  0  0  0  0
  -16.9870   19.8688   -9.6627 H   0  0  0  0  0  0  0  0  0  0  0  0
  -15.8297   21.8687  -10.5934 H   0  0  0  0  0  0  0  0  0  0  0  0
  -13.4426   22.3081  -10.0271 H   0  0  0  0  0  0  0  0  0  0  0  0
  -12.2271   20.7767   -8.4808 H   0  0  0  0  0  0  0  0  0  0  0  0
  -13.3766   18.7750   -7.5484 H   0  0  0  0  0  0  0  0  0  0  0  0
  -19.1120   18.6915   -7.0185 H   0  0  0  0  0  0  0  0  0  0  0  0
  -18.7315   17.6235   -4.7906 H   0  0  0  0  0  0  0  0  0  0  0  0
  -18.0781   16.4308   -5.9231 H   0  0  0  0  0  0  0  0  0  0  0  0
  -16.6770   17.7730   -3.9240 H   0  0  0  0  0  0  0  0  0  0  0  0
  -15.9340   16.9000   -5.1520 H   0  0  0  0  0  0  0  0  0  0  0  0
  -15.5888   19.5570   -4.7039 H   0  0  0  0  0  0  0  0  0  0  0  0
  -15.3264   18.8339   -6.2863 H   0  0  0  0  0  0  0  0  0  0  0  0
  -17.0778   20.5660   -6.6199 H   0  0  0  0  0  0  0  0  0  0  0  0
  -20.3225   20.6987   -5.3822 H   0  0  0  0  0  0  0  0  0  0  0  0
  -19.6716   19.0983   -5.9594 H   0  0  0  0  0  0  0  0  0  0  0  0
  -18.4600   19.3737   -2.7421 H   0  0  0  0  0  0  0  0  0  0  0  0
  -19.3764   18.1765   -0.7606 H   0  0  0  0  0  0  0  0  0  0  0  0
  -21.6943   17.2629   -0.8130 H   0  0  0  0  0  0  0  0  0  0  0  0
  -23.0944   17.5348   -2.8574 H   0  0  0  0  0  0  0  0  0  0  0  0
  -22.1773   18.7123   -4.8495 H   0  0  0  0  0  0  0  0  0  0  0  0
  -17.2711   22.3693   -2.0576 H   0  0  0  0  0  0  0  0  0  0  0  0
  -15.0308   22.8843   -1.0958 H   0  0  0  0  0  0  0  0  0  0  0  0
  -13.0694   23.1941   -2.6047 H   0  0  0  0  0  0  0  0  0  0  0  0
  -13.3513   22.9970   -5.0722 H   0  0  0  0  0  0  0  0  0  0  0  0
  1  2  2  0
  2  3  2  0
  2  4  1  0
  4  5  2  0
  5  6  1  0
  6  7  2  0
  7  8  1  0
  8  9  2  0
  9 10  1  0
  2 11  1  0
 11 12  1  0
 12 13  1  0
 13 14  2  0
 14 15  1  0
 15 16  2  0
 16 17  1  0
 17 18  2  0
 11 19  1  0
 19 20  1  0
 20 21  1  0
 21 22  1  0
 22 23  1  0
 23 24  1  0
 24 25  1  0
 25 26  1  0
 26 27  2  0
 27 28  1  0
 28 29  2  0
 29 30  1  0
 30 31  2  0
 24 32  1  0
 32 33  2  0
 32 34  2  0
 32 35  1  0
 35 36  2  0
 36 37  1  0
 37 38  2  0
 38 39  1  0
 39 40  2  0
 40 41  1  0
  9  4  1  0
 18 13  1  0
 23 19  1  0
 31 26  1  0
 40 35  1  0
  5 42  1  0
  6 43  1  0
  7 44  1  0
  8 45  1  0
 12 46  1  0
 12 47  1  0
 14 48  1  0
 15 49  1  0
 16 50  1  0
 17 51  1  0
 18 52  1  0
 19 53  1  6
 20 54  1  0
 20 55  1  0
 21 56  1  0
 21 57  1  0
 22 58  1  0
 22 59  1  0
 23 60  1  6
 25 61  1  0
 25 62  1  0
 27 63  1  0
 28 64  1  0
 29 65  1  0
 30 66  1  0
 31 67  1  0
 36 68  1  0
 37 69  1  0
 38 70  1  0
 39 71  1  0
M  CHG  1  21   1
M  END
>  <meeko>  (3) 
{"is_sidechain": [false], "free_energy": -10.858, "intermolecular_energy": -17.447, "internal_energy": 0.325}

$$$$
2qnq_ligand
     RDKit          3D

 71 75  0  0  0  0  0  0  0  0999 V2000
  -17.4690   22.7610   -5.4870 O   0  0  0  0  0  0  0  0  0  0  0  0
  -16.9340   22.2900   -4.2310 S   0  0  0  0  0  0  0  0  0  0  0  0
  -17.7850   22.0930   -3.0780 O   0  0  0  0  0  0  0  0  0  0  0  0
  -15.6350   23.3970   -3.7540 C   0  0  0  0  0  0  0  0  0  0  0  0
  -15.3860   24.5890   -4.4460 C   0  0  0  0  0  0  0  0  0  0  0  0
  -14.3320   25.4220   -4.0570 C   0  0  0  0  0  0  0  0  0  0  0  0
  -13.5280   25.0750   -2.9770 C   0  0  0  0  0  0  0  0  0  0  0  0
  -13.7800   23.8960   -2.2760 C   0  0  0  0  0  0  0  0  0  0  0  0
  -14.8320   23.0540   -2.6580 C   0  0  0  0  0  0  0  0  0  0  0  0
  -15.0660   21.6350   -1.7010 Cl  0  0  0  0  0  0  0  0  0  0  0  0
  -16.2500   20.7410   -4.5500 N   0  0  0  0  0  0  0  0  0  0  0  0
  -14.8070   20.7810   -4.9430 C   0  0  0  0  0  0  0  0  0  0  0  0
  -14.6150   20.7730   -6.4440 C   0  0  0  0  0  0  0  0  0  0  0  0
  -14.9490   21.8960   -7.2170 C   0  0  0  0  0  0  0  0  0  0  0  0
  -14.7920   21.8750   -8.6040 C   0  0  0  0  0  0  0  0  0  0  0  0
  -14.2800   20.7420   -9.2310 C   0  0  0  0  0  0  0  0  0  0  0  0
  -13.9050   19.6370   -8.4720 C   0  0  0  0  0  0  0  0  0  0  0  0
  -14.0620   19.6550   -7.0860 C   0  0  0  0  0  0  0  0  0  0  0  0
  -17.1500   19.6450   -5.0940 C   0  0  1  0  0  0  0  0  0  0  0  0
  -16.6950   18.2170   -4.7130 C   0  0  0  0  0  0  0  0  0  0  0  0
  -17.2050   17.9830   -3.3190 N   0  0  0  0  0  0  0  0  0  0  0  0
  -18.1820   19.0830   -3.0270 C   0  0  0  0  0  0  0  0  0  0  0  0
  -18.5580   19.6370   -4.4140 C   0  0  2  0  0  0  0  0  0  0  0  0
  -19.5270   18.7770   -5.2700 N   0  0  0  0  0  0  0  0  0  0  0  0
  -19.9170   19.5380   -6.5180 C   0  0  0  0  0  0  0  0  0  0  0  0
  -19.3330   18.9380   -7.7750 C   0  0  0  0  0  0  0  0  0  0  0  0
  -20.1600   18.2960   -8.7060 C   0  0  0  0  0  0  0  0  0  0  0  0
  -19.6190   17.7070   -9.8500 C   0  0  0  0  0  0  0  0  0  0  0  0
  -18.2450   17.7490  -10.0740 C   0  0  0  0  0  0  0  0  0  0  0  0
  -17.4100   18.3750   -9.1530 C   0  0  0  0  0  0  0  0  0  0  0  0
  -17.9490   18.9590   -8.0060 C   0  0  0  0  0  0  0  0  0  0  0  0
  -20.8880   18.1180   -4.4480 S   0  0  0  0  0  0  0  0  0  0  0  0
  -20.3600   17.2370   -3.4210 O   0  0  0  0  0  0  0  0  0  0  0  0
  -21.6870   19.2610   -4.0640 O   0  0  0  0  0  0  0  0  0  0  0  0
  -21.7700   17.1460   -5.6270 C   0  0  0  0  0  0  0  0  0  0  0  0
  -23.1400   17.4000   -5.7980 C   0  0  0  0  0  0  0  0  0  0  0  0
  -23.8840   16.6490   -6.7060 C   0  0  0  0  0  0  0  0  0  0  0  0
  -23.2690   15.6370   -7.4380 C   0  0  0  0  0  0  0  0  0  0  0  0
  -21.9100   15.3730   -7.2580 C   0  0  0  0  0  0  0  0  0  0  0  0
  -21.1530   16.1230   -6.3490 C   0  0  0  0  0  0  0  0  0  0  0  0
  -19.4820   15.7140   -6.2120 Cl  0  0  0  0  0  0  0  0  0  0  0  0
  -16.0216   24.8710   -5.2984 H   0  0  0  0  0  0  0  0  0  0  0  0
  -14.1385   26.3546   -4.6072 H   0  0  0  0  0  0  0  0  0  0  0  0
  -12.6957   25.7284   -2.6764 H   0  0  0  0  0  0  0  0  0  0  0  0
  -13.1482   23.6255   -1.4171 H   0  0  0  0  0  0  0  0  0  0  0  0
  -14.3553   21.6970   -4.5344 H   0  0  0  0  0  0  0  0  0  0  0  0
  -14.3254   19.8781   -4.5395 H   0  0  0  0  0  0  0  0  0  0  0  0
  -15.3377   22.8002   -6.7258 H   0  0  0  0  0  0  0  0  0  0  0  0
  -15.0730   22.7543   -9.2022 H   0  0  0  0  0  0  0  0  0  0  0  0
  -14.1719   20.7202  -10.3255 H   0  0  0  0  0  0  0  0  0  0  0  0
  -13.4844   18.7486   -8.9657 H   0  0  0  0  0  0  0  0  0  0  0  0
  -13.7492   18.7843   -6.4909 H   0  0  0  0  0  0  0  0  0  0  0  0
  -17.1358   19.8598   -6.1727 H   0  0  0  0  0  0  0  0  0  0  0  0
  -17.1252   17.4800   -5.4070 H   0  0  0  0  0  0  0  0  0  0  0  0
  -15.6013   18.1128   -4.7667 H   0  0  0  0  0  0  0  0  0  0  0  0
  -17.7300   17.0850   -3.2910 H   0  0  0  0  0  0  0  0  0  0  0  0
  -16.4590   17.9480   -2.6120 H   0  0  0  0  0  0  0  0  0  0  0  0
  -19.0699   18.6886   -2.5112 H   0  0  0  0  0  0  0  0  0  0  0  0
  -17.7603   19.8550   -2.3666 H   0  0  0  0  0  0  0  0  0  0  0  0
  -19.1031   20.5882   -4.3244 H   0  0  0  0  0  0  0  0  0  0  0  0
  -21.0137   19.5347   -6.6035 H   0  0  0  0  0  0  0  0  0  0  0  0
  -19.5186   20.5588   -6.4219 H   0  0  0  0  0  0  0  0  0  0  0  0
  -21.2457   18.2557   -8.5338 H   0  0  0  0  0  0  0  0  0  0  0  0
  -20.2788   17.2089  -10.5757 H   0  0  0  0  0  0  0  0  0  0  0  0
  -17.8202   17.2879  -10.9778 H   0  0  0  0  0  0  0  0  0  0  0  0
  -16.3248   18.4094   -9.3294 H   0  0  0  0  0  0  0  0  0  0  0  0
  -17.2823   19.4407   -7.2756 H   0  0  0  0  0  0  0  0  0  0  0  0
  -23.6277   18.1941   -5.2136 H   0  0  0  0  0  0  0  0  0  0  0  0
  -24.9556   16.8555   -6.8441 H   0  0  0  0  0  0  0  0  0  0  0  0
  -23.8537   15.0456   -8.1580 H   0  0  0  0  0  0  0  0  0  0  0  0
  -21.4296   14.5691   -7.8350 H   0  0  0  0  0  0  0  0  0  0  0  0
  1  2  2  0
  2  3  2  0
  2  4  1  0
  4  5  2  0
  5  6  1  0
  6  7  2  0
  7  8  1  0
  8  9  2  0
  9 10  1  0
  2 11  1  0
 11 12  1  0
 12 13  1  0
 13 14  2  0
 14 15  1  0
 15 16  2  0
 16 17  1  0
 17 18  2  0
 11 19  1  0
 19 20  1  0
 20 21  1  0
 21 22  1  0
 22 23  1  0
 23 24  1  0
 24 25  1  0
 25 26  1  0
 26 27  2  0
 27 28  1  0
 28 29  2  0
 29 30  1  0
 30 31  2  0
 24 32  1  0
 32 33  2  0
 32 34  2  0
 32 35  1  0
 35 36  2  0
 36 37  1  0
 37 38  2  0
 38 39  1  0
 39 40  2  0
 40 41  1  0
  9  4  1  0
 18 13  1  0
 23 19  1  0
 31 26  1  0
 40 35  1  0
  5 42  1  0
  6 43  1  0
  7 44  1  0
  8 45  1  0
 12 46  1  0
 12 47  1  0
 14 48  1  0
 15 49  1  0
 16 50  1  0
 17 51  1  0
 18 52  1  0
 19 53  1  6
 20 54  1  0
 20 55  1  0
 21 56  1  0
 21 57  1  0
 22 58  1  0
 22 59  1  0
 23 60  1  1
 25 61  1  0
 25 62  1  0
 27 63  1  0
 28 64  1  0
 29 65  1  0
 30 66  1  0
 31 67  1  0
 36 68  1  0
 37 69  1  0
 38 70  1  0
 39 71  1  0
M  CHG  1  21   1
M  END
>  <meeko>  (4) 
{"is_sidechain": [false], "free_energy": -10.746, "intermolecular_energy": -15.513, "internal_energy": -1.43}

$$$$
2qnq_ligand
     RDKit          3D

 71 75  0  0  0  0  0  0  0  0999 V2000
  -18.9170   21.0500   -5.2420 O   0  0  0  0  0  0  0  0  0  0  0  0
  -19.3900   19.7660   -5.7040 S   0  0  0  0  0  0  0  0  0  0  0  0
  -20.2710   19.6550   -6.8450 O   0  0  0  0  0  0  0  0  0  0  0  0
  -20.1830   18.9650   -4.3360 C   0  0  0  0  0  0  0  0  0  0  0  0
  -21.4520   18.3820   -4.4520 C   0  0  0  0  0  0  0  0  0  0  0  0
  -22.0560   17.7850   -3.3420 C   0  0  0  0  0  0  0  0  0  0  0  0
  -21.3990   17.7610   -2.1160 C   0  0  0  0  0  0  0  0  0  0  0  0
  -20.1310   18.3280   -1.9980 C   0  0  0  0  0  0  0  0  0  0  0  0
  -19.5170   18.9290   -3.1030 C   0  0  0  0  0  0  0  0  0  0  0  0
  -17.9350   19.5740   -2.8460 Cl  0  0  0  0  0  0  0  0  0  0  0  0
  -17.9870   18.8640   -6.1330 N   0  0  0  0  0  0  0  0  0  0  0  0
  -18.0970   17.3960   -5.8620 C   0  0  0  0  0  0  0  0  0  0  0  0
  -18.8750   16.6660   -6.9340 C   0  0  0  0  0  0  0  0  0  0  0  0
  -19.9710   15.8550   -6.6010 C   0  0  0  0  0  0  0  0  0  0  0  0
  -20.6710   15.1650   -7.5920 C   0  0  0  0  0  0  0  0  0  0  0  0
  -20.2980   15.2950   -8.9280 C   0  0  0  0  0  0  0  0  0  0  0  0
  -19.2390   16.1280   -9.2770 C   0  0  0  0  0  0  0  0  0  0  0  0
  -18.5380   16.8180   -8.2870 C   0  0  0  0  0  0  0  0  0  0  0  0
  -16.6310   19.5440   -6.0570 C   0  0  1  0  0  0  0  0  0  0  0  0
  -15.4360   18.5790   -6.2360 C   0  0  0  0  0  0  0  0  0  0  0  0
  -15.2860   18.3840   -7.7180 N   0  0  0  0  0  0  0  0  0  0  0  0
  -16.1330   19.4310   -8.3790 C   0  0  0  0  0  0  0  0  0  0  0  0
  -16.3650   20.4830   -7.2780 C   0  0  2  0  0  0  0  0  0  0  0  0
  -15.1730   21.4200   -6.9450 N   0  0  0  0  0  0  0  0  0  0  0  0
  -15.6890   22.7120   -6.3520 C   0  0  0  0  0  0  0  0  0  0  0  0
  -15.4250   22.8220   -4.8690 C   0  0  0  0  0  0  0  0  0  0  0  0
  -15.2780   24.0780   -4.2650 C   0  0  0  0  0  0  0  0  0  0  0  0
  -14.9940   24.1830   -2.9020 C   0  0  0  0  0  0  0  0  0  0  0  0
  -14.8510   23.0340   -2.1290 C   0  0  0  0  0  0  0  0  0  0  0  0
  -14.9850   21.7790   -2.7170 C   0  0  0  0  0  0  0  0  0  0  0  0
  -15.2630   21.6730   -4.0800 C   0  0  0  0  0  0  0  0  0  0  0  0
  -14.0350   21.6840   -8.2100 S   0  0  0  0  0  0  0  0  0  0  0  0
  -13.5210   20.3770   -8.5790 O   0  0  0  0  0  0  0  0  0  0  0  0
  -14.7420   22.4750   -9.1930 O   0  0  0  0  0  0  0  0  0  0  0  0
  -12.7190   22.6330   -7.5170 C   0  0  0  0  0  0  0  0  0  0  0  0
  -12.5480   22.6030   -6.1240 C   0  0  0  0  0  0  0  0  0  0  0  0
  -11.5330   23.3480   -5.5260 C   0  0  0  0  0  0  0  0  0  0  0  0
  -10.6920   24.1310   -6.3130 C   0  0  0  0  0  0  0  0  0  0  0  0
  -10.8700   24.1730   -7.6970 C   0  0  0  0  0  0  0  0  0  0  0  0
  -11.8860   23.4280   -8.3070 C   0  0  0  0  0  0  0  0  0  0  0  0
  -12.0110   23.5510  -10.0230 Cl  0  0  0  0  0  0  0  0  0  0  0  0
  -21.9745   18.3943   -5.4199 H   0  0  0  0  0  0  0  0  0  0  0  0
  -23.0541   17.3327   -3.4381 H   0  0  0  0  0  0  0  0  0  0  0  0
  -21.8787   17.2959   -1.2422 H   0  0  0  0  0  0  0  0  0  0  0  0
  -19.6094   18.3029   -1.0299 H   0  0  0  0  0  0  0  0  0  0  0  0
  -17.0842   16.9701   -5.8093 H   0  0  0  0  0  0  0  0  0  0  0  0
  -18.6381   17.2710   -4.9125 H   0  0  0  0  0  0  0  0  0  0  0  0
  -20.2811   15.7623   -5.5497 H   0  0  0  0  0  0  0  0  0  0  0  0
  -21.5176   14.5183   -7.3180 H   0  0  0  0  0  0  0  0  0  0  0  0
  -20.8405   14.7393   -9.7070 H   0  0  0  0  0  0  0  0  0  0  0  0
  -18.9545   16.2425  -10.3334 H   0  0  0  0  0  0  0  0  0  0  0  0
  -17.7128   17.4878   -8.5706 H   0  0  0  0  0  0  0  0  0  0  0  0
  -16.6831   20.0334   -5.0732 H   0  0  0  0  0  0  0  0  0  0  0  0
  -14.5211   19.0196   -5.8131 H   0  0  0  0  0  0  0  0  0  0  0  0
  -15.6055   17.6240   -5.7170 H   0  0  0  0  0  0  0  0  0  0  0  0
  -14.2980   18.5650   -7.9900 H   0  0  0  0  0  0  0  0  0  0  0  0
  -15.5450   17.4400   -8.0340 H   0  0  0  0  0  0  0  0  0  0  0  0
  -15.6060   19.8743   -9.2368 H   0  0  0  0  0  0  0  0  0  0  0  0
  -17.0743   19.0221   -8.7749 H   0  0  0  0  0  0  0  0  0  0  0  0
  -17.1494   21.1958   -7.5724 H   0  0  0  0  0  0  0  0  0  0  0  0
  -15.1956   23.5536   -6.8602 H   0  0  0  0  0  0  0  0  0  0  0  0
  -16.7793   22.7305   -6.4965 H   0  0  0  0  0  0  0  0  0  0  0  0
  -15.3874   24.9898   -4.8705 H   0  0  0  0  0  0  0  0  0  0  0  0
  -14.8831   25.1744   -2.4385 H   0  0  0  0  0  0  0  0  0  0  0  0
  -14.6323   23.1176   -1.0542 H   0  0  0  0  0  0  0  0  0  0  0  0
  -14.8716   20.8709   -2.1067 H   0  0  0  0  0  0  0  0  0  0  0  0
  -15.3561   20.6786   -4.5409 H   0  0  0  0  0  0  0  0  0  0  0  0
  -13.2170   21.9897   -5.5025 H   0  0  0  0  0  0  0  0  0  0  0  0
  -11.3965   23.3176   -4.4349 H   0  0  0  0  0  0  0  0  0  0  0  0
   -9.8874   24.7164   -5.8440 H   0  0  0  0  0  0  0  0  0  0  0  0
  -10.2061   24.7969   -8.3135 H   0  0  0  0  0  0  0  0  0  0  0  0
  1  2  2  0
  2  3  2  0
  2  4  1  0
  4  5  2  0
  5  6  1  0
  6  7  2  0
  7  8  1  0
  8  9  2  0
  9 10  1  0
  2 11  1  0
 11 12  1  0
 12 13  1  0
 13 14  2  0
 14 15  1  0
 15 16  2  0
 16 17  1  0
 17 18  2  0
 11 19  1  0
 19 20  1  0
 20 21  1  0
 21 22  1  0
 22 23  1  0
 23 24  1  0
 24 25  1  0
 25 26  1  0
 26 27  2  0
 27 28  1  0
 28 29  2  0
 29 30  1  0
 30 31  2  0
 24 32  1  0
 32 33  2  0
 32 34  2  0
 32 35  1  0
 35 36  2  0
 36 37  1  0
 37 38  2  0
 38 39  1  0
 39 40  2  0
 40 41  1  0
  9  4  1  0
 18 13  1  0
 23 19  1  0
 31 26  1  0
 40 35  1  0
  5 42  1  0
  6 43  1  0
  7 44  1  0
  8 45  1  0
 12 46  1  0
 12 47  1  0
 14 48  1  0
 15 49  1  0
 16 50  1  0
 17 51  1  0
 18 52  1  0
 19 53  1  1
 20 54  1  0
 20 55  1  0
 21 56  1  0
 21 57  1  0
 22 58  1  0
 22 59  1  0
 23 60  1  6
 25 61  1  0
 25 62  1  0
 27 63  1  0
 28 64  1  0
 29 65  1  0
 30 66  1  0
 31 67  1  0
 36 68  1  0
 37 69  1  0
 38 70  1  0
 39 71  1  0
M  CHG  1  21   1
M  END
>  <meeko>  (5) 
{"is_sidechain": [false], "free_energy": -10.649, "intermolecular_energy": -15.434, "internal_energy": -1.356}

$$$$
2qnq_ligand
     RDKit          3D

 71 75  0  0  0  0  0  0  0  0999 V2000
  -17.1850   17.4280   -5.3920 O   0  0  0  0  0  0  0  0  0  0  0  0
  -18.2580   18.1150   -4.7120 S   0  0  0  0  0  0  0  0  0  0  0  0
  -18.2260   18.3320   -3.2830 O   0  0  0  0  0  0  0  0  0  0  0  0
  -19.7630   17.2590   -5.0900 C   0  0  0  0  0  0  0  0  0  0  0  0
  -19.7790   16.0920   -5.8650 C   0  0  0  0  0  0  0  0  0  0  0  0
  -20.9900   15.4620   -6.1650 C   0  0  0  0  0  0  0  0  0  0  0  0
  -22.1870   15.9860   -5.6910 C   0  0  0  0  0  0  0  0  0  0  0  0
  -22.1770   17.1390   -4.9080 C   0  0  0  0  0  0  0  0  0  0  0  0
  -20.9700   17.7790   -4.6020 C   0  0  0  0  0  0  0  0  0  0  0  0
  -21.0770   19.1840   -3.6030 Cl  0  0  0  0  0  0  0  0  0  0  0  0
  -18.3330   19.6920   -5.4020 N   0  0  0  0  0  0  0  0  0  0  0  0
  -19.2600   19.8040   -6.5710 C   0  0  0  0  0  0  0  0  0  0  0  0
  -18.8130   18.9640   -7.7470 C   0  0  0  0  0  0  0  0  0  0  0  0
  -17.4560   18.8790   -8.0950 C   0  0  0  0  0  0  0  0  0  0  0  0
  -17.0510   18.1210   -9.1950 C   0  0  0  0  0  0  0  0  0  0  0  0
  -17.9940   17.4240   -9.9470 C   0  0  0  0  0  0  0  0  0  0  0  0
  -19.3390   17.4650   -9.5880 C   0  0  0  0  0  0  0  0  0  0  0  0
  -19.7450   18.2230   -8.4890 C   0  0  0  0  0  0  0  0  0  0  0  0
  -17.1010   20.5780   -5.3290 C   0  0  1  0  0  0  0  0  0  0  0  0
  -17.1760   21.8280   -6.2360 C   0  0  0  0  0  0  0  0  0  0  0  0
  -17.9840   22.8390   -5.4730 N   0  0  0  0  0  0  0  0  0  0  0  0
  -18.0950   22.3310   -4.0670 C   0  0  0  0  0  0  0  0  0  0  0  0
  -16.9620   21.2930   -3.9460 C   0  0  2  0  0  0  0  0  0  0  0  0
  -15.5200   21.8500   -3.8070 N   0  0  0  0  0  0  0  0  0  0  0  0
  -14.5200   20.7640   -4.1390 C   0  0  0  0  0  0  0  0  0  0  0  0
  -13.9120   20.9280   -5.5120 C   0  0  0  0  0  0  0  0  0  0  0  0
  -13.3650   22.1570   -5.9050 C   0  0  0  0  0  0  0  0  0  0  0  0
  -12.8370   22.3240   -7.1860 C   0  0  0  0  0  0  0  0  0  0  0  0
  -12.8540   21.2640   -8.0900 C   0  0  0  0  0  0  0  0  0  0  0  0
  -13.4020   20.0410   -7.7180 C   0  0  0  0  0  0  0  0  0  0  0  0
  -13.9350   19.8750   -6.4390 C   0  0  0  0  0  0  0  0  0  0  0  0
  -15.1520   22.6550   -2.3310 S   0  0  0  0  0  0  0  0  0  0  0  0
  -16.3550   23.3690   -1.9430 O   0  0  0  0  0  0  0  0  0  0  0  0
  -14.6220   21.6270   -1.4630 O   0  0  0  0  0  0  0  0  0  0  0  0
  -13.8900   23.8320   -2.6970 C   0  0  0  0  0  0  0  0  0  0  0  0
  -12.7260   23.8170   -1.9110 C   0  0  0  0  0  0  0  0  0  0  0  0
  -11.7070   24.7370   -2.1500 C   0  0  0  0  0  0  0  0  0  0  0  0
  -11.8480   25.6800   -3.1640 C   0  0  0  0  0  0  0  0  0  0  0  0
  -13.0100   25.7070   -3.9370 C   0  0  0  0  0  0  0  0  0  0  0  0
  -14.0400   24.7860   -3.7060 C   0  0  0  0  0  0  0  0  0  0  0  0
  -15.4280   24.9060   -4.7240 Cl  0  0  0  0  0  0  0  0  0  0  0  0
  -18.8346   15.6698   -6.2389 H   0  0  0  0  0  0  0  0  0  0  0  0
  -20.9958   14.5487   -6.7781 H   0  0  0  0  0  0  0  0  0  0  0  0
  -23.1396   15.4921   -5.9332 H   0  0  0  0  0  0  0  0  0  0  0  0
  -23.1242   17.5491   -4.5277 H   0  0  0  0  0  0  0  0  0  0  0  0
  -20.2614   19.4715   -6.2603 H   0  0  0  0  0  0  0  0  0  0  0  0
  -19.2653   20.8555   -6.8940 H   0  0  0  0  0  0  0  0  0  0  0  0
  -16.7049   19.4144   -7.4956 H   0  0  0  0  0  0  0  0  0  0  0  0
  -15.9865   18.0740   -9.4682 H   0  0  0  0  0  0  0  0  0  0  0  0
  -17.6763   16.8413  -10.8242 H   0  0  0  0  0  0  0  0  0  0  0  0
  -20.0813   16.8999  -10.1708 H   0  0  0  0  0  0  0  0  0  0  0  0
  -20.8066   18.2397   -8.2015 H   0  0  0  0  0  0  0  0  0  0  0  0
  -16.3010   19.8691   -5.5887 H   0  0  0  0  0  0  0  0  0  0  0  0
  -16.1668   22.2168   -6.4368 H   0  0  0  0  0  0  0  0  0  0  0  0
  -17.6329   21.5954   -7.2092 H   0  0  0  0  0  0  0  0  0  0  0  0
  -17.4630   23.7400   -5.4380 H   0  0  0  0  0  0  0  0  0  0  0  0
  -18.9120   23.0140   -5.8820 H   0  0  0  0  0  0  0  0  0  0  0  0
  -17.9530   23.1486   -3.3450 H   0  0  0  0  0  0  0  0  0  0  0  0
  -19.0842   21.9000   -3.8529 H   0  0  0  0  0  0  0  0  0  0  0  0
  -17.0720   20.6914   -3.0317 H   0  0  0  0  0  0  0  0  0  0  0  0
  -13.7130   20.7891   -3.3920 H   0  0  0  0  0  0  0  0  0  0  0  0
  -15.0573   19.8042   -4.1272 H   0  0  0  0  0  0  0  0  0  0  0  0
  -13.3517   22.9985   -5.1967 H   0  0  0  0  0  0  0  0  0  0  0  0
  -12.4074   23.2925   -7.4819 H   0  0  0  0  0  0  0  0  0  0  0  0
  -12.4339   21.3944   -9.0982 H   0  0  0  0  0  0  0  0  0  0  0  0
  -13.4153   19.2044   -8.4321 H   0  0  0  0  0  0  0  0  0  0  0  0
  -14.3776   18.9089   -6.1547 H   0  0  0  0  0  0  0  0  0  0  0  0
  -12.6185   23.0768   -1.1044 H   0  0  0  0  0  0  0  0  0  0  0  0
  -10.7929   24.7180   -1.5384 H   0  0  0  0  0  0  0  0  0  0  0  0
  -11.0430   26.4046   -3.3564 H   0  0  0  0  0  0  0  0  0  0  0  0
  -13.1178   26.4575   -4.7339 H   0  0  0  0  0  0  0  0  0  0  0  0
  1  2  2  0
  2  3  2  0
  2  4  1  0
  4  5  2  0
  5  6  1  0
  6  7  2  0
  7  8  1  0
  8  9  2  0
  9 10  1  0
  2 11  1  0
 11 12  1  0
 12 13  1  0
 13 14  2  0
 14 15  1  0
 15 16  2  0
 16 17  1  0
 17 18  2  0
 11 19  1  0
 19 20  1  0
 20 21  1  0
 21 22  1  0
 22 23  1  0
 23 24  1  0
 24 25  1  0
 25 26  1  0
 26 27  2  0
 27 28  1  0
 28 29  2  0
 29 30  1  0
 30 31  2  0
 24 32  1  0
 32 33  2  0
 32 34  2  0
 32 35  1  0
 35 36  2  0
 36 37  1  0
 37 38  2  0
 38 39  1  0
 39 40  2  0
 40 41  1  0
  9  4  1  0
 18 13  1  0
 23 19  1  0
 31 26  1  0
 40 35  1  0
  5 42  1  0
  6 43  1  0
  7 44  1  0
  8 45  1  0
 12 46  1  0
 12 47  1  0
 14 48  1  0
 15 49  1  0
 16 50  1  0
 17 51  1  0
 18 52  1  0
 19 53  1  6
 20 54  1  0
 20 55  1  0
 21 56  1  0
 21 57  1  0
 22 58  1  0
 22 59  1  0
 23 60  1  1
 25 61  1  0
 25 62  1  0
 27 63  1  0
 28 64  1  0
 29 65  1  0
 30 66  1  0
 31 67  1  0
 36 68  1  0
 37 69  1  0
 38 70  1  0
 39 71  1  0
M  CHG  1  21   1
M  END
>  <meeko>  (6) 
{"is_sidechain": [false], "free_energy": -10.256, "intermolecular_energy": -15.325, "internal_energy": -0.842}

$$$$
2qnq_ligand
     RDKit          3D

 71 75  0  0  0  0  0  0  0  0999 V2000
  -13.5030   21.2500   -4.3410 O   0  0  0  0  0  0  0  0  0  0  0  0
  -14.1480   21.1930   -5.6320 S   0  0  0  0  0  0  0  0  0  0  0  0
  -14.4360   19.9300   -6.2740 O   0  0  0  0  0  0  0  0  0  0  0  0
  -13.1760   22.1560   -6.7580 C   0  0  0  0  0  0  0  0  0  0  0  0
  -11.9990   22.8020   -6.3570 C   0  0  0  0  0  0  0  0  0  0  0  0
  -11.2750   23.5760   -7.2680 C   0  0  0  0  0  0  0  0  0  0  0  0
  -11.7160   23.7070   -8.5800 C   0  0  0  0  0  0  0  0  0  0  0  0
  -12.8790   23.0570   -8.9880 C   0  0  0  0  0  0  0  0  0  0  0  0
  -13.6130   22.2790   -8.0840 C   0  0  0  0  0  0  0  0  0  0  0  0
  -15.0210   21.4980   -8.7080 Cl  0  0  0  0  0  0  0  0  0  0  0  0
  -15.6810   21.9540   -5.4360 N   0  0  0  0  0  0  0  0  0  0  0  0
  -15.6010   23.4010   -5.0590 C   0  0  0  0  0  0  0  0  0  0  0  0
  -14.9300   23.6130   -3.7210 C   0  0  0  0  0  0  0  0  0  0  0  0
  -13.8050   24.4440   -3.6050 C   0  0  0  0  0  0  0  0  0  0  0  0
  -13.1750   24.6190   -2.3720 C   0  0  0  0  0  0  0  0  0  0  0  0
  -13.6740   23.9840   -1.2370 C   0  0  0  0  0  0  0  0  0  0  0  0
  -14.8150   23.1900   -1.3290 C   0  0  0  0  0  0  0  0  0  0  0  0
  -15.4450   23.0140   -2.5620 C   0  0  0  0  0  0  0  0  0  0  0  0
  -16.8560   21.1160   -4.9640 C   0  0  1  0  0  0  0  0  0  0  0  0
  -18.1670   21.9180   -4.7890 C   0  0  0  0  0  0  0  0  0  0  0  0
  -18.7630   22.0320   -6.1630 N   0  0  0  0  0  0  0  0  0  0  0  0
  -18.0170   21.0710   -7.0400 C   0  0  0  0  0  0  0  0  0  0  0  0
  -17.3400   20.1020   -6.0510 C   0  0  2  0  0  0  0  0  0  0  0  0
  -18.2530   19.0400   -5.3800 N   0  0  0  0  0  0  0  0  0  0  0  0
  -18.1920   19.1900   -3.8770 C   0  0  0  0  0  0  0  0  0  0  0  0
  -19.4960   18.8450   -3.2000 C   0  0  0  0  0  0  0  0  0  0  0  0
  -19.5030   18.1420   -1.9870 C   0  0  0  0  0  0  0  0  0  0  0  0
  -20.7070   17.7860   -1.3780 C   0  0  0  0  0  0  0  0  0  0  0  0
  -21.9190   18.1260   -1.9750 C   0  0  0  0  0  0  0  0  0  0  0  0
  -21.9280   18.8160   -3.1840 C   0  0  0  0  0  0  0  0  0  0  0  0
  -20.7250   19.1670   -3.7970 C   0  0  0  0  0  0  0  0  0  0  0  0
  -18.0290   17.4110   -5.8890 S   0  0  0  0  0  0  0  0  0  0  0  0
  -16.6610   17.0610   -5.5500 O   0  0  0  0  0  0  0  0  0  0  0  0
  -19.1210   16.6760   -5.2930 O   0  0  0  0  0  0  0  0  0  0  0  0
  -18.1940   17.4020   -7.6450 C   0  0  0  0  0  0  0  0  0  0  0  0
  -17.0740   17.0400   -8.4120 C   0  0  0  0  0  0  0  0  0  0  0  0
  -17.1500   17.0320   -9.8030 C   0  0  0  0  0  0  0  0  0  0  0  0
  -18.3360   17.3930  -10.4360 C   0  0  0  0  0  0  0  0  0  0  0  0
  -19.4460   17.7680   -9.6770 C   0  0  0  0  0  0  0  0  0  0  0  0
  -19.3810   17.7780   -8.2780 C   0  0  0  0  0  0  0  0  0  0  0  0
  -20.8140   18.2520   -7.4410 Cl  0  0  0  0  0  0  0  0  0  0  0  0
  -11.6435   22.6995   -5.3211 H   0  0  0  0  0  0  0  0  0  0  0  0
  -10.3535   24.0831   -6.9460 H   0  0  0  0  0  0  0  0  0  0  0  0
  -11.1484   24.3220   -9.2939 H   0  0  0  0  0  0  0  0  0  0  0  0
  -13.2232   23.1557  -10.0281 H   0  0  0  0  0  0  0  0  0  0  0  0
  -15.0272   23.9356   -5.8303 H   0  0  0  0  0  0  0  0  0  0  0  0
  -16.6292   23.7844   -4.9824 H   0  0  0  0  0  0  0  0  0  0  0  0
  -13.4162   24.9621   -4.4940 H   0  0  0  0  0  0  0  0  0  0  0  0
  -12.2835   25.2590   -2.2964 H   0  0  0  0  0  0  0  0  0  0  0  0
  -13.1674   24.1094   -0.2687 H   0  0  0  0  0  0  0  0  0  0  0  0
  -15.2194   22.7018   -0.4300 H   0  0  0  0  0  0  0  0  0  0  0  0
  -16.3549   22.3991   -2.6254 H   0  0  0  0  0  0  0  0  0  0  0  0
  -16.4580   20.6781   -4.0368 H   0  0  0  0  0  0  0  0  0  0  0  0
  -18.8550   21.3854   -4.1159 H   0  0  0  0  0  0  0  0  0  0  0  0
  -17.9806   22.9070   -4.3450 H   0  0  0  0  0  0  0  0  0  0  0  0
  -19.7560   21.7200   -6.1340 H   0  0  0  0  0  0  0  0  0  0  0  0
  -18.7320   22.9870   -6.5440 H   0  0  0  0  0  0  0  0  0  0  0  0
  -18.7086   20.5309   -7.7033 H   0  0  0  0  0  0  0  0  0  0  0  0
  -17.2932   21.5756   -7.6969 H   0  0  0  0  0  0  0  0  0  0  0  0
  -16.5884   19.4804   -6.5597 H   0  0  0  0  0  0  0  0  0  0  0  0
  -17.4078   18.5233   -3.4891 H   0  0  0  0  0  0  0  0  0  0  0  0
  -17.9755   20.2462   -3.6587 H   0  0  0  0  0  0  0  0  0  0  0  0
  -18.5500   17.8684   -1.5107 H   0  0  0  0  0  0  0  0  0  0  0  0
  -20.6991   17.2362   -0.4253 H   0  0  0  0  0  0  0  0  0  0  0  0
  -22.8677   17.8496   -1.4916 H   0  0  0  0  0  0  0  0  0  0  0  0
  -22.8844   19.0847   -3.6563 H   0  0  0  0  0  0  0  0  0  0  0  0
  -20.7396   19.7017   -4.7582 H   0  0  0  0  0  0  0  0  0  0  0  0
  -16.1341   16.7620   -7.9126 H   0  0  0  0  0  0  0  0  0  0  0  0
  -16.2736   16.7407  -10.4006 H   0  0  0  0  0  0  0  0  0  0  0  0
  -18.3986   17.3828  -11.5342 H   0  0  0  0  0  0  0  0  0  0  0  0
  -20.3793   18.0580  -10.1818 H   0  0  0  0  0  0  0  0  0  0  0  0
  1  2  2  0
  2  3  2  0
  2  4  1  0
  4  5  2  0
  5  6  1  0
  6  7  2  0
  7  8  1  0
  8  9  2  0
  9 10  1  0
  2 11  1  0
 11 12  1  0
 12 13  1  0
 13 14  2  0
 14 15  1  0
 15 16  2  0
 16 17  1  0
 17 18  2  0
 11 19  1  0
 19 20  1  0
 20 21  1  0
 21 22  1  0
 22 23  1  0
 23 24  1  0
 24 25  1  0
 25 26  1  0
 26 27  2  0
 27 28  1  0
 28 29  2  0
 29 30  1  0
 30 31  2  0
 24 32  1  0
 32 33  2  0
 32 34  2  0
 32 35  1  0
 35 36  2  0
 36 37  1  0
 37 38  2  0
 38 39  1  0
 39 40  2  0
 40 41  1  0
  9  4  1  0
 18 13  1  0
 23 19  1  0
 31 26  1  0
 40 35  1  0
  5 42  1  0
  6 43  1  0
  7 44  1  0
  8 45  1  0
 12 46  1  0
 12 47  1  0
 14 48  1  0
 15 49  1  0
 16 50  1  0
 17 51  1  0
 18 52  1  0
 19 53  1  1
 20 54  1  0
 20 55  1  0
 21 56  1  0
 21 57  1  0
 22 58  1  0
 22 59  1  0
 23 60  1  6
 25 61  1  0
 25 62  1  0
 27 63  1  0
 28 64  1  0
 29 65  1  0
 30 66  1  0
 31 67  1  0
 36 68  1  0
 37 69  1  0
 38 70  1  0
 39 71  1  0
M  CHG  1  21   1
M  END
>  <meeko>  (7) 
{"is_sidechain": [false], "free_energy": -10.153, "intermolecular_energy": -15.609, "internal_energy": -0.395}

$$$$
2qnq_ligand
     RDKit          3D

 71 75  0  0  0  0  0  0  0  0999 V2000
  -15.9420   20.5990   -3.6370 O   0  0  0  0  0  0  0  0  0  0  0  0
  -14.7580   21.0630   -4.3210 S   0  0  0  0  0  0  0  0  0  0  0  0
  -13.5560   20.2610   -4.3710 O   0  0  0  0  0  0  0  0  0  0  0  0
  -14.3230   22.6360   -3.6290 C   0  0  0  0  0  0  0  0  0  0  0  0
  -13.0260   23.1560   -3.7270 C   0  0  0  0  0  0  0  0  0  0  0  0
  -12.7160   24.3870   -3.1430 C   0  0  0  0  0  0  0  0  0  0  0  0
  -13.6940   25.1070   -2.4650 C   0  0  0  0  0  0  0  0  0  0  0  0
  -14.9900   24.6000   -2.3760 C   0  0  0  0  0  0  0  0  0  0  0  0
  -15.3120   23.3670   -2.9560 C   0  0  0  0  0  0  0  0  0  0  0  0
  -16.9540   22.8530   -2.8060 Cl  0  0  0  0  0  0  0  0  0  0  0  0
  -15.2120   21.2910   -5.9670 N   0  0  0  0  0  0  0  0  0  0  0  0
  -14.8270   22.6230   -6.5280 C   0  0  0  0  0  0  0  0  0  0  0  0
  -13.6690   22.5300   -7.4970 C   0  0  0  0  0  0  0  0  0  0  0  0
  -12.4990   21.8340   -7.1540 C   0  0  0  0  0  0  0  0  0  0  0  0
  -11.4250   21.7700   -8.0430 C   0  0  0  0  0  0  0  0  0  0  0  0
  -11.5140   22.3820   -9.2910 C   0  0  0  0  0  0  0  0  0  0  0  0
  -12.6840   23.0410   -9.6600 C   0  0  0  0  0  0  0  0  0  0  0  0
  -13.7590   23.1050   -8.7730 C   0  0  0  0  0  0  0  0  0  0  0  0
  -16.4540   20.5860   -6.4850 C   0  0  1  0  0  0  0  0  0  0  0  0
  -16.9560   21.1210   -7.8460 C   0  0  0  0  0  0  0  0  0  0  0  0
  -16.1060   20.4520   -8.8870 N   0  0  0  0  0  0  0  0  0  0  0  0
  -15.3720   19.3400   -8.1980 C   0  0  0  0  0  0  0  0  0  0  0  0
  -16.1700   19.1060   -6.9000 C   0  0  2  0  0  0  0  0  0  0  0  0
  -17.5200   18.3510   -7.0390 N   0  0  0  0  0  0  0  0  0  0  0  0
  -17.7770   17.5330   -5.7930 C   0  0  0  0  0  0  0  0  0  0  0  0
  -19.0480   17.9330   -5.0820 C   0  0  0  0  0  0  0  0  0  0  0  0
  -20.0010   16.9670   -4.7330 C   0  0  0  0  0  0  0  0  0  0  0  0
  -21.1940   17.3370   -4.1110 C   0  0  0  0  0  0  0  0  0  0  0  0
  -21.4500   18.6780   -3.8340 C   0  0  0  0  0  0  0  0  0  0  0  0
  -20.5160   19.6490   -4.1830 C   0  0  0  0  0  0  0  0  0  0  0  0
  -19.3260   19.2810   -4.8100 C   0  0  0  0  0  0  0  0  0  0  0  0
  -17.7380   17.4390   -8.4830 S   0  0  0  0  0  0  0  0  0  0  0  0
  -17.8210   18.4020   -9.5670 O   0  0  0  0  0  0  0  0  0  0  0  0
  -16.6720   16.4630   -8.4770 O   0  0  0  0  0  0  0  0  0  0  0  0
  -19.2940   16.6220   -8.3340 C   0  0  0  0  0  0  0  0  0  0  0  0
  -19.3000   15.2180   -8.2950 C   0  0  0  0  0  0  0  0  0  0  0  0
  -20.5050   14.5250   -8.1940 C   0  0  0  0  0  0  0  0  0  0  0  0
  -21.7070   15.2260   -8.1420 C   0  0  0  0  0  0  0  0  0  0  0  0
  -21.7040   16.6210   -8.1950 C   0  0  0  0  0  0  0  0  0  0  0  0
  -20.4990   17.3270   -8.2960 C   0  0  0  0  0  0  0  0  0  0  0  0
  -20.6130   19.0480   -8.3480 Cl  0  0  0  0  0  0  0  0  0  0  0  0
  -12.2490   22.5935   -4.2654 H   0  0  0  0  0  0  0  0  0  0  0  0
  -11.6946   24.7882   -3.2198 H   0  0  0  0  0  0  0  0  0  0  0  0
  -13.4460   26.0729   -2.0007 H   0  0  0  0  0  0  0  0  0  0  0  0
  -15.7652   25.1731   -1.8461 H   0  0  0  0  0  0  0  0  0  0  0  0
  -15.6943   23.0483   -7.0543 H   0  0  0  0  0  0  0  0  0  0  0  0
  -14.5109   23.2605   -5.6892 H   0  0  0  0  0  0  0  0  0  0  0  0
  -12.4282   21.3349   -6.1763 H   0  0  0  0  0  0  0  0  0  0  0  0
  -10.5069   21.2355   -7.7576 H   0  0  0  0  0  0  0  0  0  0  0  0
  -10.6609   22.3448   -9.9845 H   0  0  0  0  0  0  0  0  0  0  0  0
  -12.7606   23.5114  -10.6514 H   0  0  0  0  0  0  0  0  0  0  0  0
  -14.6867   23.6116   -9.0776 H   0  0  0  0  0  0  0  0  0  0  0  0
  -17.1547   20.7280   -5.6490 H   0  0  0  0  0  0  0  0  0  0  0  0
  -18.0151   20.8624   -7.9922 H   0  0  0  0  0  0  0  0  0  0  0  0
  -16.8792   22.2168   -7.9036 H   0  0  0  0  0  0  0  0  0  0  0  0
  -16.7210   20.0180   -9.6060 H   0  0  0  0  0  0  0  0  0  0  0  0
  -15.4550   21.0940   -9.3590 H   0  0  0  0  0  0  0  0  0  0  0  0
  -15.3650   18.4330   -8.8203 H   0  0  0  0  0  0  0  0  0  0  0  0
  -14.3177   19.5876   -8.0051 H   0  0  0  0  0  0  0  0  0  0  0  0
  -15.6115   18.4645   -6.2025 H   0  0  0  0  0  0  0  0  0  0  0  0
  -17.8522   16.4731   -6.0777 H   0  0  0  0  0  0  0  0  0  0  0  0
  -16.9405   17.7114   -5.1014 H   0  0  0  0  0  0  0  0  0  0  0  0
  -19.8068   15.9065   -4.9515 H   0  0  0  0  0  0  0  0  0  0  0  0
  -21.9331   16.5690   -3.8391 H   0  0  0  0  0  0  0  0  0  0  0  0
  -22.3889   18.9690   -3.3402 H   0  0  0  0  0  0  0  0  0  0  0  0
  -20.7167   20.7081   -3.9640 H   0  0  0  0  0  0  0  0  0  0  0  0
  -18.5981   20.0552   -5.0941 H   0  0  0  0  0  0  0  0  0  0  0  0
  -18.3510   14.6639   -8.3443 H   0  0  0  0  0  0  0  0  0  0  0  0
  -20.5065   13.4257   -8.1554 H   0  0  0  0  0  0  0  0  0  0  0  0
  -22.6587   14.6807   -8.0592 H   0  0  0  0  0  0  0  0  0  0  0  0
  -22.6563   17.1702   -8.1571 H   0  0  0  0  0  0  0  0  0  0  0  0
  1  2  2  0
  2  3  2  0
  2  4  1  0
  4  5  2  0
  5  6  1  0
  6  7  2  0
  7  8  1  0
  8  9  2  0
  9 10  1  0
  2 11  1  0
 11 12  1  0
 12 13  1  0
 13 14  2  0
 14 15  1  0
 15 16  2  0
 16 17  1  0
 17 18  2  0
 11 19  1  0
 19 20  1  0
 20 21  1  0
 21 22  1  0
 22 23  1  0
 23 24  1  0
 24 25  1  0
 25 26  1  0
 26 27  2  0
 27 28  1  0
 28 29  2  0
 29 30  1  0
 30 31  2  0
 24 32  1  0
 32 33  2  0
 32 34  2  0
 32 35  1  0
 35 36  2  0
 36 37  1  0
 37 38  2  0
 38 39  1  0
 39 40  2  0
 40 41  1  0
  9  4  1  0
 18 13  1  0
 23 19  1  0
 31 26  1  0
 40 35  1  0
  5 42  1  0
  6 43  1  0
  7 44  1  0
  8 45  1  0
 12 46  1  0
 12 47  1  0
 14 48  1  0
 15 49  1  0
 16 50  1  0
 17 51  1  0
 18 52  1  0
 19 53  1  1
 20 54  1  0
 20 55  1  0
 21 56  1  0
 21 57  1  0
 22 58  1  0
 22 59  1  0
 23 60  1  1
 25 61  1  0
 25 62  1  0
 27 63  1  0
 28 64  1  0
 29 65  1  0
 30 66  1  0
 31 67  1  0
 36 68  1  0
 37 69  1  0
 38 70  1  0
 39 71  1  0
M  CHG  1  21   1
M  END
>  <meeko>  (8) 
{"is_sidechain": [false], "free_energy": -10.151, "intermolecular_energy": -14.151, "internal_energy": -1.85}

$$$$
2qnq_ligand
     RDKit          3D

 71 75  0  0  0  0  0  0  0  0999 V2000
  -16.0340   18.3270   -6.5360 O   0  0  0  0  0  0  0  0  0  0  0  0
  -17.3030   18.0350   -5.9100 S   0  0  0  0  0  0  0  0  0  0  0  0
  -17.3920   17.1540   -4.7670 O   0  0  0  0  0  0  0  0  0  0  0  0
  -18.3810   17.3950   -7.1630 C   0  0  0  0  0  0  0  0  0  0  0  0
  -19.2860   16.3580   -6.9040 C   0  0  0  0  0  0  0  0  0  0  0  0
  -20.1000   15.8610   -7.9270 C   0  0  0  0  0  0  0  0  0  0  0  0
  -20.0190   16.3980   -9.2070 C   0  0  0  0  0  0  0  0  0  0  0  0
  -19.1300   17.4390   -9.4680 C   0  0  0  0  0  0  0  0  0  0  0  0
  -18.3090   17.9430   -8.4510 C   0  0  0  0  0  0  0  0  0  0  0  0
  -17.2660   19.2510   -8.8830 Cl  0  0  0  0  0  0  0  0  0  0  0  0
  -17.9280   19.5430   -5.3620 N   0  0  0  0  0  0  0  0  0  0  0  0
  -19.4180   19.6540   -5.4450 C   0  0  0  0  0  0  0  0  0  0  0  0
  -20.1120   19.0240   -4.2580 C   0  0  0  0  0  0  0  0  0  0  0  0
  -19.5620   19.1180   -2.9710 C   0  0  0  0  0  0  0  0  0  0  0  0
  -20.1940   18.5150   -1.8820 C   0  0  0  0  0  0  0  0  0  0  0  0
  -21.3940   17.8310   -2.0640 C   0  0  0  0  0  0  0  0  0  0  0  0
  -21.9730   17.7650   -3.3290 C   0  0  0  0  0  0  0  0  0  0  0  0
  -21.3410   18.3670   -4.4180 C   0  0  0  0  0  0  0  0  0  0  0  0
  -17.0700   20.7870   -5.5170 C   0  0  1  0  0  0  0  0  0  0  0  0
  -17.8640   22.1110   -5.4180 C   0  0  0  0  0  0  0  0  0  0  0  0
  -18.0340   22.3760   -3.9500 N   0  0  0  0  0  0  0  0  0  0  0  0
  -17.1110   21.4390   -3.2300 C   0  0  0  0  0  0  0  0  0  0  0  0
  -16.1010   20.9980   -4.3080 C   0  0  2  0  0  0  0  0  0  0  0  0
  -15.0120   22.0300   -4.7070 N   0  0  0  0  0  0  0  0  0  0  0  0
  -13.8310   21.3130   -5.3210 C   0  0  0  0  0  0  0  0  0  0  0  0
  -13.9590   21.1460   -6.8160 C   0  0  0  0  0  0  0  0  0  0  0  0
  -13.3760   20.0480   -7.4620 C   0  0  0  0  0  0  0  0  0  0  0  0
  -13.4590   19.9100   -8.8480 C   0  0  0  0  0  0  0  0  0  0  0  0
  -14.1240   20.8710   -9.6060 C   0  0  0  0  0  0  0  0  0  0  0  0
  -14.7010   21.9720   -8.9800 C   0  0  0  0  0  0  0  0  0  0  0  0
  -14.6130   22.1140   -7.5950 C   0  0  0  0  0  0  0  0  0  0  0  0
  -14.5420   23.1520   -3.4890 S   0  0  0  0  0  0  0  0  0  0  0  0
  -15.5290   24.2160   -3.5080 O   0  0  0  0  0  0  0  0  0  0  0  0
  -14.3730   22.3580   -2.2920 O   0  0  0  0  0  0  0  0  0  0  0  0
  -12.9860   23.8170   -3.9870 C   0  0  0  0  0  0  0  0  0  0  0  0
  -12.4410   23.3800   -5.2050 C   0  0  0  0  0  0  0  0  0  0  0  0
  -11.2070   23.8640   -5.6350 C   0  0  0  0  0  0  0  0  0  0  0  0
  -10.5080   24.7750   -4.8500 C   0  0  0  0  0  0  0  0  0  0  0  0
  -11.0400   25.2000   -3.6310 C   0  0  0  0  0  0  0  0  0  0  0  0
  -12.2800   24.7210   -3.1900 C   0  0  0  0  0  0  0  0  0  0  0  0
  -12.8440   25.3170   -1.6730 Cl  0  0  0  0  0  0  0  0  0  0  0  0
  -19.3569   15.9327   -5.8920 H   0  0  0  0  0  0  0  0  0  0  0  0
  -20.8058   15.0435   -7.7185 H   0  0  0  0  0  0  0  0  0  0  0  0
  -20.6554   16.0019  -10.0121 H   0  0  0  0  0  0  0  0  0  0  0  0
  -19.0726   17.8678  -10.4794 H   0  0  0  0  0  0  0  0  0  0  0  0
  -19.6907   20.7188   -5.4889 H   0  0  0  0  0  0  0  0  0  0  0  0
  -19.7438   19.1159   -6.3474 H   0  0  0  0  0  0  0  0  0  0  0  0
  -18.6240   19.6720   -2.8184 H   0  0  0  0  0  0  0  0  0  0  0  0
  -19.7445   18.5799   -0.8801 H   0  0  0  0  0  0  0  0  0  0  0  0
  -21.8842   17.3431   -1.2086 H   0  0  0  0  0  0  0  0  0  0  0  0
  -22.9284   17.2384   -3.4698 H   0  0  0  0  0  0  0  0  0  0  0  0
  -21.8112   18.3259   -5.4116 H   0  0  0  0  0  0  0  0  0  0  0  0
  -16.5939   20.6085   -6.4924 H   0  0  0  0  0  0  0  0  0  0  0  0
  -17.3041   22.9301   -5.8930 H   0  0  0  0  0  0  0  0  0  0  0  0
  -18.8339   22.0414   -5.9323 H   0  0  0  0  0  0  0  0  0  0  0  0
  -17.7200   23.3460   -3.7370 H   0  0  0  0  0  0  0  0  0  0  0  0
  -19.0050   22.2680   -3.6240 H   0  0  0  0  0  0  0  0  0  0  0  0
  -16.5993   21.9541   -2.4037 H   0  0  0  0  0  0  0  0  0  0  0  0
  -17.6429   20.5885   -2.7787 H   0  0  0  0  0  0  0  0  0  0  0  0
  -15.5007   20.1438   -3.9615 H   0  0  0  0  0  0  0  0  0  0  0  0
  -12.9199   21.8917   -5.1090 H   0  0  0  0  0  0  0  0  0  0  0  0
  -13.7885   20.3069   -4.8784 H   0  0  0  0  0  0  0  0  0  0  0  0
  -12.8471   19.2864   -6.8701 H   0  0  0  0  0  0  0  0  0  0  0  0
  -12.9990   19.0417   -9.3424 H   0  0  0  0  0  0  0  0  0  0  0  0
  -14.1930   20.7598  -10.6982 H   0  0  0  0  0  0  0  0  0  0  0  0
  -15.2269   22.7309   -9.5779 H   0  0  0  0  0  0  0  0  0  0  0  0
  -15.0605   22.9931   -7.1083 H   0  0  0  0  0  0  0  0  0  0  0  0
  -12.9899   22.6532   -5.8218 H   0  0  0  0  0  0  0  0  0  0  0  0
  -10.7864   23.5262   -6.5936 H   0  0  0  0  0  0  0  0  0  0  0  0
   -9.5355   25.1609   -5.1897 H   0  0  0  0  0  0  0  0  0  0  0  0
  -10.4806   25.9169   -3.0120 H   0  0  0  0  0  0  0  0  0  0  0  0
  1  2  2  0
  2  3  2  0
  2  4  1  0
  4  5  2  0
  5  6  1  0
  6  7  2  0
  7  8  1  0
  8  9  2  0
  9 10  1  0
  2 11  1  0
 11 12  1  0
 12 13  1  0
 13 14  2  0
 14 15  1  0
 15 16  2  0
 16 17  1  0
 17 18  2  0
 11 19  1  0
 19 20  1  0
 20 21  1  0
 21 22  1  0
 22 23  1  0
 23 24  1  0
 24 25  1  0
 25 26  1  0
 26 27  2  0
 27 28  1  0
 28 29  2  0
 29 30  1  0
 30 31  2  0
 24 32  1  0
 32 33  2  0
 32 34  2  0
 32 35  1  0
 35 36  2  0
 36 37  1  0
 37 38  2  0
 38 39  1  0
 39 40  2  0
 40 41  1  0
  9  4  1  0
 18 13  1  0
 23 19  1  0
 31 26  1  0
 40 35  1  0
  5 42  1  0
  6 43  1  0
  7 44  1  0
  8 45  1  0
 12 46  1  0
 12 47  1  0
 14 48  1  0
 15 49  1  0
 16 50  1  0
 17 51  1  0
 18 52  1  0
 19 53  1  6
 20 54  1  0
 20 55  1  0
 21 56  1  0
 21 57  1  0
 22 58  1  0
 22 59  1  0
 23 60  1  1
 25 61  1  0
 25 62  1  0
 27 63  1  0
 28 64  1  0
 29 65  1  0
 30 66  1  0
 31 67  1  0
 36 68  1  0
 37 69  1  0
 38 70  1  0
 39 71  1  0
M  CHG  1  21   1
M  END
>  <meeko>  (9) 
{"is_sidechain": [false], "free_energy": -9.965, "intermolecular_energy": -15.122, "internal_energy": -0.584}

$$$$
