4agn_ligand
     RDKit          3D

 52 53  0  0  0  0  0  0  0  0999 V2000
  104.1270   81.3990  -37.9670 C   0  0  0  0  0  0  0  0  0  0  0  0
  104.9920   81.2870  -39.2120 C   0  0  0  0  0  0  0  0  0  0  0  0
  105.8840   82.5090  -39.3440 N   0  0  0  0  0  0  0  0  0  0  0  0
  106.7530   82.7300  -38.1110 C   0  0  0  0  0  0  0  0  0  0  0  0
  108.1240   83.2430  -38.5190 C   0  0  0  0  0  0  0  0  0  0  0  0
  106.6980   82.5690  -40.6460 C   0  0  0  0  0  0  0  0  0  0  0  0
  106.8950   81.1990  -41.2930 C   0  0  0  0  0  0  0  0  0  0  0  0
  107.8080   81.3320  -42.5220 C   0  0  0  0  0  0  0  0  0  0  0  0
  107.8420   82.7080  -43.0390 N   0  0  0  0  0  0  0  0  0  0  0  0
  108.4890   82.7450  -44.3690 C   0  0  0  0  0  0  0  0  0  0  0  0
  109.3480   83.9780  -44.5590 C   0  0  0  0  0  0  0  0  0  0  0  0
  110.0850   84.4840  -43.4720 C   0  0  0  0  0  0  0  0  0  0  0  0
  110.8860   85.6200  -43.6100 C   0  0  0  0  0  0  0  0  0  0  0  0
  111.5970   86.1250  -42.4770 C   0  0  0  0  0  0  0  0  0  0  0  0
  112.1780   86.5390  -41.5110 C   0  0  0  0  0  0  0  0  0  0  0  0
  112.8740   87.0480  -40.3320 C   0  0  0  0  0  0  0  0  0  0  0  0
  112.0260   87.9560  -39.6420 O   0  0  0  0  0  0  0  0  0  0  0  0
  110.9790   86.2620  -44.8450 C   0  0  0  0  0  0  0  0  0  0  0  0
  110.2670   85.7620  -45.9370 C   0  0  0  0  0  0  0  0  0  0  0  0
  110.4350   86.7500  -47.7720 I   0  0  0  0  0  0  0  0  0  0  0  0
  109.4570   84.6270  -45.7960 C   0  0  0  0  0  0  0  0  0  0  0  0
  108.7460   84.1240  -46.8520 O   0  0  0  0  0  0  0  0  0  0  0  0
  106.5060   83.3060  -43.0640 C   0  0  0  0  0  0  0  0  0  0  0  0
  106.0510   83.5630  -41.6220 C   0  0  0  0  0  0  0  0  0  0  0  0
  104.7607   81.3169  -37.0716 H   0  0  0  0  0  0  0  0  0  0  0  0
  103.6125   82.3713  -37.9642 H   0  0  0  0  0  0  0  0  0  0  0  0
  103.3818   80.5898  -37.9642 H   0  0  0  0  0  0  0  0  0  0  0  0
  105.6188   80.3860  -39.1388 H   0  0  0  0  0  0  0  0  0  0  0  0
  104.3408   81.2214  -40.0961 H   0  0  0  0  0  0  0  0  0  0  0  0
  105.2500   83.3180  -39.3910 H   0  0  0  0  0  0  0  0  0  0  0  0
  106.2699   83.4680  -37.4538 H   0  0  0  0  0  0  0  0  0  0  0  0
  106.8714   81.7740  -37.5799 H   0  0  0  0  0  0  0  0  0  0  0  0
  108.7156   83.4644  -37.6184 H   0  0  0  0  0  0  0  0  0  0  0  0
  108.6392   82.4768  -39.1170 H   0  0  0  0  0  0  0  0  0  0  0  0
  108.0097   84.1592  -39.1170 H   0  0  0  0  0  0  0  0  0  0  0  0
  107.7066   82.9231  -40.3864 H   0  0  0  0  0  0  0  0  0  0  0  0
  107.3575   80.5148  -40.5664 H   0  0  0  0  0  0  0  0  0  0  0  0
  105.9187   80.8008  -41.6064 H   0  0  0  0  0  0  0  0  0  0  0  0
  108.8285   81.0337  -42.2398 H   0  0  0  0  0  0  0  0  0  0  0  0
  107.4071   80.6823  -43.3139 H   0  0  0  0  0  0  0  0  0  0  0  0
  109.1228   81.8526  -44.4785 H   0  0  0  0  0  0  0  0  0  0  0  0
  107.6936   82.7701  -45.1284 H   0  0  0  0  0  0  0  0  0  0  0  0
  110.0293   83.9765  -42.4977 H   0  0  0  0  0  0  0  0  0  0  0  0
  113.1332   86.2102  -39.6680 H   0  0  0  0  0  0  0  0  0  0  0  0
  113.7939   87.5655  -40.6417 H   0  0  0  0  0  0  0  0  0  0  0  0
  112.0180   88.7720  -40.1690 H   0  0  0  0  0  0  0  0  0  0  0  0
  111.6093   87.1565  -44.9578 H   0  0  0  0  0  0  0  0  0  0  0  0
  108.9000   84.7110  -47.6160 H   0  0  0  0  0  0  0  0  0  0  0  0
  106.5370   84.2566  -43.6166 H   0  0  0  0  0  0  0  0  0  0  0  0
  105.8011   82.6239  -43.5618 H   0  0  0  0  0  0  0  0  0  0  0  0
  106.3361   84.5854  -41.3333 H   0  0  0  0  0  0  0  0  0  0  0  0
  104.9595   83.4348  -41.5747 H   0  0  0  0  0  0  0  0  0  0  0  0
  1  2  1  0
  2  3  1  0
  3  4  1  0
  4  5  1  0
  3  6  1  0
  6  7  1  0
  7  8  1  0
  8  9  1  0
  9 10  1  0
 10 11  1  0
 11 12  2  0
 12 13  1  0
 13 14  1  0
 14 15  3  0
 15 16  1  0
 16 17  1  0
 13 18  2  0
 18 19  1  0
 19 20  1  0
 19 21  2  0
 21 22  1  0
  9 23  1  0
 23 24  1  0
 24  6  1  0
 21 11  1  0
  1 25  1  0
  1 26  1  0
  1 27  1  0
  2 28  1  0
  2 29  1  0
  3 30  1  0
  4 31  1  0
  4 32  1  0
  5 33  1  0
  5 34  1  0
  5 35  1  0
  6 36  1  0
  7 37  1  0
  7 38  1  0
  8 39  1  0
  8 40  1  0
 10 41  1  0
 10 42  1  0
 12 43  1  0
 16 44  1  0
 16 45  1  0
 17 46  1  0
 18 47  1  0
 22 48  1  0
 23 49  1  0
 23 50  1  0
 24 51  1  0
 24 52  1  0
M  CHG  1   3   1
M  END
>  <meeko>  (1) 
{"is_sidechain": [false], "free_energy": -5.551, "intermolecular_energy": -7.823, "internal_energy": -0.886}

$$$$
4agn_ligand
     RDKit          3D

 52 53  0  0  0  0  0  0  0  0999 V2000
  112.6030   73.8210  -43.0200 C   0  0  0  0  0  0  0  0  0  0  0  0
  111.4500   74.1270  -42.0760 C   0  0  0  0  0  0  0  0  0  0  0  0
  110.4780   75.0940  -42.7300 N   0  0  0  0  0  0  0  0  0  0  0  0
  109.2300   74.3940  -43.2580 C   0  0  0  0  0  0  0  0  0  0  0  0
  109.2920   74.2810  -44.7710 C   0  0  0  0  0  0  0  0  0  0  0  0
  110.1360   76.3280  -41.8820 C   0  0  0  0  0  0  0  0  0  0  0  0
  108.9260   76.1130  -40.9720 C   0  0  0  0  0  0  0  0  0  0  0  0
  108.5850   77.4240  -40.2450 C   0  0  0  0  0  0  0  0  0  0  0  0
  109.7280   78.3480  -40.2060 N   0  0  0  0  0  0  0  0  0  0  0  0
  109.4630   79.4610  -39.2670 C   0  0  0  0  0  0  0  0  0  0  0  0
  108.3600   80.3770  -39.7550 C   0  0  0  0  0  0  0  0  0  0  0  0
  107.2050   80.5530  -38.9690 C   0  0  0  0  0  0  0  0  0  0  0  0
  106.1680   81.3890  -39.3880 C   0  0  0  0  0  0  0  0  0  0  0  0
  104.9960   81.5190  -38.5810 C   0  0  0  0  0  0  0  0  0  0  0  0
  104.0150   81.6070  -37.8920 C   0  0  0  0  0  0  0  0  0  0  0  0
  102.8200   81.7250  -37.0610 C   0  0  0  0  0  0  0  0  0  0  0  0
  102.3610   83.0700  -37.0870 O   0  0  0  0  0  0  0  0  0  0  0  0
  106.2750   82.0810  -40.5950 C   0  0  0  0  0  0  0  0  0  0  0  0
  107.4210   81.9300  -41.3770 C   0  0  0  0  0  0  0  0  0  0  0  0
  107.5440   82.9870  -43.1770 I   0  0  0  0  0  0  0  0  0  0  0  0
  108.4580   81.0850  -40.9600 C   0  0  0  0  0  0  0  0  0  0  0  0
  109.5890   80.9180  -41.7150 O   0  0  0  0  0  0  0  0  0  0  0  0
  110.9750   77.6500  -39.8880 C   0  0  0  0  0  0  0  0  0  0  0  0
  111.3690   76.7710  -41.0810 C   0  0  0  0  0  0  0  0  0  0  0  0
  113.5029   73.5822  -42.4343 H   0  0  0  0  0  0  0  0  0  0  0  0
  112.3395   72.9617  -43.6542 H   0  0  0  0  0  0  0  0  0  0  0  0
  112.8003   74.6979  -43.6542 H   0  0  0  0  0  0  0  0  0  0  0  0
  110.9234   73.1928  -41.8310 H   0  0  0  0  0  0  0  0  0  0  0  0
  111.8492   74.5851  -41.1591 H   0  0  0  0  0  0  0  0  0  0  0  0
  110.9630   75.4670  -43.5570 H   0  0  0  0  0  0  0  0  0  0  0  0
  109.1661   73.3866  -42.8208 H   0  0  0  0  0  0  0  0  0  0  0  0
  108.3434   74.9820  -42.9782 H   0  0  0  0  0  0  0  0  0  0  0  0
  109.8040   73.3478  -45.0483 H   0  0  0  0  0  0  0  0  0  0  0  0
  108.2710   74.2747  -45.1804 H   0  0  0  0  0  0  0  0  0  0  0  0
  109.8459   75.1387  -45.1804 H   0  0  0  0  0  0  0  0  0  0  0  0
  109.8484   77.1325  -42.5748 H   0  0  0  0  0  0  0  0  0  0  0  0
  108.0644   75.7962  -41.5780 H   0  0  0  0  0  0  0  0  0  0  0  0
  109.1616   75.3357  -40.2302 H   0  0  0  0  0  0  0  0  0  0  0  0
  107.7508   77.9135  -40.7689 H   0  0  0  0  0  0  0  0  0  0  0  0
  108.3143   77.1759  -39.2081 H   0  0  0  0  0  0  0  0  0  0  0  0
  109.1684   79.0402  -38.2943 H   0  0  0  0  0  0  0  0  0  0  0  0
  110.3834   80.0578  -39.1855 H   0  0  0  0  0  0  0  0  0  0  0  0
  107.1182   80.0231  -38.0090 H   0  0  0  0  0  0  0  0  0  0  0  0
  102.0344   81.0610  -37.4507 H   0  0  0  0  0  0  0  0  0  0  0  0
  103.0603   81.4375  -36.0268 H   0  0  0  0  0  0  0  0  0  0  0  0
  101.5890   83.0800  -37.6760 H   0  0  0  0  0  0  0  0  0  0  0  0
  105.4609   82.7416  -40.9281 H   0  0  0  0  0  0  0  0  0  0  0  0
  109.3470   80.3770  -42.4900 H   0  0  0  0  0  0  0  0  0  0  0  0
  111.7699   78.3846  -39.6919 H   0  0  0  0  0  0  0  0  0  0  0  0
  110.8351   77.0247  -38.9939 H   0  0  0  0  0  0  0  0  0  0  0  0
  112.0382   77.3425  -41.7410 H   0  0  0  0  0  0  0  0  0  0  0  0
  111.8736   75.8722  -40.6970 H   0  0  0  0  0  0  0  0  0  0  0  0
  1  2  1  0
  2  3  1  0
  3  4  1  0
  4  5  1  0
  3  6  1  0
  6  7  1  0
  7  8  1  0
  8  9  1  0
  9 10  1  0
 10 11  1  0
 11 12  2  0
 12 13  1  0
 13 14  1  0
 14 15  3  0
 15 16  1  0
 16 17  1  0
 13 18  2  0
 18 19  1  0
 19 20  1  0
 19 21  2  0
 21 22  1  0
  9 23  1  0
 23 24  1  0
 24  6  1  0
 21 11  1  0
  1 25  1  0
  1 26  1  0
  1 27  1  0
  2 28  1  0
  2 29  1  0
  3 30  1  0
  4 31  1  0
  4 32  1  0
  5 33  1  0
  5 34  1  0
  5 35  1  0
  6 36  1  0
  7 37  1  0
  7 38  1  0
  8 39  1  0
  8 40  1  0
 10 41  1  0
 10 42  1  0
 12 43  1  0
 16 44  1  0
 16 45  1  0
 17 46  1  0
 18 47  1  0
 22 48  1  0
 23 49  1  0
 23 50  1  0
 24 51  1  0
 24 52  1  0
M  CHG  1   3   1
M  END
>  <meeko>  (2) 
{"is_sidechain": [false], "free_energy": -5.479, "intermolecular_energy": -7.606, "internal_energy": -1.002}

$$$$
4agn_ligand
     RDKit          3D

 52 53  0  0  0  0  0  0  0  0999 V2000
  102.5810   75.2330  -47.4220 C   0  0  0  0  0  0  0  0  0  0  0  0
  103.2750   76.5170  -47.8480 C   0  0  0  0  0  0  0  0  0  0  0  0
  102.8000   77.6810  -46.9950 N   0  0  0  0  0  0  0  0  0  0  0  0
  101.3010   77.6270  -46.7230 C   0  0  0  0  0  0  0  0  0  0  0  0
  100.5300   78.1400  -47.9260 C   0  0  0  0  0  0  0  0  0  0  0  0
  103.6150   77.9070  -45.7120 C   0  0  0  0  0  0  0  0  0  0  0  0
  102.9930   77.2460  -44.4830 C   0  0  0  0  0  0  0  0  0  0  0  0
  103.8060   77.6120  -43.2310 C   0  0  0  0  0  0  0  0  0  0  0  0
  105.1700   78.0450  -43.5640 N   0  0  0  0  0  0  0  0  0  0  0  0
  106.0050   78.1150  -42.3430 C   0  0  0  0  0  0  0  0  0  0  0  0
  106.1550   79.5300  -41.8270 C   0  0  0  0  0  0  0  0  0  0  0  0
  105.5000   79.9100  -40.6410 C   0  0  0  0  0  0  0  0  0  0  0  0
  105.6150   81.2070  -40.1370 C   0  0  0  0  0  0  0  0  0  0  0  0
  104.9110   81.5670  -38.9460 C   0  0  0  0  0  0  0  0  0  0  0  0
  104.3020   81.8530  -37.9500 C   0  0  0  0  0  0  0  0  0  0  0  0
  103.5530   82.2020  -36.7460 C   0  0  0  0  0  0  0  0  0  0  0  0
  102.3590   82.8780  -37.1170 O   0  0  0  0  0  0  0  0  0  0  0  0
  106.4050   82.1460  -40.8000 C   0  0  0  0  0  0  0  0  0  0  0  0
  107.0750   81.7790  -41.9690 C   0  0  0  0  0  0  0  0  0  0  0  0
  108.2510   83.2150  -42.9330 I   0  0  0  0  0  0  0  0  0  0  0  0
  106.9520   80.4800  -42.4800 C   0  0  0  0  0  0  0  0  0  0  0  0
  107.5960   80.1020  -43.6270 O   0  0  0  0  0  0  0  0  0  0  0  0
  105.7720   77.1900  -44.5890 C   0  0  0  0  0  0  0  0  0  0  0  0
  105.0650   77.4470  -45.9250 C   0  0  0  0  0  0  0  0  0  0  0  0
  102.5518   75.1790  -46.3237 H   0  0  0  0  0  0  0  0  0  0  0  0
  101.5544   75.2226  -47.8170 H   0  0  0  0  0  0  0  0  0  0  0  0
  103.1347   74.3685  -47.8170 H   0  0  0  0  0  0  0  0  0  0  0  0
  104.3620   76.3990  -47.7280 H   0  0  0  0  0  0  0  0  0  0  0  0
  103.0323   76.7226  -48.9010 H   0  0  0  0  0  0  0  0  0  0  0  0
  102.9550   78.5270  -47.5600 H   0  0  0  0  0  0  0  0  0  0  0  0
  101.0061   76.5870  -46.5192 H   0  0  0  0  0  0  0  0  0  0  0  0
  101.0714   78.2603  -45.8534 H   0  0  0  0  0  0  0  0  0  0  0  0
   99.6596   78.7191  -47.5839 H   0  0  0  0  0  0  0  0  0  0  0  0
  101.1834   78.7840  -48.5329 H   0  0  0  0  0  0  0  0  0  0  0  0
  100.1883   77.2885  -48.5329 H   0  0  0  0  0  0  0  0  0  0  0  0
  103.6070   78.9872  -45.5042 H   0  0  0  0  0  0  0  0  0  0  0  0
  101.9579   77.5983  -44.3628 H   0  0  0  0  0  0  0  0  0  0  0  0
  102.9984   76.1539  -44.6146 H   0  0  0  0  0  0  0  0  0  0  0  0
  103.2938   78.4292  -42.7020 H   0  0  0  0  0  0  0  0  0  0  0  0
  103.8805   76.7133  -42.6011 H   0  0  0  0  0  0  0  0  0  0  0  0
  105.5371   77.5010  -41.5594 H   0  0  0  0  0  0  0  0  0  0  0  0
  107.0079   77.7439  -42.6008 H   0  0  0  0  0  0  0  0  0  0  0  0
  104.8870   79.1728  -40.1018 H   0  0  0  0  0  0  0  0  0  0  0  0
  103.3000   81.2861  -36.1918 H   0  0  0  0  0  0  0  0  0  0  0  0
  104.1646   82.8563  -36.1074 H   0  0  0  0  0  0  0  0  0  0  0  0
  102.6080   83.5040  -37.8170 H   0  0  0  0  0  0  0  0  0  0  0  0
  106.4996   83.1682  -40.4049 H   0  0  0  0  0  0  0  0  0  0  0  0
  107.2740   80.6760  -44.3480 H   0  0  0  0  0  0  0  0  0  0  0  0
  106.8420   77.4262  -44.6856 H   0  0  0  0  0  0  0  0  0  0  0  0
  105.6621   76.1329  -44.3054 H   0  0  0  0  0  0  0  0  0  0  0  0
  105.6112   78.2278  -46.4746 H   0  0  0  0  0  0  0  0  0  0  0  0
  105.0498   76.5065  -46.4953 H   0  0  0  0  0  0  0  0  0  0  0  0
  1  2  1  0
  2  3  1  0
  3  4  1  0
  4  5  1  0
  3  6  1  0
  6  7  1  0
  7  8  1  0
  8  9  1  0
  9 10  1  0
 10 11  1  0
 11 12  2  0
 12 13  1  0
 13 14  1  0
 14 15  3  0
 15 16  1  0
 16 17  1  0
 13 18  2  0
 18 19  1  0
 19 20  1  0
 19 21  2  0
 21 22  1  0
  9 23  1  0
 23 24  1  0
 24  6  1  0
 21 11  1  0
  1 25  1  0
  1 26  1  0
  1 27  1  0
  2 28  1  0
  2 29  1  0
  3 30  1  0
  4 31  1  0
  4 32  1  0
  5 33  1  0
  5 34  1  0
  5 35  1  0
  6 36  1  0
  7 37  1  0
  7 38  1  0
  8 39  1  0
  8 40  1  0
 10 41  1  0
 10 42  1  0
 12 43  1  0
 16 44  1  0
 16 45  1  0
 17 46  1  0
 18 47  1  0
 22 48  1  0
 23 49  1  0
 23 50  1  0
 24 51  1  0
 24 52  1  0
M  CHG  1   3   1
M  END
>  <meeko>  (3) 
{"is_sidechain": [false], "free_energy": -5.441, "intermolecular_energy": -7.64, "internal_energy": -0.913}

$$$$
4agn_ligand
     RDKit          3D

 52 53  0  0  0  0  0  0  0  0999 V2000
  104.5750   82.1840  -37.0720 C   0  0  0  0  0  0  0  0  0  0  0  0
  106.0350   82.1280  -37.4910 C   0  0  0  0  0  0  0  0  0  0  0  0
  106.1590   82.3190  -38.9930 N   0  0  0  0  0  0  0  0  0  0  0  0
  107.2410   83.3290  -39.3620 C   0  0  0  0  0  0  0  0  0  0  0  0
  107.1680   83.6590  -40.8430 C   0  0  0  0  0  0  0  0  0  0  0  0
  106.2840   81.0150  -39.7960 C   0  0  0  0  0  0  0  0  0  0  0  0
  106.9300   79.8820  -39.0000 C   0  0  0  0  0  0  0  0  0  0  0  0
  107.1170   78.6540  -39.9060 C   0  0  0  0  0  0  0  0  0  0  0  0
  106.2280   78.6890  -41.0750 N   0  0  0  0  0  0  0  0  0  0  0  0
  106.2260   77.3790  -41.7640 C   0  0  0  0  0  0  0  0  0  0  0  0
  105.5790   77.4470  -43.1320 C   0  0  0  0  0  0  0  0  0  0  0  0
  104.2950   76.9010  -43.3190 C   0  0  0  0  0  0  0  0  0  0  0  0
  103.6690   76.9450  -44.5670 C   0  0  0  0  0  0  0  0  0  0  0  0
  102.3770   76.3530  -44.7300 C   0  0  0  0  0  0  0  0  0  0  0  0
  101.2970   75.8410  -44.8480 C   0  0  0  0  0  0  0  0  0  0  0  0
   99.9780   75.2290  -44.9880 C   0  0  0  0  0  0  0  0  0  0  0  0
   99.0130   76.0380  -44.3300 O   0  0  0  0  0  0  0  0  0  0  0  0
  104.3070   77.5520  -45.6470 C   0  0  0  0  0  0  0  0  0  0  0  0
  105.5750   78.1130  -45.4730 C   0  0  0  0  0  0  0  0  0  0  0  0
  106.4980   79.0160  -47.1170 I   0  0  0  0  0  0  0  0  0  0  0  0
  106.2060   78.0610  -44.2230 C   0  0  0  0  0  0  0  0  0  0  0  0
  107.4510   78.6000  -44.0320 O   0  0  0  0  0  0  0  0  0  0  0  0
  104.8760   79.1160  -40.7110 C   0  0  0  0  0  0  0  0  0  0  0  0
  104.9090   80.6050  -40.3440 C   0  0  0  0  0  0  0  0  0  0  0  0
  104.5085   82.1865  -35.9740 H   0  0  0  0  0  0  0  0  0  0  0  0
  104.1144   83.1005  -37.4694 H   0  0  0  0  0  0  0  0  0  0  0  0
  104.0455   81.3055  -37.4694 H   0  0  0  0  0  0  0  0  0  0  0  0
  106.5912   82.9254  -36.9765 H   0  0  0  0  0  0  0  0  0  0  0  0
  106.4483   81.1454  -37.2194 H   0  0  0  0  0  0  0  0  0  0  0  0
  105.2690   82.7350  -39.2990 H   0  0  0  0  0  0  0  0  0  0  0  0
  107.0939   84.2490  -38.7771 H   0  0  0  0  0  0  0  0  0  0  0  0
  108.2272   82.8958  -39.1391 H   0  0  0  0  0  0  0  0  0  0  0  0
  106.9320   84.7259  -40.9697 H   0  0  0  0  0  0  0  0  0  0  0  0
  108.1365   83.4390  -41.3158 H   0  0  0  0  0  0  0  0  0  0  0  0
  106.3826   83.0510  -41.3158 H   0  0  0  0  0  0  0  0  0  0  0  0
  106.9634   81.2110  -40.6386 H   0  0  0  0  0  0  0  0  0  0  0  0
  107.9097   80.2116  -38.6239 H   0  0  0  0  0  0  0  0  0  0  0  0
  106.2804   79.6149  -38.1534 H   0  0  0  0  0  0  0  0  0  0  0  0
  108.1600   78.6258  -40.2543 H   0  0  0  0  0  0  0  0  0  0  0  0
  106.8681   77.7583  -39.3180 H   0  0  0  0  0  0  0  0  0  0  0  0
  107.2659   77.0401  -41.8815 H   0  0  0  0  0  0  0  0  0  0  0  0
  105.6405   76.6783  -41.1506 H   0  0  0  0  0  0  0  0  0  0  0  0
  103.7767   76.4325  -42.4693 H   0  0  0  0  0  0  0  0  0  0  0  0
   99.7225   75.1465  -46.0547 H   0  0  0  0  0  0  0  0  0  0  0  0
   99.9873   74.2258  -44.5368 H   0  0  0  0  0  0  0  0  0  0  0  0
   99.0110   75.7540  -43.4000 H   0  0  0  0  0  0  0  0  0  0  0  0
  103.8155   77.5893  -46.6304 H   0  0  0  0  0  0  0  0  0  0  0  0
  107.5360   79.3640  -44.6320 H   0  0  0  0  0  0  0  0  0  0  0  0
  104.1974   78.9602  -41.5626 H   0  0  0  0  0  0  0  0  0  0  0  0
  104.5168   78.5280  -39.8536 H   0  0  0  0  0  0  0  0  0  0  0  0
  104.6895   81.2003  -41.2425 H   0  0  0  0  0  0  0  0  0  0  0  0
  104.1560   80.7866  -39.5629 H   0  0  0  0  0  0  0  0  0  0  0  0
  1  2  1  0
  2  3  1  0
  3  4  1  0
  4  5  1  0
  3  6  1  0
  6  7  1  0
  7  8  1  0
  8  9  1  0
  9 10  1  0
 10 11  1  0
 11 12  2  0
 12 13  1  0
 13 14  1  0
 14 15  3  0
 15 16  1  0
 16 17  1  0
 13 18  2  0
 18 19  1  0
 19 20  1  0
 19 21  2  0
 21 22  1  0
  9 23  1  0
 23 24  1  0
 24  6  1  0
 21 11  1  0
  1 25  1  0
  1 26  1  0
  1 27  1  0
  2 28  1  0
  2 29  1  0
  3 30  1  0
  4 31  1  0
  4 32  1  0
  5 33  1  0
  5 34  1  0
  5 35  1  0
  6 36  1  0
  7 37  1  0
  7 38  1  0
  8 39  1  0
  8 40  1  0
 10 41  1  0
 10 42  1  0
 12 43  1  0
 16 44  1  0
 16 45  1  0
 17 46  1  0
 18 47  1  0
 22 48  1  0
 23 49  1  0
 23 50  1  0
 24 51  1  0
 24 52  1  0
M  CHG  1   3   1
M  END
>  <meeko>  (4) 
{"is_sidechain": [false], "free_energy": -5.409, "intermolecular_energy": -7.583, "internal_energy": -0.926}

$$$$
4agn_ligand
     RDKit          3D

 52 53  0  0  0  0  0  0  0  0999 V2000
  109.3800   81.7200  -47.0520 C   0  0  0  0  0  0  0  0  0  0  0  0
  108.8090   82.9300  -46.3290 C   0  0  0  0  0  0  0  0  0  0  0  0
  109.8940   83.6180  -45.5190 N   0  0  0  0  0  0  0  0  0  0  0  0
  109.9790   85.1120  -45.8130 C   0  0  0  0  0  0  0  0  0  0  0  0
  109.3110   85.4250  -47.1400 C   0  0  0  0  0  0  0  0  0  0  0  0
  109.8500   83.3250  -44.0110 C   0  0  0  0  0  0  0  0  0  0  0  0
  110.9300   84.0670  -43.2250 C   0  0  0  0  0  0  0  0  0  0  0  0
  110.8870   83.6350  -41.7500 C   0  0  0  0  0  0  0  0  0  0  0  0
  109.5870   83.0540  -41.3830 N   0  0  0  0  0  0  0  0  0  0  0  0
  109.4800   82.9140  -39.9130 C   0  0  0  0  0  0  0  0  0  0  0  0
  108.6030   81.7480  -39.5070 C   0  0  0  0  0  0  0  0  0  0  0  0
  107.3090   81.9940  -39.0090 C   0  0  0  0  0  0  0  0  0  0  0  0
  106.4740   80.9440  -38.6240 C   0  0  0  0  0  0  0  0  0  0  0  0
  105.1780   81.2300  -38.0920 C   0  0  0  0  0  0  0  0  0  0  0  0
  104.0970   81.4930  -37.6390 C   0  0  0  0  0  0  0  0  0  0  0  0
  102.7840   81.8240  -37.0910 C   0  0  0  0  0  0  0  0  0  0  0  0
  102.6340   83.2360  -37.0530 O   0  0  0  0  0  0  0  0  0  0  0  0
  106.9090   79.6240  -38.7470 C   0  0  0  0  0  0  0  0  0  0  0  0
  108.1840   79.3640  -39.2550 C   0  0  0  0  0  0  0  0  0  0  0  0
  108.7990   77.3730  -39.4270 I   0  0  0  0  0  0  0  0  0  0  0  0
  109.0250   80.4190  -39.6340 C   0  0  0  0  0  0  0  0  0  0  0  0
  110.2800   80.1860  -40.1290 O   0  0  0  0  0  0  0  0  0  0  0  0
  108.4750   83.8250  -41.9410 C   0  0  0  0  0  0  0  0  0  0  0  0
  108.4480   83.6250  -43.4610 C   0  0  0  0  0  0  0  0  0  0  0  0
  109.7281   80.9824  -46.3139 H   0  0  0  0  0  0  0  0  0  0  0  0
  108.6002   81.2679  -47.6825 H   0  0  0  0  0  0  0  0  0  0  0  0
  110.2247   82.0345  -47.6825 H   0  0  0  0  0  0  0  0  0  0  0  0
  108.4039   83.6370  -47.0680 H   0  0  0  0  0  0  0  0  0  0  0  0
  108.0103   82.5979  -45.6495 H   0  0  0  0  0  0  0  0  0  0  0  0
  110.7850   83.2160  -45.8400 H   0  0  0  0  0  0  0  0  0  0  0  0
  109.4727   85.6693  -45.0111 H   0  0  0  0  0  0  0  0  0  0  0  0
  111.0373   85.4074  -45.8658 H   0  0  0  0  0  0  0  0  0  0  0  0
  108.3289   85.8852  -46.9566 H   0  0  0  0  0  0  0  0  0  0  0  0
  109.9412   86.1216  -47.7124 H   0  0  0  0  0  0  0  0  0  0  0  0
  109.1790   84.4950  -47.7124 H   0  0  0  0  0  0  0  0  0  0  0  0
  110.0679   82.2551  -43.8776 H   0  0  0  0  0  0  0  0  0  0  0  0
  111.9176   83.8293  -43.6469 H   0  0  0  0  0  0  0  0  0  0  0  0
  110.7503   85.1501  -43.2926 H   0  0  0  0  0  0  0  0  0  0  0  0
  111.6727   82.8849  -41.5768 H   0  0  0  0  0  0  0  0  0  0  0  0
  111.0464   84.5293  -41.1296 H   0  0  0  0  0  0  0  0  0  0  0  0
  110.4872   82.7598  -39.4985 H   0  0  0  0  0  0  0  0  0  0  0  0
  109.0195   83.8328  -39.5210 H   0  0  0  0  0  0  0  0  0  0  0  0
  106.9505   83.0303  -38.9220 H   0  0  0  0  0  0  0  0  0  0  0  0
  101.9997   81.3881  -37.7272 H   0  0  0  0  0  0  0  0  0  0  0  0
  102.6959   81.4164  -36.0731 H   0  0  0  0  0  0  0  0  0  0  0  0
  102.6130   83.5310  -37.9790 H   0  0  0  0  0  0  0  0  0  0  0  0
  106.2527   78.7941  -38.4461 H   0  0  0  0  0  0  0  0  0  0  0  0
  110.8320   79.8650  -39.3920 H   0  0  0  0  0  0  0  0  0  0  0  0
  107.5274   83.4753  -41.5053 H   0  0  0  0  0  0  0  0  0  0  0  0
  108.6055   84.8918  -41.7069 H   0  0  0  0  0  0  0  0  0  0  0  0
  107.7821   82.7826  -43.6995 H   0  0  0  0  0  0  0  0  0  0  0  0
  108.0846   84.5532  -43.9262 H   0  0  0  0  0  0  0  0  0  0  0  0
  1  2  1  0
  2  3  1  0
  3  4  1  0
  4  5  1  0
  3  6  1  0
  6  7  1  0
  7  8  1  0
  8  9  1  0
  9 10  1  0
 10 11  1  0
 11 12  2  0
 12 13  1  0
 13 14  1  0
 14 15  3  0
 15 16  1  0
 16 17  1  0
 13 18  2  0
 18 19  1  0
 19 20  1  0
 19 21  2  0
 21 22  1  0
  9 23  1  0
 23 24  1  0
 24  6  1  0
 21 11  1  0
  1 25  1  0
  1 26  1  0
  1 27  1  0
  2 28  1  0
  2 29  1  0
  3 30  1  0
  4 31  1  0
  4 32  1  0
  5 33  1  0
  5 34  1  0
  5 35  1  0
  6 36  1  0
  7 37  1  0
  7 38  1  0
  8 39  1  0
  8 40  1  0
 10 41  1  0
 10 42  1  0
 12 43  1  0
 16 44  1  0
 16 45  1  0
 17 46  1  0
 18 47  1  0
 22 48  1  0
 23 49  1  0
 23 50  1  0
 24 51  1  0
 24 52  1  0
M  CHG  1   3   1
M  END
>  <meeko>  (5) 
{"is_sidechain": [false], "free_energy": -5.372, "intermolecular_energy": -7.472, "internal_energy": -0.984}

$$$$
4agn_ligand
     RDKit          3D

 52 53  0  0  0  0  0  0  0  0999 V2000
  101.2070   74.6730  -45.4280 C   0  0  0  0  0  0  0  0  0  0  0  0
  102.6080   75.1390  -45.7940 C   0  0  0  0  0  0  0  0  0  0  0  0
  103.5520   74.9410  -44.6210 N   0  0  0  0  0  0  0  0  0  0  0  0
  104.4920   73.7580  -44.8250 C   0  0  0  0  0  0  0  0  0  0  0  0
  104.2090   72.6780  -43.7960 C   0  0  0  0  0  0  0  0  0  0  0  0
  104.3010   76.2090  -44.1820 C   0  0  0  0  0  0  0  0  0  0  0  0
  105.1680   76.8060  -45.2900 C   0  0  0  0  0  0  0  0  0  0  0  0
  105.9650   77.9990  -44.7390 C   0  0  0  0  0  0  0  0  0  0  0  0
  105.3560   78.5540  -43.5210 N   0  0  0  0  0  0  0  0  0  0  0  0
  105.9720   79.8570  -43.1820 C   0  0  0  0  0  0  0  0  0  0  0  0
  106.4530   79.9120  -41.7480 C   0  0  0  0  0  0  0  0  0  0  0  0
  105.6500   80.5270  -40.7690 C   0  0  0  0  0  0  0  0  0  0  0  0
  106.0630   80.5970  -39.4370 C   0  0  0  0  0  0  0  0  0  0  0  0
  105.2370   81.2570  -38.4750 C   0  0  0  0  0  0  0  0  0  0  0  0
  104.5320   81.8250  -37.6850 C   0  0  0  0  0  0  0  0  0  0  0  0
  103.6670   82.5110  -36.7290 C   0  0  0  0  0  0  0  0  0  0  0  0
  102.3190   82.4210  -37.1690 O   0  0  0  0  0  0  0  0  0  0  0  0
  107.2810   80.0360  -39.0540 C   0  0  0  0  0  0  0  0  0  0  0  0
  108.0810   79.4070  -40.0100 C   0  0  0  0  0  0  0  0  0  0  0  0
  109.8990   78.5760  -39.3950 I   0  0  0  0  0  0  0  0  0  0  0  0
  107.6710   79.3450  -41.3480 C   0  0  0  0  0  0  0  0  0  0  0  0
  108.4430   78.7380  -42.3030 O   0  0  0  0  0  0  0  0  0  0  0  0
  103.9010   78.6530  -43.6430 C   0  0  0  0  0  0  0  0  0  0  0  0
  103.3050   77.2400  -43.6310 C   0  0  0  0  0  0  0  0  0  0  0  0
  101.1061   74.6394  -44.3332 H   0  0  0  0  0  0  0  0  0  0  0  0
  100.4674   75.3735  -45.8431 H   0  0  0  0  0  0  0  0  0  0  0  0
  101.0344   73.6691  -45.8431 H   0  0  0  0  0  0  0  0  0  0  0  0
  102.9709   74.5573  -46.6542 H   0  0  0  0  0  0  0  0  0  0  0  0
  102.5742   76.2083  -46.0499 H   0  0  0  0  0  0  0  0  0  0  0  0
  102.9580   74.6940  -43.8180 H   0  0  0  0  0  0  0  0  0  0  0  0
  104.3434   73.3460  -45.8340 H   0  0  0  0  0  0  0  0  0  0  0  0
  105.5305   74.1012  -44.7079 H   0  0  0  0  0  0  0  0  0  0  0  0
  104.3188   73.0971  -42.7849 H   0  0  0  0  0  0  0  0  0  0  0  0
  103.1828   72.3049  -43.9288 H   0  0  0  0  0  0  0  0  0  0  0  0
  104.9204   71.8496  -43.9288 H   0  0  0  0  0  0  0  0  0  0  0  0
  104.9984   75.9185  -43.3825 H   0  0  0  0  0  0  0  0  0  0  0  0
  105.8654   76.0405  -45.6609 H   0  0  0  0  0  0  0  0  0  0  0  0
  104.5228   77.1480  -46.1126 H   0  0  0  0  0  0  0  0  0  0  0  0
  106.9867   77.6655  -44.5048 H   0  0  0  0  0  0  0  0  0  0  0  0
  105.9693   78.7876  -45.5059 H   0  0  0  0  0  0  0  0  0  0  0  0
  106.8300   80.0264  -43.8492 H   0  0  0  0  0  0  0  0  0  0  0  0
  105.2038   80.6342  -43.3082 H   0  0  0  0  0  0  0  0  0  0  0  0
  104.6809   80.9597  -41.0581 H   0  0  0  0  0  0  0  0  0  0  0  0
  103.7635   82.0381  -35.7405 H   0  0  0  0  0  0  0  0  0  0  0  0
  103.9620   83.5683  -36.6569 H   0  0  0  0  0  0  0  0  0  0  0  0
  101.7670   82.6280  -36.3960 H   0  0  0  0  0  0  0  0  0  0  0  0
  107.6093   80.0887  -38.0055 H   0  0  0  0  0  0  0  0  0  0  0  0
  109.2610   78.4320  -41.8670 H   0  0  0  0  0  0  0  0  0  0  0  0
  103.4980   79.2311  -42.7984 H   0  0  0  0  0  0  0  0  0  0  0  0
  103.6392   79.1603  -44.5833 H   0  0  0  0  0  0  0  0  0  0  0  0
  103.0449   76.9697  -42.5969 H   0  0  0  0  0  0  0  0  0  0  0  0
  102.4107   77.2352  -44.2715 H   0  0  0  0  0  0  0  0  0  0  0  0
  1  2  1  0
  2  3  1  0
  3  4  1  0
  4  5  1  0
  3  6  1  0
  6  7  1  0
  7  8  1  0
  8  9  1  0
  9 10  1  0
 10 11  1  0
 11 12  2  0
 12 13  1  0
 13 14  1  0
 14 15  3  0
 15 16  1  0
 16 17  1  0
 13 18  2  0
 18 19  1  0
 19 20  1  0
 19 21  2  0
 21 22  1  0
  9 23  1  0
 23 24  1  0
 24  6  1  0
 21 11  1  0
  1 25  1  0
  1 26  1  0
  1 27  1  0
  2 28  1  0
  2 29  1  0
  3 30  1  0
  4 31  1  0
  4 32  1  0
  5 33  1  0
  5 34  1  0
  5 35  1  0
  6 36  1  0
  7 37  1  0
  7 38  1  0
  8 39  1  0
  8 40  1  0
 10 41  1  0
 10 42  1  0
 12 43  1  0
 16 44  1  0
 16 45  1  0
 17 46  1  0
 18 47  1  0
 22 48  1  0
 23 49  1  0
 23 50  1  0
 24 51  1  0
 24 52  1  0
M  CHG  1   3   1
M  END
>  <meeko>  (6) 
{"is_sidechain": [false], "free_energy": -5.372, "intermolecular_energy": -7.51, "internal_energy": -0.946}

$$$$
4agn_ligand
     RDKit          3D

 52 53  0  0  0  0  0  0  0  0999 V2000
  107.8920   74.6660  -44.1680 C   0  0  0  0  0  0  0  0  0  0  0  0
  106.7830   73.7260  -44.6140 C   0  0  0  0  0  0  0  0  0  0  0  0
  105.4850   74.4930  -44.7990 N   0  0  0  0  0  0  0  0  0  0  0  0
  104.3010   73.7980  -44.1370 C   0  0  0  0  0  0  0  0  0  0  0  0
  104.6720   72.3770  -43.7540 C   0  0  0  0  0  0  0  0  0  0  0  0
  105.5650   75.9830  -44.4310 C   0  0  0  0  0  0  0  0  0  0  0  0
  105.2740   76.9080  -45.6120 C   0  0  0  0  0  0  0  0  0  0  0  0
  105.4830   78.3710  -45.1880 C   0  0  0  0  0  0  0  0  0  0  0  0
  105.4100   78.5390  -43.7290 N   0  0  0  0  0  0  0  0  0  0  0  0
  105.3300   79.9750  -43.3770 C   0  0  0  0  0  0  0  0  0  0  0  0
  106.0090   80.2850  -42.0600 C   0  0  0  0  0  0  0  0  0  0  0  0
  105.2320   80.6690  -40.9520 C   0  0  0  0  0  0  0  0  0  0  0  0
  105.8250   80.9640  -39.7220 C   0  0  0  0  0  0  0  0  0  0  0  0
  105.0080   81.3820  -38.6260 C   0  0  0  0  0  0  0  0  0  0  0  0
  104.3050   81.7410  -37.7200 C   0  0  0  0  0  0  0  0  0  0  0  0
  103.4410   82.1810  -36.6270 C   0  0  0  0  0  0  0  0  0  0  0  0
  102.3330   82.8920  -37.1620 O   0  0  0  0  0  0  0  0  0  0  0  0
  107.2070   80.8610  -39.5720 C   0  0  0  0  0  0  0  0  0  0  0  0
  107.9910   80.4640  -40.6580 C   0  0  0  0  0  0  0  0  0  0  0  0
  110.0600   80.3210  -40.3930 I   0  0  0  0  0  0  0  0  0  0  0  0
  107.3960   80.1770  -41.8940 C   0  0  0  0  0  0  0  0  0  0  0  0
  108.1460   79.7920  -42.9730 O   0  0  0  0  0  0  0  0  0  0  0  0
  104.3040   77.7720  -43.1530 C   0  0  0  0  0  0  0  0  0  0  0  0
  104.6380   76.2780  -43.2430 C   0  0  0  0  0  0  0  0  0  0  0  0
  107.9274   74.6960  -43.0690 H   0  0  0  0  0  0  0  0  0  0  0  0
  108.8562   74.3059  -44.5562 H   0  0  0  0  0  0  0  0  0  0  0  0
  107.6947   75.6761  -44.5562 H   0  0  0  0  0  0  0  0  0  0  0  0
  107.0665   73.2569  -45.5677 H   0  0  0  0  0  0  0  0  0  0  0  0
  106.6363   72.9545  -43.8438 H   0  0  0  0  0  0  0  0  0  0  0  0
  105.2910   74.4800  -45.8100 H   0  0  0  0  0  0  0  0  0  0  0  0
  104.0128   74.3542  -43.2328 H   0  0  0  0  0  0  0  0  0  0  0  0
  103.4602   73.7699  -44.8457 H   0  0  0  0  0  0  0  0  0  0  0  0
  104.6955   72.2869  -42.6579 H   0  0  0  0  0  0  0  0  0  0  0  0
  103.9257   71.6802  -44.1632 H   0  0  0  0  0  0  0  0  0  0  0  0
  105.6637   72.1340  -44.1632 H   0  0  0  0  0  0  0  0  0  0  0  0
  106.6040   76.1943  -44.1380 H   0  0  0  0  0  0  0  0  0  0  0  0
  105.9548   76.6669  -46.4417 H   0  0  0  0  0  0  0  0  0  0  0  0
  104.2323   76.7680  -45.9364 H   0  0  0  0  0  0  0  0  0  0  0  0
  106.4729   78.7029  -45.5343 H   0  0  0  0  0  0  0  0  0  0  0  0
  104.6804   78.9728  -45.6392 H   0  0  0  0  0  0  0  0  0  0  0  0
  105.8155   80.5610  -44.1713 H   0  0  0  0  0  0  0  0  0  0  0  0
  104.2664   80.2368  -43.2758 H   0  0  0  0  0  0  0  0  0  0  0  0
  104.1391   80.7381  -41.0558 H   0  0  0  0  0  0  0  0  0  0  0  0
  103.0803   81.3049  -36.0681 H   0  0  0  0  0  0  0  0  0  0  0  0
  104.0079   82.8369  -35.9500 H   0  0  0  0  0  0  0  0  0  0  0  0
  102.4600   83.8210  -36.9090 H   0  0  0  0  0  0  0  0  0  0  0  0
  107.6773   81.0909  -38.6046 H   0  0  0  0  0  0  0  0  0  0  0  0
  107.5300   79.5890  -43.7020 H   0  0  0  0  0  0  0  0  0  0  0  0
  104.1658   78.0570  -42.0996 H   0  0  0  0  0  0  0  0  0  0  0  0
  103.3765   77.9813  -43.7061 H   0  0  0  0  0  0  0  0  0  0  0  0
  105.1367   75.9659  -42.3135 H   0  0  0  0  0  0  0  0  0  0  0  0
  103.7005   75.7213  -43.3882 H   0  0  0  0  0  0  0  0  0  0  0  0
  1  2  1  0
  2  3  1  0
  3  4  1  0
  4  5  1  0
  3  6  1  0
  6  7  1  0
  7  8  1  0
  8  9  1  0
  9 10  1  0
 10 11  1  0
 11 12  2  0
 12 13  1  0
 13 14  1  0
 14 15  3  0
 15 16  1  0
 16 17  1  0
 13 18  2  0
 18 19  1  0
 19 20  1  0
 19 21  2  0
 21 22  1  0
  9 23  1  0
 23 24  1  0
 24  6  1  0
 21 11  1  0
  1 25  1  0
  1 26  1  0
  1 27  1  0
  2 28  1  0
  2 29  1  0
  3 30  1  0
  4 31  1  0
  4 32  1  0
  5 33  1  0
  5 34  1  0
  5 35  1  0
  6 36  1  0
  7 37  1  0
  7 38  1  0
  8 39  1  0
  8 40  1  0
 10 41  1  0
 10 42  1  0
 12 43  1  0
 16 44  1  0
 16 45  1  0
 17 46  1  0
 18 47  1  0
 22 48  1  0
 23 49  1  0
 23 50  1  0
 24 51  1  0
 24 52  1  0
M  CHG  1   3   1
M  END
>  <meeko>  (7) 
{"is_sidechain": [false], "free_energy": -5.274, "intermolecular_energy": -7.217, "internal_energy": -1.102}

$$$$
4agn_ligand
     RDKit          3D

 52 53  0  0  0  0  0  0  0  0999 V2000
  113.8470   74.2360  -40.6960 C   0  0  0  0  0  0  0  0  0  0  0  0
  113.2080   75.2560  -41.6250 C   0  0  0  0  0  0  0  0  0  0  0  0
  112.7650   76.4790  -40.8390 N   0  0  0  0  0  0  0  0  0  0  0  0
  113.7000   77.6660  -41.0370 C   0  0  0  0  0  0  0  0  0  0  0  0
  113.4130   78.3460  -42.3650 C   0  0  0  0  0  0  0  0  0  0  0  0
  111.2900   76.8630  -41.0320 C   0  0  0  0  0  0  0  0  0  0  0  0
  110.4590   75.7480  -41.6670 C   0  0  0  0  0  0  0  0  0  0  0  0
  109.0300   76.2500  -41.9260 C   0  0  0  0  0  0  0  0  0  0  0  0
  108.6930   77.4120  -41.0910 N   0  0  0  0  0  0  0  0  0  0  0  0
  107.2400   77.6900  -41.1530 C   0  0  0  0  0  0  0  0  0  0  0  0
  106.9300   79.1690  -41.0440 C   0  0  0  0  0  0  0  0  0  0  0  0
  106.1830   79.6420  -39.9500 C   0  0  0  0  0  0  0  0  0  0  0  0
  105.8770   80.9980  -39.8180 C   0  0  0  0  0  0  0  0  0  0  0  0
  105.0890   81.4400  -38.7110 C   0  0  0  0  0  0  0  0  0  0  0  0
  104.4160   81.7900  -37.7780 C   0  0  0  0  0  0  0  0  0  0  0  0
  103.5890   82.2170  -36.6530 C   0  0  0  0  0  0  0  0  0  0  0  0
  102.4430   82.8980  -37.1450 O   0  0  0  0  0  0  0  0  0  0  0  0
  106.3310   81.9110  -40.7700 C   0  0  0  0  0  0  0  0  0  0  0  0
  107.0890   81.4590  -41.8520 C   0  0  0  0  0  0  0  0  0  0  0  0
  107.7520   82.8590  -43.2570 I   0  0  0  0  0  0  0  0  0  0  0  0
  107.3870   80.0970  -41.9890 C   0  0  0  0  0  0  0  0  0  0  0  0
  108.1240   79.6320  -43.0450 O   0  0  0  0  0  0  0  0  0  0  0  0
  109.1580   77.2390  -39.7140 C   0  0  0  0  0  0  0  0  0  0  0  0
  110.6890   77.3190  -39.6940 C   0  0  0  0  0  0  0  0  0  0  0  0
  113.6647   74.5270  -39.6510 H   0  0  0  0  0  0  0  0  0  0  0  0
  113.4082   73.2447  -40.8825 H   0  0  0  0  0  0  0  0  0  0  0  0
  114.9304   74.1983  -40.8825 H   0  0  0  0  0  0  0  0  0  0  0  0
  113.9394   75.5603  -42.3882 H   0  0  0  0  0  0  0  0  0  0  0  0
  112.3292   74.8015  -42.1059 H   0  0  0  0  0  0  0  0  0  0  0  0
  112.8440   76.2200  -39.8470 H   0  0  0  0  0  0  0  0  0  0  0  0
  113.5496   78.3869  -40.2199 H   0  0  0  0  0  0  0  0  0  0  0  0
  114.7398   77.3072  -41.0355 H   0  0  0  0  0  0  0  0  0  0  0  0
  112.9913   79.3453  -42.1817 H   0  0  0  0  0  0  0  0  0  0  0  0
  114.3474   78.4418  -42.9374 H   0  0  0  0  0  0  0  0  0  0  0  0
  112.6925   77.7433  -42.9374 H   0  0  0  0  0  0  0  0  0  0  0  0
  111.2591   77.7000  -41.7450 H   0  0  0  0  0  0  0  0  0  0  0  0
  110.9189   75.4466  -42.6197 H   0  0  0  0  0  0  0  0  0  0  0  0
  110.4241   74.8861  -40.9845 H   0  0  0  0  0  0  0  0  0  0  0  0
  108.9407   76.5358  -42.9845 H   0  0  0  0  0  0  0  0  0  0  0  0
  108.3338   75.4369  -41.6724 H   0  0  0  0  0  0  0  0  0  0  0  0
  106.8495   77.3169  -42.1113 H   0  0  0  0  0  0  0  0  0  0  0  0
  106.7649   77.1839  -40.2997 H   0  0  0  0  0  0  0  0  0  0  0  0
  105.8341   78.9319  -39.1858 H   0  0  0  0  0  0  0  0  0  0  0  0
  103.2730   81.3366  -36.0741 H   0  0  0  0  0  0  0  0  0  0  0  0
  104.1681   82.8908  -36.0045 H   0  0  0  0  0  0  0  0  0  0  0  0
  102.5660   83.8340  -36.9180 H   0  0  0  0  0  0  0  0  0  0  0  0
  106.0933   82.9803  -40.6689 H   0  0  0  0  0  0  0  0  0  0  0  0
  108.8020   80.3030  -43.2480 H   0  0  0  0  0  0  0  0  0  0  0  0
  108.7382   78.0337  -39.0798 H   0  0  0  0  0  0  0  0  0  0  0  0
  108.8304   76.2618  -39.3296 H   0  0  0  0  0  0  0  0  0  0  0  0
  110.9908   78.3592  -39.5017 H   0  0  0  0  0  0  0  0  0  0  0  0
  111.0608   76.6527  -38.9017 H   0  0  0  0  0  0  0  0  0  0  0  0
  1  2  1  0
  2  3  1  0
  3  4  1  0
  4  5  1  0
  3  6  1  0
  6  7  1  0
  7  8  1  0
  8  9  1  0
  9 10  1  0
 10 11  1  0
 11 12  2  0
 12 13  1  0
 13 14  1  0
 14 15  3  0
 15 16  1  0
 16 17  1  0
 13 18  2  0
 18 19  1  0
 19 20  1  0
 19 21  2  0
 21 22  1  0
  9 23  1  0
 23 24  1  0
 24  6  1  0
 21 11  1  0
  1 25  1  0
  1 26  1  0
  1 27  1  0
  2 28  1  0
  2 29  1  0
  3 30  1  0
  4 31  1  0
  4 32  1  0
  5 33  1  0
  5 34  1  0
  5 35  1  0
  6 36  1  0
  7 37  1  0
  7 38  1  0
  8 39  1  0
  8 40  1  0
 10 41  1  0
 10 42  1  0
 12 43  1  0
 16 44  1  0
 16 45  1  0
 17 46  1  0
 18 47  1  0
 22 48  1  0
 23 49  1  0
 23 50  1  0
 24 51  1  0
 24 52  1  0
M  CHG  1   3   1
M  END
>  <meeko>  (8) 
{"is_sidechain": [false], "free_energy": -5.246, "intermolecular_energy": -7.21, "internal_energy": -1.068}

$$$$
4agn_ligand
     RDKit          3D

 52 53  0  0  0  0  0  0  0  0999 V2000
  101.7380   74.8050  -45.1810 C   0  0  0  0  0  0  0  0  0  0  0  0
  103.1610   75.2030  -45.5400 C   0  0  0  0  0  0  0  0  0  0  0  0
  104.0260   75.2490  -44.2920 N   0  0  0  0  0  0  0  0  0  0  0  0
  105.1700   74.2430  -44.3420 C   0  0  0  0  0  0  0  0  0  0  0  0
  104.6850   72.8730  -43.9020 C   0  0  0  0  0  0  0  0  0  0  0  0
  104.5050   76.6550  -43.8980 C   0  0  0  0  0  0  0  0  0  0  0  0
  103.9610   77.7510  -44.8130 C   0  0  0  0  0  0  0  0  0  0  0  0
  104.5730   79.1050  -44.4200 C   0  0  0  0  0  0  0  0  0  0  0  0
  105.0880   79.1000  -43.0430 N   0  0  0  0  0  0  0  0  0  0  0  0
  105.4060   80.4780  -42.6040 C   0  0  0  0  0  0  0  0  0  0  0  0
  105.8730   80.5310  -41.1650 C   0  0  0  0  0  0  0  0  0  0  0  0
  107.1220   79.9810  -40.8200 C   0  0  0  0  0  0  0  0  0  0  0  0
  107.5840   80.0110  -39.5020 C   0  0  0  0  0  0  0  0  0  0  0  0
  108.8430   79.4140  -39.1820 C   0  0  0  0  0  0  0  0  0  0  0  0
  109.8990   78.8980  -38.9310 C   0  0  0  0  0  0  0  0  0  0  0  0
  111.1760   78.2610  -38.6220 C   0  0  0  0  0  0  0  0  0  0  0  0
  110.9530   77.1660  -37.7430 O   0  0  0  0  0  0  0  0  0  0  0  0
  106.8140   80.6110  -38.5060 C   0  0  0  0  0  0  0  0  0  0  0  0
  105.5800   81.1760  -38.8360 C   0  0  0  0  0  0  0  0  0  0  0  0
  104.4560   82.0680  -37.3150 I   0  0  0  0  0  0  0  0  0  0  0  0
  105.1130   81.1380  -40.1560 C   0  0  0  0  0  0  0  0  0  0  0  0
  103.9040   81.6820  -40.5000 O   0  0  0  0  0  0  0  0  0  0  0  0
  104.1630   78.4340  -42.1250 C   0  0  0  0  0  0  0  0  0  0  0  0
  104.1640   76.9300  -42.4260 C   0  0  0  0  0  0  0  0  0  0  0  0
  101.6307   74.7750  -44.0867 H   0  0  0  0  0  0  0  0  0  0  0  0
  101.0350   75.5410  -45.5983 H   0  0  0  0  0  0  0  0  0  0  0  0
  101.5189   73.8111  -45.5983 H   0  0  0  0  0  0  0  0  0  0  0  0
  103.5774   74.4667  -46.2432 H   0  0  0  0  0  0  0  0  0  0  0  0
  103.1476   76.2006  -46.0032 H   0  0  0  0  0  0  0  0  0  0  0  0
  103.4200   74.9490  -43.5170 H   0  0  0  0  0  0  0  0  0  0  0  0
  105.5528   74.1793  -45.3713 H   0  0  0  0  0  0  0  0  0  0  0  0
  105.9693   74.5752  -43.6632 H   0  0  0  0  0  0  0  0  0  0  0  0
  104.6682   72.8255  -42.8032 H   0  0  0  0  0  0  0  0  0  0  0  0
  103.6711   72.7003  -44.2921 H   0  0  0  0  0  0  0  0  0  0  0  0
  105.3644   72.1008  -44.2921 H   0  0  0  0  0  0  0  0  0  0  0  0
  105.5974   76.6778  -44.0247 H   0  0  0  0  0  0  0  0  0  0  0  0
  104.2233   77.5201  -45.8560 H   0  0  0  0  0  0  0  0  0  0  0  0
  102.8670   77.8020  -44.7098 H   0  0  0  0  0  0  0  0  0  0  0  0
  105.4008   79.3331  -45.1075 H   0  0  0  0  0  0  0  0  0  0  0  0
  103.7811   79.8658  -44.4828 H   0  0  0  0  0  0  0  0  0  0  0  0
  106.2016   80.8796  -43.2488 H   0  0  0  0  0  0  0  0  0  0  0  0
  104.4857   81.0756  -42.6805 H   0  0  0  0  0  0  0  0  0  0  0  0
  107.7444   79.5200  -41.6011 H   0  0  0  0  0  0  0  0  0  0  0  0
  111.6402   77.8982  -39.5509 H   0  0  0  0  0  0  0  0  0  0  0  0
  111.8452   78.9898  -38.1413 H   0  0  0  0  0  0  0  0  0  0  0  0
  110.6000   77.5460  -36.9220 H   0  0  0  0  0  0  0  0  0  0  0  0
  107.1760   80.6391  -37.4677 H   0  0  0  0  0  0  0  0  0  0  0  0
  103.9650   81.9680  -41.4310 H   0  0  0  0  0  0  0  0  0  0  0  0
  104.4861   78.6034  -41.0873 H   0  0  0  0  0  0  0  0  0  0  0  0
  103.1493   78.8404  -42.2562 H   0  0  0  0  0  0  0  0  0  0  0  0
  104.9117   76.4373  -41.7870 H   0  0  0  0  0  0  0  0  0  0  0  0
  103.1575   76.5350  -42.2234 H   0  0  0  0  0  0  0  0  0  0  0  0
  1  2  1  0
  2  3  1  0
  3  4  1  0
  4  5  1  0
  3  6  1  0
  6  7  1  0
  7  8  1  0
  8  9  1  0
  9 10  1  0
 10 11  1  0
 11 12  2  0
 12 13  1  0
 13 14  1  0
 14 15  3  0
 15 16  1  0
 16 17  1  0
 13 18  2  0
 18 19  1  0
 19 20  1  0
 19 21  2  0
 21 22  1  0
  9 23  1  0
 23 24  1  0
 24  6  1  0
 21 11  1  0
  1 25  1  0
  1 26  1  0
  1 27  1  0
  2 28  1  0
  2 29  1  0
  3 30  1  0
  4 31  1  0
  4 32  1  0
  5 33  1  0
  5 34  1  0
  5 35  1  0
  6 36  1  0
  7 37  1  0
  7 38  1  0
  8 39  1  0
  8 40  1  0
 10 41  1  0
 10 42  1  0
 12 43  1  0
 16 44  1  0
 16 45  1  0
 17 46  1  0
 18 47  1  0
 22 48  1  0
 23 49  1  0
 23 50  1  0
 24 51  1  0
 24 52  1  0
M  CHG  1   3   1
M  END
>  <meeko>  (9) 
{"is_sidechain": [false], "free_energy": -5.24, "intermolecular_energy": -7.572, "internal_energy": -0.699}

$$$$
