1p1q_ligand
     RDKit          3D

 23 23  0  0  0  0  0  0  0  0999 V2000
   44.0010   28.4500   41.7020 C   0  0  0  0  0  0  0  0  0  0  0  0
   44.6220   27.6180   40.6370 C   0  0  0  0  0  0  0  0  0  0  0  0
   44.4220   28.0540   39.3340 O   0  0  0  0  0  0  0  0  0  0  0  0
   45.0420   27.0410   38.5660 N   0  0  0  0  0  0  0  0  0  0  0  0
   45.7330   26.1920   39.3870 C   0  0  0  0  0  0  0  0  0  0  0  0
   46.5720   25.3710   39.0630 O   0  0  0  0  0  0  0  0  0  0  0  0
   45.3510   26.5080   40.7670 C   0  0  0  0  0  0  0  0  0  0  0  0
   45.8050   25.7000   41.9280 C   0  0  0  0  0  0  0  0  0  0  0  0
   47.0190   26.2430   42.6740 C   0  0  2  0  0  0  0  0  0  0  0  0
   48.1220   25.1770   42.6390 N   0  0  0  0  0  0  0  0  0  0  0  0
   46.7920   26.6250   44.1670 C   0  0  0  0  0  0  0  0  0  0  0  0
   45.9650   27.5200   44.4310 O   0  0  0  0  0  0  0  0  0  0  0  0
   47.5730   25.9220   44.8930 O   0  0  0  0  0  0  0  0  0  0  0  0
   44.2921   28.0600   42.6885 H   0  0  0  0  0  0  0  0  0  0  0  0
   44.3456   29.4899   41.6026 H   0  0  0  0  0  0  0  0  0  0  0  0
   42.9060   28.4155   41.6026 H   0  0  0  0  0  0  0  0  0  0  0  0
   45.3480   27.2440   37.6270 H   0  0  0  0  0  0  0  0  0  0  0  0
   44.9706   25.6345   42.6418 H   0  0  0  0  0  0  0  0  0  0  0  0
   46.1149   24.7284   41.5158 H   0  0  0  0  0  0  0  0  0  0  0  0
   47.2778   27.1781   42.1558 H   0  0  0  0  0  0  0  0  0  0  0  0
   47.8400   24.3100   42.1770 H   0  0  0  0  0  0  0  0  0  0  0  0
   49.0460   25.5150   42.3810 H   0  0  0  0  0  0  0  0  0  0  0  0
   48.1420   24.9170   43.6640 H   0  0  0  0  0  0  0  0  0  0  0  0
  1  2  1  0
  2  3  1  0
  3  4  1  0
  4  5  1  0
  5  6  2  0
  5  7  1  0
  7  8  1  0
  8  9  1  0
  9 10  1  0
  9 11  1  0
 11 12  2  0
 11 13  1  0
  7  2  2  0
  1 14  1  0
  1 15  1  0
  1 16  1  0
  4 17  1  0
  8 18  1  0
  8 19  1  0
  9 20  1  6
 10 21  1  0
 10 22  1  0
 10 23  1  0
M  CHG  2  10   1  13  -1
M  END
>  <meeko>  (1) 
{"is_sidechain": [false], "free_energy": -7.539, "intermolecular_energy": -9.082, "internal_energy": -0.294}

$$$$
1p1q_ligand
     RDKit          3D

 23 23  0  0  0  0  0  0  0  0999 V2000
   46.2930   25.5530   38.7670 C   0  0  0  0  0  0  0  0  0  0  0  0
   45.4900   26.5210   39.5600 C   0  0  0  0  0  0  0  0  0  0  0  0
   44.8560   27.5210   38.8340 O   0  0  0  0  0  0  0  0  0  0  0  0
   44.2590   28.3120   39.8430 N   0  0  0  0  0  0  0  0  0  0  0  0
   44.3710   27.6830   41.0530 C   0  0  0  0  0  0  0  0  0  0  0  0
   43.7690   27.9430   42.0800 O   0  0  0  0  0  0  0  0  0  0  0  0
   45.2930   26.5570   40.8800 C   0  0  0  0  0  0  0  0  0  0  0  0
   45.7590   25.7210   42.0160 C   0  0  0  0  0  0  0  0  0  0  0  0
   47.0320   26.1990   42.7070 C   0  0  2  0  0  0  0  0  0  0  0  0
   48.0670   25.0670   42.6440 N   0  0  0  0  0  0  0  0  0  0  0  0
   46.8870   26.6110   44.2030 C   0  0  0  0  0  0  0  0  0  0  0  0
   46.0400   27.4750   44.5000 O   0  0  0  0  0  0  0  0  0  0  0  0
   47.7460   25.9620   44.8910 O   0  0  0  0  0  0  0  0  0  0  0  0
   46.8442   24.8886   39.4487 H   0  0  0  0  0  0  0  0  0  0  0  0
   45.6232   24.9537   38.1328 H   0  0  0  0  0  0  0  0  0  0  0  0
   47.0057   26.1006   38.1328 H   0  0  0  0  0  0  0  0  0  0  0  0
   43.4710   28.8990   39.6160 H   0  0  0  0  0  0  0  0  0  0  0  0
   44.9561   25.6930   42.7674 H   0  0  0  0  0  0  0  0  0  0  0  0
   46.0006   24.7375   41.5867 H   0  0  0  0  0  0  0  0  0  0  0  0
   47.3259   27.1110   42.1668 H   0  0  0  0  0  0  0  0  0  0  0  0
   48.3870   24.8560   41.6970 H   0  0  0  0  0  0  0  0  0  0  0  0
   48.8060   25.1140   43.3420 H   0  0  0  0  0  0  0  0  0  0  0  0
   47.4420   24.2490   42.8840 H   0  0  0  0  0  0  0  0  0  0  0  0
  1  2  1  0
  2  3  1  0
  3  4  1  0
  4  5  1  0
  5  6  2  0
  5  7  1  0
  7  8  1  0
  8  9  1  0
  9 10  1  0
  9 11  1  0
 11 12  2  0
 11 13  1  0
  7  2  2  0
  1 14  1  0
  1 15  1  0
  1 16  1  0
  4 17  1  0
  8 18  1  0
  8 19  1  0
  9 20  1  6
 10 21  1  0
 10 22  1  0
 10 23  1  0
M  CHG  2  10   1  13  -1
M  END
>  <meeko>  (2) 
{"is_sidechain": [false], "free_energy": -7.409, "intermolecular_energy": -8.923, "internal_energy": -0.295}

$$$$
1p1q_ligand
     RDKit          3D

 23 23  0  0  0  0  0  0  0  0999 V2000
   46.7750   23.9240   41.1980 C   0  0  0  0  0  0  0  0  0  0  0  0
   46.6820   25.2540   41.8570 C   0  0  0  0  0  0  0  0  0  0  0  0
   47.6290   25.5110   42.8400 O   0  0  0  0  0  0  0  0  0  0  0  0
   47.2410   26.7810   43.3260 N   0  0  0  0  0  0  0  0  0  0  0  0
   46.2620   27.3050   42.5270 C   0  0  0  0  0  0  0  0  0  0  0  0
   45.8740   28.4590   42.4950 O   0  0  0  0  0  0  0  0  0  0  0  0
   45.8100   26.2380   41.6280 C   0  0  0  0  0  0  0  0  0  0  0  0
   44.6600   26.4040   40.7030 C   0  0  0  0  0  0  0  0  0  0  0  0
   45.0100   26.8690   39.2940 C   0  0  2  0  0  0  0  0  0  0  0  0
   44.1190   28.0700   38.9480 N   0  0  0  0  0  0  0  0  0  0  0  0
   44.8280   25.8170   38.1590 C   0  0  0  0  0  0  0  0  0  0  0  0
   43.6730   25.5640   37.7650 O   0  0  0  0  0  0  0  0  0  0  0  0
   45.9750   25.3520   37.8440 O   0  0  0  0  0  0  0  0  0  0  0  0
   46.8300   23.1377   41.9653 H   0  0  0  0  0  0  0  0  0  0  0  0
   45.8859   23.7627   40.5707 H   0  0  0  0  0  0  0  0  0  0  0  0
   47.6779   23.8880   40.5707 H   0  0  0  0  0  0  0  0  0  0  0  0
   47.9180   27.3630   43.7950 H   0  0  0  0  0  0  0  0  0  0  0  0
   44.1481   25.4337   40.6218 H   0  0  0  0  0  0  0  0  0  0  0  0
   44.0373   27.2003   41.1368 H   0  0  0  0  0  0  0  0  0  0  0  0
   46.0853   27.0984   39.3283 H   0  0  0  0  0  0  0  0  0  0  0  0
   44.5390   28.9730   39.1790 H   0  0  0  0  0  0  0  0  0  0  0  0
   43.6710   28.0310   38.0350 H   0  0  0  0  0  0  0  0  0  0  0  0
   43.3720   27.9480   39.6860 H   0  0  0  0  0  0  0  0  0  0  0  0
  1  2  1  0
  2  3  1  0
  3  4  1  0
  4  5  1  0
  5  6  2  0
  5  7  1  0
  7  8  1  0
  8  9  1  0
  9 10  1  0
  9 11  1  0
 11 12  2  0
 11 13  1  0
  7  2  2  0
  1 14  1  0
  1 15  1  0
  1 16  1  0
  4 17  1  0
  8 18  1  0
  8 19  1  0
  9 20  1  1
 10 21  1  0
 10 22  1  0
 10 23  1  0
M  CHG  2  10   1  13  -1
M  END
>  <meeko>  (3) 
{"is_sidechain": [false], "free_energy": -7.408, "intermolecular_energy": -8.919, "internal_energy": -0.298}

$$$$
1p1q_ligand
     RDKit          3D

 23 23  0  0  0  0  0  0  0  0999 V2000
   43.8650   28.8050   41.8460 C   0  0  0  0  0  0  0  0  0  0  0  0
   44.8900   27.7500   42.0630 C   0  0  0  0  0  0  0  0  0  0  0  0
   45.8550   28.0310   43.0210 O   0  0  0  0  0  0  0  0  0  0  0  0
   46.7130   26.9100   42.9410 N   0  0  0  0  0  0  0  0  0  0  0  0
   46.1550   25.9540   42.1370 C   0  0  0  0  0  0  0  0  0  0  0  0
   46.4840   24.7850   42.0400 O   0  0  0  0  0  0  0  0  0  0  0  0
   45.0060   26.5650   41.4600 C   0  0  0  0  0  0  0  0  0  0  0  0
   44.2320   25.8620   40.4060 C   0  0  0  0  0  0  0  0  0  0  0  0
   44.4430   26.3700   38.9840 C   0  0  2  0  0  0  0  0  0  0  0  0
   43.6320   25.4830   38.0300 N   0  0  0  0  0  0  0  0  0  0  0  0
   45.9140   26.3780   38.4700 C   0  0  0  0  0  0  0  0  0  0  0  0
   46.4450   25.2890   38.1760 O   0  0  0  0  0  0  0  0  0  0  0  0
   46.3440   27.5810   38.4750 O   0  0  0  0  0  0  0  0  0  0  0  0
   43.5068   29.1737   42.8185 H   0  0  0  0  0  0  0  0  0  0  0  0
   44.3091   29.6367   41.2795 H   0  0  0  0  0  0  0  0  0  0  0  0
   43.0208   28.3850   41.2795 H   0  0  0  0  0  0  0  0  0  0  0  0
   47.2980   26.6720   43.7280 H   0  0  0  0  0  0  0  0  0  0  0  0
   44.5143   24.7991   40.4310 H   0  0  0  0  0  0  0  0  0  0  0  0
   43.1725   26.0465   40.6372 H   0  0  0  0  0  0  0  0  0  0  0  0
   44.1214   27.4217   39.0060 H   0  0  0  0  0  0  0  0  0  0  0  0
   42.8210   25.0430   38.4690 H   0  0  0  0  0  0  0  0  0  0  0  0
   43.4530   25.8820   37.1110 H   0  0  0  0  0  0  0  0  0  0  0  0
   44.3150   24.6860   37.9130 H   0  0  0  0  0  0  0  0  0  0  0  0
  1  2  1  0
  2  3  1  0
  3  4  1  0
  4  5  1  0
  5  6  2  0
  5  7  1  0
  7  8  1  0
  8  9  1  0
  9 10  1  0
  9 11  1  0
 11 12  2  0
 11 13  1  0
  7  2  2  0
  1 14  1  0
  1 15  1  0
  1 16  1  0
  4 17  1  0
  8 18  1  0
  8 19  1  0
  9 20  1  1
 10 21  1  0
 10 22  1  0
 10 23  1  0
M  CHG  2  10   1  13  -1
M  END
>  <meeko>  (4) 
{"is_sidechain": [false], "free_energy": -7.386, "intermolecular_energy": -8.877, "internal_energy": -0.314}

$$$$
1p1q_ligand
     RDKit          3D

 23 23  0  0  0  0  0  0  0  0999 V2000
   44.3220   27.8650   38.3590 C   0  0  0  0  0  0  0  0  0  0  0  0
   45.0820   26.7840   39.0400 C   0  0  0  0  0  0  0  0  0  0  0  0
   46.1910   26.3000   38.3580 O   0  0  0  0  0  0  0  0  0  0  0  0
   46.6420   25.2530   39.1940 N   0  0  0  0  0  0  0  0  0  0  0  0
   45.9590   25.2780   40.3800 C   0  0  0  0  0  0  0  0  0  0  0  0
   46.2470   24.6980   41.4110 O   0  0  0  0  0  0  0  0  0  0  0  0
   44.8440   26.2170   40.2250 C   0  0  0  0  0  0  0  0  0  0  0  0
   43.8050   26.4050   41.2690 C   0  0  0  0  0  0  0  0  0  0  0  0
   44.0410   27.5630   42.2330 C   0  0  2  0  0  0  0  0  0  0  0  0
   43.4480   28.8350   41.6110 N   0  0  0  0  0  0  0  0  0  0  0  0
   45.5280   27.8700   42.5840 C   0  0  0  0  0  0  0  0  0  0  0  0
   46.1730   28.6220   41.8270 O   0  0  0  0  0  0  0  0  0  0  0  0
   45.8410   27.2240   43.6400 O   0  0  0  0  0  0  0  0  0  0  0  0
   43.8613   28.5203   39.1129 H   0  0  0  0  0  0  0  0  0  0  0  0
   45.0059   28.4539   37.7301 H   0  0  0  0  0  0  0  0  0  0  0  0
   43.5364   27.4207   37.7301 H   0  0  0  0  0  0  0  0  0  0  0  0
   47.6010   24.9460   39.1360 H   0  0  0  0  0  0  0  0  0  0  0  0
   42.8437   26.5768   40.7626 H   0  0  0  0  0  0  0  0  0  0  0  0
   43.8275   25.4928   41.8834 H   0  0  0  0  0  0  0  0  0  0  0  0
   43.5622   27.2544   43.1740 H   0  0  0  0  0  0  0  0  0  0  0  0
   44.1370   29.4170   41.1320 H   0  0  0  0  0  0  0  0  0  0  0  0
   42.5740   28.7050   41.1050 H   0  0  0  0  0  0  0  0  0  0  0  0
   43.2370   29.3760   42.4950 H   0  0  0  0  0  0  0  0  0  0  0  0
  1  2  1  0
  2  3  1  0
  3  4  1  0
  4  5  1  0
  5  6  2  0
  5  7  1  0
  7  8  1  0
  8  9  1  0
  9 10  1  0
  9 11  1  0
 11 12  2  0
 11 13  1  0
  7  2  2  0
  1 14  1  0
  1 15  1  0
  1 16  1  0
  4 17  1  0
  8 18  1  0
  8 19  1  0
  9 20  1  1
 10 21  1  0
 10 22  1  0
 10 23  1  0
M  CHG  2  10   1  13  -1
M  END
>  <meeko>  (5) 
{"is_sidechain": [false], "free_energy": -7.222, "intermolecular_energy": -8.809, "internal_energy": -0.184}

$$$$
1p1q_ligand
     RDKit          3D

 23 23  0  0  0  0  0  0  0  0999 V2000
   46.2730   24.2670   40.7900 C   0  0  0  0  0  0  0  0  0  0  0  0
   45.8320   25.4100   39.9470 C   0  0  0  0  0  0  0  0  0  0  0  0
   46.5540   25.6140   38.7790 O   0  0  0  0  0  0  0  0  0  0  0  0
   45.9700   26.7890   38.2500 N   0  0  0  0  0  0  0  0  0  0  0  0
   44.8480   27.1120   38.9640 C   0  0  0  0  0  0  0  0  0  0  0  0
   43.9720   27.8970   38.6490 O   0  0  0  0  0  0  0  0  0  0  0  0
   44.8310   26.2660   40.1610 C   0  0  0  0  0  0  0  0  0  0  0  0
   43.8250   26.4290   41.2420 C   0  0  0  0  0  0  0  0  0  0  0  0
   44.0770   27.5820   42.2080 C   0  0  2  0  0  0  0  0  0  0  0  0
   43.5390   28.8700   41.5700 N   0  0  0  0  0  0  0  0  0  0  0  0
   45.5640   27.8420   42.5930 C   0  0  0  0  0  0  0  0  0  0  0  0
   46.2420   28.5920   41.8640 O   0  0  0  0  0  0  0  0  0  0  0  0
   45.8400   27.1650   43.6410 O   0  0  0  0  0  0  0  0  0  0  0  0
   46.1701   24.5337   41.8522 H   0  0  0  0  0  0  0  0  0  0  0  0
   45.6496   23.3876   40.5707 H   0  0  0  0  0  0  0  0  0  0  0  0
   47.3255   24.0342   40.5707 H   0  0  0  0  0  0  0  0  0  0  0  0
   46.0520   26.9860   37.2650 H   0  0  0  0  0  0  0  0  0  0  0  0
   42.8445   26.5908   40.7703 H   0  0  0  0  0  0  0  0  0  0  0  0
   43.8816   25.5119   41.8467 H   0  0  0  0  0  0  0  0  0  0  0  0
   43.5678   27.2917   43.1388 H   0  0  0  0  0  0  0  0  0  0  0  0
   42.6400   29.1720   41.9500 H   0  0  0  0  0  0  0  0  0  0  0  0
   44.2220   29.6150   41.4510 H   0  0  0  0  0  0  0  0  0  0  0  0
   43.2920   28.4960   40.6120 H   0  0  0  0  0  0  0  0  0  0  0  0
  1  2  1  0
  2  3  1  0
  3  4  1  0
  4  5  1  0
  5  6  2  0
  5  7  1  0
  7  8  1  0
  8  9  1  0
  9 10  1  0
  9 11  1  0
 11 12  2  0
 11 13  1  0
  7  2  2  0
  1 14  1  0
  1 15  1  0
  1 16  1  0
  4 17  1  0
  8 18  1  0
  8 19  1  0
  9 20  1  1
 10 21  1  0
 10 22  1  0
 10 23  1  0
M  CHG  2  10   1  13  -1
M  END
>  <meeko>  (6) 
{"is_sidechain": [false], "free_energy": -6.88, "intermolecular_energy": -8.197, "internal_energy": -0.385}

$$$$
1p1q_ligand
     RDKit          3D

 23 23  0  0  0  0  0  0  0  0999 V2000
   45.3940   27.7330   42.6300 C   0  0  0  0  0  0  0  0  0  0  0  0
   46.1720   26.4930   42.3690 C   0  0  0  0  0  0  0  0  0  0  0  0
   47.2730   26.2850   43.1900 O   0  0  0  0  0  0  0  0  0  0  0  0
   47.8420   25.1040   42.6580 N   0  0  0  0  0  0  0  0  0  0  0  0
   47.0000   24.5610   41.7270 C   0  0  0  0  0  0  0  0  0  0  0  0
   47.0440   23.4380   41.2560 O   0  0  0  0  0  0  0  0  0  0  0  0
   45.9530   25.5490   41.4520 C   0  0  0  0  0  0  0  0  0  0  0  0
   44.9300   25.3580   40.3910 C   0  0  0  0  0  0  0  0  0  0  0  0
   45.3100   25.8790   39.0090 C   0  0  2  0  0  0  0  0  0  0  0  0
   46.2150   27.1050   39.1880 N   0  0  0  0  0  0  0  0  0  0  0  0
   44.1270   26.3080   38.0890 C   0  0  0  0  0  0  0  0  0  0  0  0
   43.5060   25.4220   37.4710 O   0  0  0  0  0  0  0  0  0  0  0  0
   44.0280   27.5810   38.1180 O   0  0  0  0  0  0  0  0  0  0  0  0
   45.2989   27.8846   43.7154 H   0  0  0  0  0  0  0  0  0  0  0  0
   45.9146   28.5932   42.1839 H   0  0  0  0  0  0  0  0  0  0  0  0
   44.3930   27.6385   42.1839 H   0  0  0  0  0  0  0  0  0  0  0  0
   48.4390   24.5340   43.2370 H   0  0  0  0  0  0  0  0  0  0  0  0
   44.7304   24.2798   40.3033 H   0  0  0  0  0  0  0  0  0  0  0  0
   44.0561   25.9475   40.7054 H   0  0  0  0  0  0  0  0  0  0  0  0
   45.7953   25.0290   38.5070 H   0  0  0  0  0  0  0  0  0  0  0  0
   46.0310   27.8530   38.5170 H   0  0  0  0  0  0  0  0  0  0  0  0
   46.3400   27.4170   40.1490 H   0  0  0  0  0  0  0  0  0  0  0  0
   47.1300   26.6920   38.8570 H   0  0  0  0  0  0  0  0  0  0  0  0
  1  2  1  0
  2  3  1  0
  3  4  1  0
  4  5  1  0
  5  6  2  0
  5  7  1  0
  7  8  1  0
  8  9  1  0
  9 10  1  0
  9 11  1  0
 11 12  2  0
 11 13  1  0
  7  2  2  0
  1 14  1  0
  1 15  1  0
  1 16  1  0
  4 17  1  0
  8 18  1  0
  8 19  1  0
  9 20  1  6
 10 21  1  0
 10 22  1  0
 10 23  1  0
M  CHG  2  10   1  13  -1
M  END
>  <meeko>  (7) 
{"is_sidechain": [false], "free_energy": -6.869, "intermolecular_energy": -8.509, "internal_energy": -0.059}

$$$$
1p1q_ligand
     RDKit          3D

 23 23  0  0  0  0  0  0  0  0999 V2000
   47.3730   25.5680   43.6140 C   0  0  0  0  0  0  0  0  0  0  0  0
   46.5100   26.4720   42.8090 C   0  0  0  0  0  0  0  0  0  0  0  0
   46.1310   27.6560   43.4280 O   0  0  0  0  0  0  0  0  0  0  0  0
   45.2700   28.2470   42.4730 N   0  0  0  0  0  0  0  0  0  0  0  0
   45.3240   27.5440   41.3010 C   0  0  0  0  0  0  0  0  0  0  0  0
   44.9190   27.8970   40.2080 O   0  0  0  0  0  0  0  0  0  0  0  0
   46.0530   26.3000   41.5670 C   0  0  0  0  0  0  0  0  0  0  0  0
   46.1950   25.2220   40.5550 C   0  0  0  0  0  0  0  0  0  0  0  0
   44.9210   24.8560   39.8000 C   0  0  2  0  0  0  0  0  0  0  0  0
   44.8010   23.3260   39.7750 N   0  0  0  0  0  0  0  0  0  0  0  0
   44.8320   25.3510   38.3250 C   0  0  0  0  0  0  0  0  0  0  0  0
   43.7040   25.5400   37.8310 O   0  0  0  0  0  0  0  0  0  0  0  0
   46.0150   25.4480   37.8540 O   0  0  0  0  0  0  0  0  0  0  0  0
   47.1981   25.7512   44.6844 H   0  0  0  0  0  0  0  0  0  0  0  0
   47.1301   24.5217   43.3766 H   0  0  0  0  0  0  0  0  0  0  0  0
   48.4294   25.7621   43.3766 H   0  0  0  0  0  0  0  0  0  0  0  0
   45.1130   29.2430   42.4930 H   0  0  0  0  0  0  0  0  0  0  0  0
   46.9442   25.5462   39.8177 H   0  0  0  0  0  0  0  0  0  0  0  0
   46.4836   24.3198   41.1143 H   0  0  0  0  0  0  0  0  0  0  0  0
   44.1102   25.3648   40.3420 H   0  0  0  0  0  0  0  0  0  0  0  0
   45.5710   22.8610   39.2900 H   0  0  0  0  0  0  0  0  0  0  0  0
   44.5330   22.8960   40.6580 H   0  0  0  0  0  0  0  0  0  0  0  0
   43.9890   23.2280   39.1050 H   0  0  0  0  0  0  0  0  0  0  0  0
  1  2  1  0
  2  3  1  0
  3  4  1  0
  4  5  1  0
  5  6  2  0
  5  7  1  0
  7  8  1  0
  8  9  1  0
  9 10  1  0
  9 11  1  0
 11 12  2  0
 11 13  1  0
  7  2  2  0
  1 14  1  0
  1 15  1  0
  1 16  1  0
  4 17  1  0
  8 18  1  0
  8 19  1  0
  9 20  1  1
 10 21  1  0
 10 22  1  0
 10 23  1  0
M  CHG  2  10   1  13  -1
M  END
>  <meeko>  (8) 
{"is_sidechain": [false], "free_energy": -6.463, "intermolecular_energy": -8.207, "internal_energy": 0.128}

$$$$
1p1q_ligand
     RDKit          3D

 23 23  0  0  0  0  0  0  0  0999 V2000
   45.2640   23.9730   39.7590 C   0  0  0  0  0  0  0  0  0  0  0  0
   45.9230   24.6410   40.9120 C   0  0  0  0  0  0  0  0  0  0  0  0
   47.0870   24.0420   41.3750 O   0  0  0  0  0  0  0  0  0  0  0  0
   47.4230   24.8350   42.4970 N   0  0  0  0  0  0  0  0  0  0  0  0
   46.6190   25.9410   42.5420 C   0  0  0  0  0  0  0  0  0  0  0  0
   46.7830   26.9470   43.2080 O   0  0  0  0  0  0  0  0  0  0  0  0
   45.5480   25.7460   41.5610 C   0  0  0  0  0  0  0  0  0  0  0  0
   44.4080   26.6880   41.4220 C   0  0  0  0  0  0  0  0  0  0  0  0
   44.6750   27.9240   40.5690 C   0  0  2  0  0  0  0  0  0  0  0  0
   43.5300   28.9210   40.7950 N   0  0  0  0  0  0  0  0  0  0  0  0
   44.7840   27.6860   39.0330 C   0  0  0  0  0  0  0  0  0  0  0  0
   45.8610   27.2590   38.5740 O   0  0  0  0  0  0  0  0  0  0  0  0
   43.6800   28.0270   38.4860 O   0  0  0  0  0  0  0  0  0  0  0  0
   44.5366   23.2356   40.1292 H   0  0  0  0  0  0  0  0  0  0  0  0
   44.7445   24.7253   39.1473 H   0  0  0  0  0  0  0  0  0  0  0  0
   46.0233   23.4638   39.1473 H   0  0  0  0  0  0  0  0  0  0  0  0
   48.3760   24.8520   42.8270 H   0  0  0  0  0  0  0  0  0  0  0  0
   43.5688   26.1393   40.9696 H   0  0  0  0  0  0  0  0  0  0  0  0
   44.2004   27.0610   42.4358 H   0  0  0  0  0  0  0  0  0  0  0  0
   45.6615   28.2874   40.8928 H   0  0  0  0  0  0  0  0  0  0  0  0
   43.8420   29.8330   41.1340 H   0  0  0  0  0  0  0  0  0  0  0  0
   42.8330   28.9580   40.0550 H   0  0  0  0  0  0  0  0  0  0  0  0
   43.0830   28.4780   41.6450 H   0  0  0  0  0  0  0  0  0  0  0  0
  1  2  1  0
  2  3  1  0
  3  4  1  0
  4  5  1  0
  5  6  2  0
  5  7  1  0
  7  8  1  0
  8  9  1  0
  9 10  1  0
  9 11  1  0
 11 12  2  0
 11 13  1  0
  7  2  2  0
  1 14  1  0
  1 15  1  0
  1 16  1  0
  4 17  1  0
  8 18  1  0
  8 19  1  0
  9 20  1  1
 10 21  1  0
 10 22  1  0
 10 23  1  0
M  CHG  2  10   1  13  -1
M  END
>  <meeko>  (9) 
{"is_sidechain": [false], "free_energy": -6.174, "intermolecular_energy": -7.468, "internal_energy": -0.262}

$$$$
