3f3c_ligand
     RDKit          3D

 23 23  0  0  0  0  0  0  0  0999 V2000
   43.2010   35.2770   38.7210 N   0  0  0  0  0  0  0  0  0  0  0  0
   42.4780   34.3850   39.7300 C   0  0  1  0  0  0  0  0  0  0  0  0
   41.0680   34.9190   39.9850 C   0  0  0  0  0  0  0  0  0  0  0  0
   40.6910   34.8310   41.4480 C   0  0  0  0  0  0  0  0  0  0  0  0
   40.2270   33.6260   42.0000 C   0  0  0  0  0  0  0  0  0  0  0  0
   39.8660   33.5650   43.3470 C   0  0  0  0  0  0  0  0  0  0  0  0
   39.9690   34.7030   44.1390 C   0  0  0  0  0  0  0  0  0  0  0  0
   39.6200   34.6390   45.4310 F   0  0  0  0  0  0  0  0  0  0  0  0
   40.4260   35.9040   43.6110 C   0  0  0  0  0  0  0  0  0  0  0  0
   40.7870   35.9680   42.2650 C   0  0  0  0  0  0  0  0  0  0  0  0
   42.4900   32.9310   39.1740 C   0  0  0  0  0  0  0  0  0  0  0  0
   42.2490   32.9670   37.9190 O   0  0  0  0  0  0  0  0  0  0  0  0
   42.7030   31.9940   39.9690 O   0  0  0  0  0  0  0  0  0  0  0  0
   42.4140   35.4430   38.0380 H   0  0  0  0  0  0  0  0  0  0  0  0
   43.9750   34.8310   38.2330 H   0  0  0  0  0  0  0  0  0  0  0  0
   43.4070   36.2100   39.0790 H   0  0  0  0  0  0  0  0  0  0  0  0
   42.9847   34.3864   40.7064 H   0  0  0  0  0  0  0  0  0  0  0  0
   41.0229   35.9714   39.6681 H   0  0  0  0  0  0  0  0  0  0  0  0
   40.3597   34.3033   39.4113 H   0  0  0  0  0  0  0  0  0  0  0  0
   40.1478   32.7281   41.3695 H   0  0  0  0  0  0  0  0  0  0  0  0
   39.5019   32.6214   43.7796 H   0  0  0  0  0  0  0  0  0  0  0  0
   40.5025   36.7969   44.2489 H   0  0  0  0  0  0  0  0  0  0  0  0
   41.1494   36.9162   41.8411 H   0  0  0  0  0  0  0  0  0  0  0  0
  1  2  1  0
  2  3  1  0
  3  4  1  0
  4  5  2  0
  5  6  1  0
  6  7  2  0
  7  8  1  0
  7  9  1  0
  9 10  2  0
  2 11  1  0
 11 12  2  0
 11 13  1  0
 10  4  1  0
  1 14  1  0
  1 15  1  0
  1 16  1  0
  2 17  1  1
  3 18  1  0
  3 19  1  0
  5 20  1  0
  6 21  1  0
  9 22  1  0
 10 23  1  0
M  CHG  2   1   1  13  -1
M  END
>  <meeko>  (1) 
{"is_sidechain": [false], "free_energy": -7.353, "intermolecular_energy": -8.858, "internal_energy": -0.2}

$$$$
3f3c_ligand
     RDKit          3D

 23 23  0  0  0  0  0  0  0  0999 V2000
   39.5290   35.2810   42.5080 N   0  0  0  0  0  0  0  0  0  0  0  0
   40.2450   34.4130   41.4730 C   0  0  1  0  0  0  0  0  0  0  0  0
   41.6500   34.9590   41.2140 C   0  0  0  0  0  0  0  0  0  0  0  0
   42.0370   34.8410   39.7560 C   0  0  0  0  0  0  0  0  0  0  0  0
   42.5060   33.6250   39.2320 C   0  0  0  0  0  0  0  0  0  0  0  0
   42.8760   33.5370   37.8890 C   0  0  0  0  0  0  0  0  0  0  0  0
   42.7780   34.6580   37.0730 C   0  0  0  0  0  0  0  0  0  0  0  0
   43.1360   34.5670   35.7850 F   0  0  0  0  0  0  0  0  0  0  0  0
   42.3170   35.8690   37.5730 C   0  0  0  0  0  0  0  0  0  0  0  0
   41.9460   35.9610   38.9150 C   0  0  0  0  0  0  0  0  0  0  0  0
   40.2460   32.9480   41.9990 C   0  0  0  0  0  0  0  0  0  0  0  0
   40.5500   32.9560   43.2410 O   0  0  0  0  0  0  0  0  0  0  0  0
   39.9820   32.0300   41.1970 O   0  0  0  0  0  0  0  0  0  0  0  0
   38.5880   35.3710   42.0400 H   0  0  0  0  0  0  0  0  0  0  0  0
   39.9260   36.2100   42.6350 H   0  0  0  0  0  0  0  0  0  0  0  0
   39.3180   34.7870   43.3760 H   0  0  0  0  0  0  0  0  0  0  0  0
   39.7275   34.4318   40.5025 H   0  0  0  0  0  0  0  0  0  0  0  0
   41.6798   36.0191   41.5059 H   0  0  0  0  0  0  0  0  0  0  0  0
   42.3625   34.3664   41.8066 H   0  0  0  0  0  0  0  0  0  0  0  0
   42.5818   32.7404   39.8813 H   0  0  0  0  0  0  0  0  0  0  0  0
   43.2434   32.5850   37.4783 H   0  0  0  0  0  0  0  0  0  0  0  0
   42.2449   36.7485   36.9163 H   0  0  0  0  0  0  0  0  0  0  0  0
   41.5799   36.9175   39.3164 H   0  0  0  0  0  0  0  0  0  0  0  0
  1  2  1  0
  2  3  1  0
  3  4  1  0
  4  5  2  0
  5  6  1  0
  6  7  2  0
  7  8  1  0
  7  9  1  0
  9 10  2  0
  2 11  1  0
 11 12  2  0
 11 13  1  0
 10  4  1  0
  1 14  1  0
  1 15  1  0
  1 16  1  0
  2 17  1  6
  3 18  1  0
  3 19  1  0
  5 20  1  0
  6 21  1  0
  9 22  1  0
 10 23  1  0
M  CHG  2   1   1  13  -1
M  END
>  <meeko>  (2) 
{"is_sidechain": [false], "free_energy": -7.351, "intermolecular_energy": -8.867, "internal_energy": -0.188}

$$$$
3f3c_ligand
     RDKit          3D

 23 23  0  0  0  0  0  0  0  0999 V2000
   39.5100   35.2320   42.4370 N   0  0  0  0  0  0  0  0  0  0  0  0
   40.2670   34.3610   41.4340 C   0  0  1  0  0  0  0  0  0  0  0  0
   41.6630   34.9360   41.1900 C   0  0  0  0  0  0  0  0  0  0  0  0
   42.0610   34.8450   39.7330 C   0  0  0  0  0  0  0  0  0  0  0  0
   41.9370   35.9540   38.8820 C   0  0  0  0  0  0  0  0  0  0  0  0
   42.2920   35.8490   37.5370 C   0  0  0  0  0  0  0  0  0  0  0  0
   42.7690   34.6410   37.0430 C   0  0  0  0  0  0  0  0  0  0  0  0
   43.1060   34.5460   35.7500 F   0  0  0  0  0  0  0  0  0  0  0  0
   42.8980   33.5320   37.8690 C   0  0  0  0  0  0  0  0  0  0  0  0
   42.5440   33.6330   39.2150 C   0  0  0  0  0  0  0  0  0  0  0  0
   40.2920   32.9080   41.9890 C   0  0  0  0  0  0  0  0  0  0  0  0
   40.4770   32.9520   43.2530 O   0  0  0  0  0  0  0  0  0  0  0  0
   40.1520   31.9640   41.1860 O   0  0  0  0  0  0  0  0  0  0  0  0
   40.2390   35.9740   42.6100 H   0  0  0  0  0  0  0  0  0  0  0  0
   39.2880   34.7740   43.3180 H   0  0  0  0  0  0  0  0  0  0  0  0
   38.7360   35.7510   42.0200 H   0  0  0  0  0  0  0  0  0  0  0  0
   39.7686   34.3477   40.4535 H   0  0  0  0  0  0  0  0  0  0  0  0
   41.6715   35.9925   41.4962 H   0  0  0  0  0  0  0  0  0  0  0  0
   42.3828   34.3482   41.7786 H   0  0  0  0  0  0  0  0  0  0  0  0
   41.5589   36.9086   39.2766 H   0  0  0  0  0  0  0  0  0  0  0  0
   42.1947   36.7186   36.8705 H   0  0  0  0  0  0  0  0  0  0  0  0
   43.2763   32.5813   37.4653 H   0  0  0  0  0  0  0  0  0  0  0  0
   42.6440   32.7579   39.8739 H   0  0  0  0  0  0  0  0  0  0  0  0
  1  2  1  0
  2  3  1  0
  3  4  1  0
  4  5  2  0
  5  6  1  0
  6  7  2  0
  7  8  1  0
  7  9  1  0
  9 10  2  0
  2 11  1  0
 11 12  2  0
 11 13  1  0
 10  4  1  0
  1 14  1  0
  1 15  1  0
  1 16  1  0
  2 17  1  6
  3 18  1  0
  3 19  1  0
  5 20  1  0
  6 21  1  0
  9 22  1  0
 10 23  1  0
M  CHG  2   1   1  13  -1
M  END
>  <meeko>  (3) 
{"is_sidechain": [false], "free_energy": -7.339, "intermolecular_energy": -8.856, "internal_energy": -0.185}

$$$$
3f3c_ligand
     RDKit          3D

 23 23  0  0  0  0  0  0  0  0999 V2000
   42.5920   32.4990   41.2140 N   0  0  0  0  0  0  0  0  0  0  0  0
   41.2390   33.1520   40.9320 C   0  0  1  0  0  0  0  0  0  0  0  0
   40.9780   33.1870   39.4250 C   0  0  0  0  0  0  0  0  0  0  0  0
   41.8680   34.1910   38.7250 C   0  0  0  0  0  0  0  0  0  0  0  0
   42.8810   33.7690   37.8500 C   0  0  0  0  0  0  0  0  0  0  0  0
   43.7040   34.7060   37.2250 C   0  0  0  0  0  0  0  0  0  0  0  0
   43.5170   36.0610   37.4740 C   0  0  0  0  0  0  0  0  0  0  0  0
   44.3120   36.9560   36.8730 F   0  0  0  0  0  0  0  0  0  0  0  0
   42.5210   36.4990   38.3370 C   0  0  0  0  0  0  0  0  0  0  0  0
   41.6950   35.5640   38.9630 C   0  0  0  0  0  0  0  0  0  0  0  0
   40.1550   32.3620   41.7210 C   0  0  0  0  0  0  0  0  0  0  0  0
   39.7100   31.4200   40.9800 O   0  0  0  0  0  0  0  0  0  0  0  0
   39.8770   32.7330   42.8790 O   0  0  0  0  0  0  0  0  0  0  0  0
   42.5280   31.6740   40.5600 H   0  0  0  0  0  0  0  0  0  0  0  0
   42.7130   32.1600   42.1660 H   0  0  0  0  0  0  0  0  0  0  0  0
   43.3830   33.0320   40.8480 H   0  0  0  0  0  0  0  0  0  0  0  0
   41.2184   34.1989   41.2690 H   0  0  0  0  0  0  0  0  0  0  0  0
   41.1703   32.1879   39.0068 H   0  0  0  0  0  0  0  0  0  0  0  0
   39.9318   33.4870   39.2655 H   0  0  0  0  0  0  0  0  0  0  0  0
   43.0264   32.6960   37.6565 H   0  0  0  0  0  0  0  0  0  0  0  0
   44.4970   34.3745   36.5385 H   0  0  0  0  0  0  0  0  0  0  0  0
   42.3841   37.5740   38.5257 H   0  0  0  0  0  0  0  0  0  0  0  0
   40.9037   35.9048   39.6469 H   0  0  0  0  0  0  0  0  0  0  0  0
  1  2  1  0
  2  3  1  0
  3  4  1  0
  4  5  2  0
  5  6  1  0
  6  7  2  0
  7  8  1  0
  7  9  1  0
  9 10  2  0
  2 11  1  0
 11 12  2  0
 11 13  1  0
 10  4  1  0
  1 14  1  0
  1 15  1  0
  1 16  1  0
  2 17  1  1
  3 18  1  0
  3 19  1  0
  5 20  1  0
  6 21  1  0
  9 22  1  0
 10 23  1  0
M  CHG  2   1   1  13  -1
M  END
>  <meeko>  (4) 
{"is_sidechain": [false], "free_energy": -7.273, "intermolecular_energy": -8.789, "internal_energy": -0.173}

$$$$
3f3c_ligand
     RDKit          3D

 23 23  0  0  0  0  0  0  0  0999 V2000
   40.1070   32.7860   39.8100 N   0  0  0  0  0  0  0  0  0  0  0  0
   41.4860   33.2630   40.2670 C   0  0  1  0  0  0  0  0  0  0  0  0
   41.6050   33.1400   41.7870 C   0  0  0  0  0  0  0  0  0  0  0  0
   40.7740   34.1840   42.5000 C   0  0  0  0  0  0  0  0  0  0  0  0
   39.7590   33.8080   43.3950 C   0  0  0  0  0  0  0  0  0  0  0  0
   38.9900   34.7820   44.0320 C   0  0  0  0  0  0  0  0  0  0  0  0
   39.2320   36.1270   43.7770 C   0  0  0  0  0  0  0  0  0  0  0  0
   38.4900   37.0570   44.3910 F   0  0  0  0  0  0  0  0  0  0  0  0
   40.2320   36.5180   42.8960 C   0  0  0  0  0  0  0  0  0  0  0  0
   41.0040   35.5470   42.2570 C   0  0  0  0  0  0  0  0  0  0  0  0
   42.5560   32.4310   39.5010 C   0  0  0  0  0  0  0  0  0  0  0  0
   43.0130   31.5280   40.2820 O   0  0  0  0  0  0  0  0  0  0  0  0
   42.8130   32.7400   38.3210 O   0  0  0  0  0  0  0  0  0  0  0  0
   39.9560   33.4400   38.9970 H   0  0  0  0  0  0  0  0  0  0  0  0
   39.3610   32.9230   40.4890 H   0  0  0  0  0  0  0  0  0  0  0  0
   40.1210   31.8630   39.3740 H   0  0  0  0  0  0  0  0  0  0  0  0
   41.6430   34.3266   40.0342 H   0  0  0  0  0  0  0  0  0  0  0  0
   41.2602   32.1409   42.0918 H   0  0  0  0  0  0  0  0  0  0  0  0
   42.6588   33.2944   42.0619 H   0  0  0  0  0  0  0  0  0  0  0  0
   39.5700   32.7428   43.5941 H   0  0  0  0  0  0  0  0  0  0  0  0
   38.1954   34.4871   44.7332 H   0  0  0  0  0  0  0  0  0  0  0  0
   40.4141   37.5856   42.7033 H   0  0  0  0  0  0  0  0  0  0  0  0
   41.7975   35.8516   41.5587 H   0  0  0  0  0  0  0  0  0  0  0  0
  1  2  1  0
  2  3  1  0
  3  4  1  0
  4  5  2  0
  5  6  1  0
  6  7  2  0
  7  8  1  0
  7  9  1  0
  9 10  2  0
  2 11  1  0
 11 12  2  0
 11 13  1  0
 10  4  1  0
  1 14  1  0
  1 15  1  0
  1 16  1  0
  2 17  1  1
  3 18  1  0
  3 19  1  0
  5 20  1  0
  6 21  1  0
  9 22  1  0
 10 23  1  0
M  CHG  2   1   1  13  -1
M  END
>  <meeko>  (5) 
{"is_sidechain": [false], "free_energy": -7.272, "intermolecular_energy": -8.77, "internal_energy": -0.191}

$$$$
3f3c_ligand
     RDKit          3D

 23 23  0  0  0  0  0  0  0  0999 V2000
   39.8690   33.3200   40.9530 N   0  0  0  0  0  0  0  0  0  0  0  0
   41.1680   33.9610   41.4420 C   0  0  1  0  0  0  0  0  0  0  0  0
   41.4310   35.2600   40.6800 C   0  0  0  0  0  0  0  0  0  0  0  0
   41.9250   34.9950   39.2740 C   0  0  0  0  0  0  0  0  0  0  0  0
   42.6180   33.8140   38.9650 C   0  0  0  0  0  0  0  0  0  0  0  0
   43.0830   33.5920   37.6680 C   0  0  0  0  0  0  0  0  0  0  0  0
   42.8560   34.5470   36.6830 C   0  0  0  0  0  0  0  0  0  0  0  0
   43.3060   34.3290   35.4400 F   0  0  0  0  0  0  0  0  0  0  0  0
   42.1730   35.7210   36.9690 C   0  0  0  0  0  0  0  0  0  0  0  0
   41.7060   35.9460   38.2650 C   0  0  0  0  0  0  0  0  0  0  0  0
   41.0470   34.1690   42.9800 C   0  0  0  0  0  0  0  0  0  0  0  0
   41.6650   35.2400   43.3010 O   0  0  0  0  0  0  0  0  0  0  0  0
   40.4200   33.3200   43.6450 O   0  0  0  0  0  0  0  0  0  0  0  0
   40.0130   32.3380   41.3090 H   0  0  0  0  0  0  0  0  0  0  0  0
   39.7600   33.2930   39.9410 H   0  0  0  0  0  0  0  0  0  0  0  0
   39.0430   33.6390   41.4610 H   0  0  0  0  0  0  0  0  0  0  0  0
   42.0354   33.3133   41.2471 H   0  0  0  0  0  0  0  0  0  0  0  0
   40.4961   35.8372   40.6264 H   0  0  0  0  0  0  0  0  0  0  0  0
   42.2105   35.8204   41.2170 H   0  0  0  0  0  0  0  0  0  0  0  0
   42.7951   33.0613   39.7474 H   0  0  0  0  0  0  0  0  0  0  0  0
   43.6262   32.6665   37.4262 H   0  0  0  0  0  0  0  0  0  0  0  0
   42.0011   36.4683   36.1804 H   0  0  0  0  0  0  0  0  0  0  0  0
   41.1631   36.8741   38.4970 H   0  0  0  0  0  0  0  0  0  0  0  0
  1  2  1  0
  2  3  1  0
  3  4  1  0
  4  5  2  0
  5  6  1  0
  6  7  2  0
  7  8  1  0
  7  9  1  0
  9 10  2  0
  2 11  1  0
 11 12  2  0
 11 13  1  0
 10  4  1  0
  1 14  1  0
  1 15  1  0
  1 16  1  0
  2 17  1  1
  3 18  1  0
  3 19  1  0
  5 20  1  0
  6 21  1  0
  9 22  1  0
 10 23  1  0
M  CHG  2   1   1  13  -1
M  END
>  <meeko>  (6) 
{"is_sidechain": [false], "free_energy": -7.265, "intermolecular_energy": -8.835, "internal_energy": -0.116}

$$$$
3f3c_ligand
     RDKit          3D

 23 23  0  0  0  0  0  0  0  0999 V2000
   42.8730   33.4650   40.0310 N   0  0  0  0  0  0  0  0  0  0  0  0
   41.5360   34.1100   39.6660 C   0  0  1  0  0  0  0  0  0  0  0  0
   41.3200   35.3740   40.4990 C   0  0  0  0  0  0  0  0  0  0  0  0
   40.8490   35.0500   41.9000 C   0  0  0  0  0  0  0  0  0  0  0  0
   40.2400   33.8180   42.1870 C   0  0  0  0  0  0  0  0  0  0  0  0
   39.7960   33.5400   43.4810 C   0  0  0  0  0  0  0  0  0  0  0  0
   39.9590   34.4890   44.4830 C   0  0  0  0  0  0  0  0  0  0  0  0
   39.5300   34.2170   45.7230 F   0  0  0  0  0  0  0  0  0  0  0  0
   40.5590   35.7130   44.2190 C   0  0  0  0  0  0  0  0  0  0  0  0
   41.0050   35.9940   42.9270 C   0  0  0  0  0  0  0  0  0  0  0  0
   41.5410   34.3820   38.1330 C   0  0  0  0  0  0  0  0  0  0  0  0
   41.8940   33.3140   37.5260 O   0  0  0  0  0  0  0  0  0  0  0  0
   41.2350   35.5230   37.7330 O   0  0  0  0  0  0  0  0  0  0  0  0
   42.9040   33.6960   41.0600 H   0  0  0  0  0  0  0  0  0  0  0  0
   43.6850   33.8760   39.5740 H   0  0  0  0  0  0  0  0  0  0  0  0
   42.8480   32.4450   40.0160 H   0  0  0  0  0  0  0  0  0  0  0  0
   40.6907   33.4451   39.8968 H   0  0  0  0  0  0  0  0  0  0  0  0
   42.2695   35.9259   40.5613 H   0  0  0  0  0  0  0  0  0  0  0  0
   40.5429   35.9783   40.0082 H   0  0  0  0  0  0  0  0  0  0  0  0
   40.1124   33.0701   41.3905 H   0  0  0  0  0  0  0  0  0  0  0  0
   39.3195   32.5745   43.7064 H   0  0  0  0  0  0  0  0  0  0  0  0
   40.6817   36.4550   45.0217 H   0  0  0  0  0  0  0  0  0  0  0  0
   41.4820   36.9616   42.7119 H   0  0  0  0  0  0  0  0  0  0  0  0
  1  2  1  0
  2  3  1  0
  3  4  1  0
  4  5  2  0
  5  6  1  0
  6  7  2  0
  7  8  1  0
  7  9  1  0
  9 10  2  0
  2 11  1  0
 11 12  2  0
 11 13  1  0
 10  4  1  0
  1 14  1  0
  1 15  1  0
  1 16  1  0
  2 17  1  6
  3 18  1  0
  3 19  1  0
  5 20  1  0
  6 21  1  0
  9 22  1  0
 10 23  1  0
M  CHG  2   1   1  13  -1
M  END
>  <meeko>  (7) 
{"is_sidechain": [false], "free_energy": -7.254, "intermolecular_energy": -8.837, "internal_energy": -0.102}

$$$$
3f3c_ligand
     RDKit          3D

 23 23  0  0  0  0  0  0  0  0999 V2000
   40.2230   32.8810   42.9860 N   0  0  0  0  0  0  0  0  0  0  0  0
   40.4370   33.2450   41.5170 C   0  0  1  0  0  0  0  0  0  0  0  0
   41.9290   33.4280   41.2350 C   0  0  0  0  0  0  0  0  0  0  0  0
   42.1720   34.0490   39.8770 C   0  0  0  0  0  0  0  0  0  0  0  0
   41.7930   35.3750   39.6130 C   0  0  0  0  0  0  0  0  0  0  0  0
   42.0080   35.9280   38.3500 C   0  0  0  0  0  0  0  0  0  0  0  0
   42.5980   35.1600   37.3530 C   0  0  0  0  0  0  0  0  0  0  0  0
   42.8000   35.6950   36.1420 F   0  0  0  0  0  0  0  0  0  0  0  0
   42.9790   33.8460   37.5950 C   0  0  0  0  0  0  0  0  0  0  0  0
   42.7660   33.2900   38.8560 C   0  0  0  0  0  0  0  0  0  0  0  0
   39.7840   32.1290   40.6500 C   0  0  0  0  0  0  0  0  0  0  0  0
   39.7990   31.0340   41.3080 O   0  0  0  0  0  0  0  0  0  0  0  0
   39.3760   32.4270   39.5100 O   0  0  0  0  0  0  0  0  0  0  0  0
   39.9680   31.8630   42.8790 H   0  0  0  0  0  0  0  0  0  0  0  0
   39.4540   33.3700   43.4390 H   0  0  0  0  0  0  0  0  0  0  0  0
   41.0880   32.8540   43.5270 H   0  0  0  0  0  0  0  0  0  0  0  0
   39.9596   34.2034   41.2648 H   0  0  0  0  0  0  0  0  0  0  0  0
   42.3599   34.0817   42.0077 H   0  0  0  0  0  0  0  0  0  0  0  0
   42.4035   32.4357   41.2471 H   0  0  0  0  0  0  0  0  0  0  0  0
   41.3253   35.9796   40.4040 H   0  0  0  0  0  0  0  0  0  0  0  0
   41.7118   36.9672   38.1443 H   0  0  0  0  0  0  0  0  0  0  0  0
   43.4453   33.2486   36.7977 H   0  0  0  0  0  0  0  0  0  0  0  0
   43.0653   32.2498   39.0521 H   0  0  0  0  0  0  0  0  0  0  0  0
  1  2  1  0
  2  3  1  0
  3  4  1  0
  4  5  2  0
  5  6  1  0
  6  7  2  0
  7  8  1  0
  7  9  1  0
  9 10  2  0
  2 11  1  0
 11 12  2  0
 11 13  1  0
 10  4  1  0
  1 14  1  0
  1 15  1  0
  1 16  1  0
  2 17  1  6
  3 18  1  0
  3 19  1  0
  5 20  1  0
  6 21  1  0
  9 22  1  0
 10 23  1  0
M  CHG  2   1   1  13  -1
M  END
>  <meeko>  (8) 
{"is_sidechain": [false], "free_energy": -6.9, "intermolecular_energy": -8.365, "internal_energy": -0.148}

$$$$
3f3c_ligand
     RDKit          3D

 23 23  0  0  0  0  0  0  0  0999 V2000
   42.9030   33.9560   39.2550 N   0  0  0  0  0  0  0  0  0  0  0  0
   41.6320   33.8730   38.4090 C   0  0  1  0  0  0  0  0  0  0  0  0
   40.4800   34.5790   39.1250 C   0  0  0  0  0  0  0  0  0  0  0  0
   40.5990   34.4650   40.6290 C   0  0  0  0  0  0  0  0  0  0  0  0
   41.0590   35.5450   41.3990 C   0  0  0  0  0  0  0  0  0  0  0  0
   41.1790   35.4180   42.7830 C   0  0  0  0  0  0  0  0  0  0  0  0
   40.8420   34.2170   43.3960 C   0  0  0  0  0  0  0  0  0  0  0  0
   40.9610   34.1010   44.7260 F   0  0  0  0  0  0  0  0  0  0  0  0
   40.3850   33.1370   42.6520 C   0  0  0  0  0  0  0  0  0  0  0  0
   40.2630   33.2610   41.2670 C   0  0  0  0  0  0  0  0  0  0  0  0
   41.9500   34.4820   37.0120 C   0  0  0  0  0  0  0  0  0  0  0  0
   41.6880   35.7330   37.0390 O   0  0  0  0  0  0  0  0  0  0  0  0
   42.3730   33.7230   36.1180 O   0  0  0  0  0  0  0  0  0  0  0  0
   43.3470   34.8080   38.8220 H   0  0  0  0  0  0  0  0  0  0  0  0
   43.5350   33.1650   39.1550 H   0  0  0  0  0  0  0  0  0  0  0  0
   42.7300   34.2420   40.2200 H   0  0  0  0  0  0  0  0  0  0  0  0
   41.3081   32.8315   38.2664 H   0  0  0  0  0  0  0  0  0  0  0  0
   40.4868   35.6433   38.8470 H   0  0  0  0  0  0  0  0  0  0  0  0
   39.5401   34.0964   38.8189 H   0  0  0  0  0  0  0  0  0  0  0  0
   41.3254   36.4936   40.9099 H   0  0  0  0  0  0  0  0  0  0  0  0
   41.5387   36.2645   43.3864 H   0  0  0  0  0  0  0  0  0  0  0  0
   40.1215   32.1921   43.1498 H   0  0  0  0  0  0  0  0  0  0  0  0
   39.9012   32.4096   40.6718 H   0  0  0  0  0  0  0  0  0  0  0  0
  1  2  1  0
  2  3  1  0
  3  4  1  0
  4  5  2  0
  5  6  1  0
  6  7  2  0
  7  8  1  0
  7  9  1  0
  9 10  2  0
  2 11  1  0
 11 12  2  0
 11 13  1  0
 10  4  1  0
  1 14  1  0
  1 15  1  0
  1 16  1  0
  2 17  1  6
  3 18  1  0
  3 19  1  0
  5 20  1  0
  6 21  1  0
  9 22  1  0
 10 23  1  0
M  CHG  2   1   1  13  -1
M  END
>  <meeko>  (9) 
{"is_sidechain": [false], "free_energy": -6.863, "intermolecular_energy": -8.539, "internal_energy": 0.072}

$$$$
