3cj4_ligand
     RDKit          3D

 47 48  0  0  0  0  0  0  0  0999 V2000
   -4.6100   13.0240   13.2820 C   0  0  0  0  0  0  0  0  0  0  0  0
   -5.2470   14.2150   13.9940 C   0  0  2  0  0  0  0  0  0  0  0  0
   -4.3360   15.4460   13.9160 C   0  0  0  0  0  0  0  0  0  0  0  0
   -4.9730   16.6240   14.6600 C   0  0  2  0  0  0  0  0  0  0  0  0
   -4.0640   17.8500   14.6110 C   0  0  0  0  0  0  0  0  0  0  0  0
   -5.2870   16.2390   16.1100 C   0  0  0  0  0  0  0  0  0  0  0  0
   -6.0830   15.0170   16.2020 N   0  0  0  0  0  0  0  0  0  0  0  0
   -6.8120   14.8580   17.3870 C   0  0  0  0  0  0  0  0  0  0  0  0
   -6.3570   14.4060   18.4360 O   0  0  0  0  0  0  0  0  0  0  0  0
   -8.1840   15.3980   17.4410 C   0  0  0  0  0  0  0  0  0  0  0  0
   -9.1710   14.5560   16.8960 C   0  0  0  0  0  0  0  0  0  0  0  0
  -10.4900   14.9860   16.8550 C   0  0  0  0  0  0  0  0  0  0  0  0
  -11.8270   13.8620   16.1350 Br  0  0  0  0  0  0  0  0  0  0  0  0
  -10.8270   16.2430   17.3410 C   0  0  0  0  0  0  0  0  0  0  0  0
   -9.8370   17.0790   17.8720 C   0  0  0  0  0  0  0  0  0  0  0  0
   -8.4930   16.6800   17.9340 C   0  0  0  0  0  0  0  0  0  0  0  0
   -7.4840   17.5120   18.4810 N   0  0  0  0  0  0  0  0  0  0  0  0
   -7.1700   18.8120   18.1280 C   0  0  0  0  0  0  0  0  0  0  0  0
   -7.7080   19.4730   17.2390 O   0  0  0  0  0  0  0  0  0  0  0  0
   -6.0280   19.4240   18.9280 C   0  0  0  0  0  0  0  0  0  0  0  0
   -4.8660   18.4610   19.1370 C   0  0  0  0  0  0  0  0  0  0  0  0
   -4.7520   17.9340   20.5610 C   0  0  0  0  0  0  0  0  0  0  0  0
   -5.6360   17.1050   20.9020 O   0  0  0  0  0  0  0  0  0  0  0  0
   -3.7630   18.3630   21.2210 O   0  0  0  0  0  0  0  0  0  0  0  0
   -5.5660   13.8670   15.4520 C   0  0  0  0  0  0  0  0  0  0  0  0
   -4.2289   12.3115   14.0284 H   0  0  0  0  0  0  0  0  0  0  0  0
   -5.3631   12.5276   12.6523 H   0  0  0  0  0  0  0  0  0  0  0  0
   -3.7791   13.3748   12.6523 H   0  0  0  0  0  0  0  0  0  0  0  0
   -6.1913   14.4553   13.4835 H   0  0  0  0  0  0  0  0  0  0  0  0
   -3.3648   15.2089   14.3749 H   0  0  0  0  0  0  0  0  0  0  0  0
   -4.1954   15.7220   12.8605 H   0  0  0  0  0  0  0  0  0  0  0  0
   -5.9180   16.8787   14.1580 H   0  0  0  0  0  0  0  0  0  0  0  0
   -3.8259   18.1711   15.6358 H   0  0  0  0  0  0  0  0  0  0  0  0
   -3.1342   17.5961   14.0810 H   0  0  0  0  0  0  0  0  0  0  0  0
   -4.5771   18.6659   14.0810 H   0  0  0  0  0  0  0  0  0  0  0  0
   -4.3398   16.0849   16.6476 H   0  0  0  0  0  0  0  0  0  0  0  0
   -5.8743   17.0561   16.5543 H   0  0  0  0  0  0  0  0  0  0  0  0
   -8.8992   13.5643   16.5053 H   0  0  0  0  0  0  0  0  0  0  0  0
  -11.8729   16.5821   17.3087 H   0  0  0  0  0  0  0  0  0  0  0  0
  -10.1197   18.0727   18.2497 H   0  0  0  0  0  0  0  0  0  0  0  0
   -6.9350   17.1420   19.2790 H   0  0  0  0  0  0  0  0  0  0  0  0
   -5.6576   20.3090   18.3899 H   0  0  0  0  0  0  0  0  0  0  0  0
   -6.4235   19.6837   19.9211 H   0  0  0  0  0  0  0  0  0  0  0  0
   -4.9997   17.6044   18.4600 H   0  0  0  0  0  0  0  0  0  0  0  0
   -3.9434   19.0228   18.9289 H   0  0  0  0  0  0  0  0  0  0  0  0
   -4.6461   13.5120   15.9397 H   0  0  0  0  0  0  0  0  0  0  0  0
   -6.3459   13.0913   15.4484 H   0  0  0  0  0  0  0  0  0  0  0  0
  1  2  1  0
  2  3  1  0
  3  4  1  0
  4  5  1  0
  4  6  1  0
  6  7  1  0
  7  8  1  0
  8  9  2  0
  8 10  1  0
 10 11  2  0
 11 12  1  0
 12 13  1  0
 12 14  2  0
 14 15  1  0
 15 16  2  0
 16 17  1  0
 17 18  1  0
 18 19  2  0
 18 20  1  0
 20 21  1  0
 21 22  1  0
 22 23  2  0
 22 24  1  0
  7 25  1  0
 25  2  1  0
 16 10  1  0
  1 26  1  0
  1 27  1  0
  1 28  1  0
  2 29  1  6
  3 30  1  0
  3 31  1  0
  4 32  1  6
  5 33  1  0
  5 34  1  0
  5 35  1  0
  6 36  1  0
  6 37  1  0
 11 38  1  0
 14 39  1  0
 15 40  1  0
 17 41  1  0
 20 42  1  0
 20 43  1  0
 21 44  1  0
 21 45  1  0
 25 46  1  0
 25 47  1  0
M  CHG  1  24  -1
M  END
>  <meeko>  (1) 
{"is_sidechain": [false], "free_energy": -7.226, "intermolecular_energy": -9.76, "internal_energy": -1.435}

$$$$
3cj4_ligand
     RDKit          3D

 47 48  0  0  0  0  0  0  0  0999 V2000
  -10.1020   10.7580    9.5490 C   0  0  0  0  0  0  0  0  0  0  0  0
   -8.8390    9.9190    9.3710 C   0  0  2  0  0  0  0  0  0  0  0  0
   -7.7580   10.3440   10.3710 C   0  0  0  0  0  0  0  0  0  0  0  0
   -6.4870    9.5150   10.1610 C   0  0  2  0  0  0  0  0  0  0  0  0
   -5.3930    9.9460   11.1360 C   0  0  0  0  0  0  0  0  0  0  0  0
   -6.0000    9.6340    8.7130 C   0  0  0  0  0  0  0  0  0  0  0  0
   -7.0470    9.3160    7.7450 N   0  0  0  0  0  0  0  0  0  0  0  0
   -6.6000    8.9240    6.4770 C   0  0  0  0  0  0  0  0  0  0  0  0
   -6.4920    7.7590    6.1000 O   0  0  0  0  0  0  0  0  0  0  0  0
   -6.3760    9.9700    5.4610 C   0  0  0  0  0  0  0  0  0  0  0  0
   -5.5990   11.0590    5.8970 C   0  0  0  0  0  0  0  0  0  0  0  0
   -5.3640   12.1210    5.0350 C   0  0  0  0  0  0  0  0  0  0  0  0
   -4.3140   13.5850    5.6040 Br  0  0  0  0  0  0  0  0  0  0  0  0
   -5.9030   12.1100    3.7550 C   0  0  0  0  0  0  0  0  0  0  0  0
   -6.6860   11.0270    3.3330 C   0  0  0  0  0  0  0  0  0  0  0  0
   -6.9430    9.9330    4.1730 C   0  0  0  0  0  0  0  0  0  0  0  0
   -7.7220    8.8260    3.7520 N   0  0  0  0  0  0  0  0  0  0  0  0
   -9.0890    8.7770    3.5490 C   0  0  0  0  0  0  0  0  0  0  0  0
   -9.8840    9.6990    3.7300 O   0  0  0  0  0  0  0  0  0  0  0  0
   -9.6080    7.4230    3.0840 C   0  0  0  0  0  0  0  0  0  0  0  0
   -9.4330    6.3280    4.1290 C   0  0  0  0  0  0  0  0  0  0  0  0
   -8.3490    5.3160    3.7850 C   0  0  0  0  0  0  0  0  0  0  0  0
   -8.2340    5.0440    2.5610 O   0  0  0  0  0  0  0  0  0  0  0  0
   -7.6670    4.8970    4.7640 O   0  0  0  0  0  0  0  0  0  0  0  0
   -8.3180   10.0230    7.9330 C   0  0  0  0  0  0  0  0  0  0  0  0
  -10.3046   10.8926   10.6218 H   0  0  0  0  0  0  0  0  0  0  0  0
   -9.9587   11.7411    9.0767 H   0  0  0  0  0  0  0  0  0  0  0  0
  -10.9527   10.2448    9.0767 H   0  0  0  0  0  0  0  0  0  0  0  0
   -9.0950    8.8678    9.5696 H   0  0  0  0  0  0  0  0  0  0  0  0
   -7.5255   11.4090   10.2238 H   0  0  0  0  0  0  0  0  0  0  0  0
   -8.1296   10.1782   11.3930 H   0  0  0  0  0  0  0  0  0  0  0  0
   -6.7263    8.4599   10.3596 H   0  0  0  0  0  0  0  0  0  0  0  0
   -5.7463    9.8068   12.1684 H   0  0  0  0  0  0  0  0  0  0  0  0
   -4.4932    9.3351   10.9709 H   0  0  0  0  0  0  0  0  0  0  0  0
   -5.1516   11.0064   10.9709 H   0  0  0  0  0  0  0  0  0  0  0  0
   -5.6592   10.6652    8.5386 H   0  0  0  0  0  0  0  0  0  0  0  0
   -5.1834    8.9103    8.5734 H   0  0  0  0  0  0  0  0  0  0  0  0
   -5.1806   11.0686    6.9143 H   0  0  0  0  0  0  0  0  0  0  0  0
   -5.7152   12.9517    3.0722 H   0  0  0  0  0  0  0  0  0  0  0  0
   -7.1096   11.0349    2.3179 H   0  0  0  0  0  0  0  0  0  0  0  0
   -7.2230    7.9500    3.5120 H   0  0  0  0  0  0  0  0  0  0  0  0
  -10.6791    7.5187    2.8525 H   0  0  0  0  0  0  0  0  0  0  0  0
   -9.0216    7.1314    2.2002 H   0  0  0  0  0  0  0  0  0  0  0  0
   -9.1733    6.8017    5.0872 H   0  0  0  0  0  0  0  0  0  0  0  0
  -10.3831    5.7755    4.1754 H   0  0  0  0  0  0  0  0  0  0  0  0
   -8.1710   11.0850    7.6867 H   0  0  0  0  0  0  0  0  0  0  0  0
   -9.0625    9.5546    7.2725 H   0  0  0  0  0  0  0  0  0  0  0  0
  1  2  1  0
  2  3  1  0
  3  4  1  0
  4  5  1  0
  4  6  1  0
  6  7  1  0
  7  8  1  0
  8  9  2  0
  8 10  1  0
 10 11  2  0
 11 12  1  0
 12 13  1  0
 12 14  2  0
 14 15  1  0
 15 16  2  0
 16 17  1  0
 17 18  1  0
 18 19  2  0
 18 20  1  0
 20 21  1  0
 21 22  1  0
 22 23  2  0
 22 24  1  0
  7 25  1  0
 25  2  1  0
 16 10  1  0
  1 26  1  0
  1 27  1  0
  1 28  1  0
  2 29  1  1
  3 30  1  0
  3 31  1  0
  4 32  1  1
  5 33  1  0
  5 34  1  0
  5 35  1  0
  6 36  1  0
  6 37  1  0
 11 38  1  0
 14 39  1  0
 15 40  1  0
 17 41  1  0
 20 42  1  0
 20 43  1  0
 21 44  1  0
 21 45  1  0
 25 46  1  0
 25 47  1  0
M  CHG  1  24  -1
M  END
>  <meeko>  (2) 
{"is_sidechain": [false], "free_energy": -7.193, "intermolecular_energy": -10.159, "internal_energy": -0.993}

$$$$
3cj4_ligand
     RDKit          3D

 47 48  0  0  0  0  0  0  0  0999 V2000
   -4.0780   17.6590   14.0910 C   0  0  0  0  0  0  0  0  0  0  0  0
   -4.2430   16.3440   14.8490 C   0  0  2  0  0  0  0  0  0  0  0  0
   -4.1560   15.1500   13.8930 C   0  0  0  0  0  0  0  0  0  0  0  0
   -4.3540   13.8400   14.6620 C   0  0  2  0  0  0  0  0  0  0  0  0
   -4.2930   12.6420   13.7160 C   0  0  0  0  0  0  0  0  0  0  0  0
   -5.6820   13.8600   15.4260 C   0  0  0  0  0  0  0  0  0  0  0  0
   -5.8170   15.0400   16.2770 N   0  0  0  0  0  0  0  0  0  0  0  0
   -6.7180   14.9170   17.3430 C   0  0  0  0  0  0  0  0  0  0  0  0
   -6.4500   14.4170   18.4340 O   0  0  0  0  0  0  0  0  0  0  0  0
   -8.0410   15.5560   17.2170 C   0  0  0  0  0  0  0  0  0  0  0  0
   -9.0200   14.7680   16.5850 C   0  0  0  0  0  0  0  0  0  0  0  0
  -10.2880   15.2890   16.3740 C   0  0  0  0  0  0  0  0  0  0  0  0
  -11.6140   14.2370   15.5350 Br  0  0  0  0  0  0  0  0  0  0  0  0
  -10.5830   16.5860   16.7770 C   0  0  0  0  0  0  0  0  0  0  0  0
   -9.5990   17.3690   17.3960 C   0  0  0  0  0  0  0  0  0  0  0  0
   -8.3060   16.8760   17.6300 C   0  0  0  0  0  0  0  0  0  0  0  0
   -7.3070   17.6540   18.2670 N   0  0  0  0  0  0  0  0  0  0  0  0
   -7.0050   18.9870   18.0550 C   0  0  0  0  0  0  0  0  0  0  0  0
   -7.5450   19.7350   17.2400 O   0  0  0  0  0  0  0  0  0  0  0  0
   -5.8710   19.5210   18.9210 C   0  0  0  0  0  0  0  0  0  0  0  0
   -4.7820   18.4870   19.1780 C   0  0  0  0  0  0  0  0  0  0  0  0
   -4.7370   17.9840   20.6140 C   0  0  0  0  0  0  0  0  0  0  0  0
   -5.5880   17.1020   20.9040 O   0  0  0  0  0  0  0  0  0  0  0  0
   -3.8270   18.4830   21.3370 O   0  0  0  0  0  0  0  0  0  0  0  0
   -5.5690   16.3270   15.6190 C   0  0  0  0  0  0  0  0  0  0  0  0
   -3.9743   18.4857   14.8092 H   0  0  0  0  0  0  0  0  0  0  0  0
   -3.1793   17.6076   13.4588 H   0  0  0  0  0  0  0  0  0  0  0  0
   -4.9616   17.8312   13.4588 H   0  0  0  0  0  0  0  0  0  0  0  0
   -3.4210   16.2608   15.5752 H   0  0  0  0  0  0  0  0  0  0  0  0
   -4.9380   15.2420   13.1249 H   0  0  0  0  0  0  0  0  0  0  0  0
   -3.1631   15.1413   13.4196 H   0  0  0  0  0  0  0  0  0  0  0  0
   -3.5366   13.7415   15.3916 H   0  0  0  0  0  0  0  0  0  0  0  0
   -4.2457   11.7131   14.3033 H   0  0  0  0  0  0  0  0  0  0  0  0
   -5.1917   12.6295   13.0818 H   0  0  0  0  0  0  0  0  0  0  0  0
   -3.3977   12.7208   13.0818 H   0  0  0  0  0  0  0  0  0  0  0  0
   -6.5078   13.8521   14.6994 H   0  0  0  0  0  0  0  0  0  0  0  0
   -5.7086   12.9729   16.0758 H   0  0  0  0  0  0  0  0  0  0  0  0
   -8.7813   13.7446   16.2600 H   0  0  0  0  0  0  0  0  0  0  0  0
  -11.5891   16.9982   16.6101 H   0  0  0  0  0  0  0  0  0  0  0  0
   -9.8462   18.3951   17.7060 H   0  0  0  0  0  0  0  0  0  0  0  0
   -6.7570   17.2070   19.0230 H   0  0  0  0  0  0  0  0  0  0  0  0
   -5.4200   20.3866   18.4137 H   0  0  0  0  0  0  0  0  0  0  0  0
   -6.3016   19.7952   19.8954 H   0  0  0  0  0  0  0  0  0  0  0  0
   -4.9573   17.6270   18.5149 H   0  0  0  0  0  0  0  0  0  0  0  0
   -3.8191   18.9813   18.9820 H   0  0  0  0  0  0  0  0  0  0  0  0
   -6.3894   16.5272   14.9141 H   0  0  0  0  0  0  0  0  0  0  0  0
   -5.5124   17.0982   16.4013 H   0  0  0  0  0  0  0  0  0  0  0  0
  1  2  1  0
  2  3  1  0
  3  4  1  0
  4  5  1  0
  4  6  1  0
  6  7  1  0
  7  8  1  0
  8  9  2  0
  8 10  1  0
 10 11  2  0
 11 12  1  0
 12 13  1  0
 12 14  2  0
 14 15  1  0
 15 16  2  0
 16 17  1  0
 17 18  1  0
 18 19  2  0
 18 20  1  0
 20 21  1  0
 21 22  1  0
 22 23  2  0
 22 24  1  0
  7 25  1  0
 25  2  1  0
 16 10  1  0
  1 26  1  0
  1 27  1  0
  1 28  1  0
  2 29  1  1
  3 30  1  0
  3 31  1  0
  4 32  1  1
  5 33  1  0
  5 34  1  0
  5 35  1  0
  6 36  1  0
  6 37  1  0
 11 38  1  0
 14 39  1  0
 15 40  1  0
 17 41  1  0
 20 42  1  0
 20 43  1  0
 21 44  1  0
 21 45  1  0
 25 46  1  0
 25 47  1  0
M  CHG  1  24  -1
M  END
>  <meeko>  (3) 
{"is_sidechain": [false], "free_energy": -7.122, "intermolecular_energy": -9.979, "internal_energy": -1.077}

$$$$
3cj4_ligand
     RDKit          3D

 47 48  0  0  0  0  0  0  0  0999 V2000
   -2.0610   17.1340   12.6340 C   0  0  0  0  0  0  0  0  0  0  0  0
   -2.7670   16.3660   13.7480 C   0  0  2  0  0  0  0  0  0  0  0  0
   -2.9040   14.8830   13.3840 C   0  0  0  0  0  0  0  0  0  0  0  0
   -3.6400   14.1300   14.4970 C   0  0  2  0  0  0  0  0  0  0  0  0
   -3.8060   12.6560   14.1350 C   0  0  0  0  0  0  0  0  0  0  0  0
   -5.0020   14.7770   14.7740 C   0  0  0  0  0  0  0  0  0  0  0  0
   -4.8960   16.2100   15.0370 N   0  0  0  0  0  0  0  0  0  0  0  0
   -5.9570   16.7730   15.7570 C   0  0  0  0  0  0  0  0  0  0  0  0
   -7.1140   16.8600   15.3490 O   0  0  0  0  0  0  0  0  0  0  0  0
   -5.7210   17.1650   17.1590 C   0  0  0  0  0  0  0  0  0  0  0  0
   -4.6110   18.0070   17.3570 C   0  0  0  0  0  0  0  0  0  0  0  0
   -4.2720   18.4000   18.6440 C   0  0  0  0  0  0  0  0  0  0  0  0
   -2.7900   19.5390   18.9230 Br  0  0  0  0  0  0  0  0  0  0  0  0
   -5.0180   17.9530   19.7270 C   0  0  0  0  0  0  0  0  0  0  0  0
   -6.1140   17.1060   19.5220 C   0  0  0  0  0  0  0  0  0  0  0  0
   -6.4920   16.6890   18.2370 C   0  0  0  0  0  0  0  0  0  0  0  0
   -7.6070   15.8430   18.0160 N   0  0  0  0  0  0  0  0  0  0  0  0
   -7.6080   14.4750   17.8110 C   0  0  0  0  0  0  0  0  0  0  0  0
   -6.6160   13.7470   17.7570 O   0  0  0  0  0  0  0  0  0  0  0  0
   -8.9920   13.8690   17.6130 C   0  0  0  0  0  0  0  0  0  0  0  0
   -9.9090   14.7430   16.7670 C   0  0  0  0  0  0  0  0  0  0  0  0
  -11.0450   15.3830   17.5510 C   0  0  0  0  0  0  0  0  0  0  0  0
  -10.7650   15.7150   18.7330 O   0  0  0  0  0  0  0  0  0  0  0  0
  -12.1250   15.5400   16.9120 O   0  0  0  0  0  0  0  0  0  0  0  0
   -4.1390   16.9810   14.0450 C   0  0  0  0  0  0  0  0  0  0  0  0
   -1.3791   17.8758   13.0752 H   0  0  0  0  0  0  0  0  0  0  0  0
   -1.4863   16.4320   12.0119 H   0  0  0  0  0  0  0  0  0  0  0  0
   -2.8088   17.6477   12.0119 H   0  0  0  0  0  0  0  0  0  0  0  0
   -2.1531   16.4398   14.6578 H   0  0  0  0  0  0  0  0  0  0  0  0
   -3.4712   14.7901   12.4461 H   0  0  0  0  0  0  0  0  0  0  0  0
   -1.9004   14.4498   13.2609 H   0  0  0  0  0  0  0  0  0  0  0  0
   -3.0349   14.1908   15.4136 H   0  0  0  0  0  0  0  0  0  0  0  0
   -3.8734   12.0577   15.0556 H   0  0  0  0  0  0  0  0  0  0  0  0
   -4.7246   12.5247   13.5443 H   0  0  0  0  0  0  0  0  0  0  0  0
   -2.9396   12.3237   13.5443 H   0  0  0  0  0  0  0  0  0  0  0  0
   -5.6494   14.6259   13.8976 H   0  0  0  0  0  0  0  0  0  0  0  0
   -5.4218   14.3018   15.6728 H   0  0  0  0  0  0  0  0  0  0  0  0
   -4.0164   18.3511   16.4979 H   0  0  0  0  0  0  0  0  0  0  0  0
   -4.7476   18.2647   20.7467 H   0  0  0  0  0  0  0  0  0  0  0  0
   -6.6932   16.7589   20.3904 H   0  0  0  0  0  0  0  0  0  0  0  0
   -8.5510   16.2680   18.0590 H   0  0  0  0  0  0  0  0  0  0  0  0
   -8.8800   12.8942   17.1157 H   0  0  0  0  0  0  0  0  0  0  0  0
   -9.4541   13.7724   18.6065 H   0  0  0  0  0  0  0  0  0  0  0  0
   -9.3050   15.5440   16.3159 H   0  0  0  0  0  0  0  0  0  0  0  0
  -10.3701   14.0872   16.0138 H   0  0  0  0  0  0  0  0  0  0  0  0
   -4.7184   17.0193   13.1107 H   0  0  0  0  0  0  0  0  0  0  0  0
   -3.9727   17.9866   14.4585 H   0  0  0  0  0  0  0  0  0  0  0  0
  1  2  1  0
  2  3  1  0
  3  4  1  0
  4  5  1  0
  4  6  1  0
  6  7  1  0
  7  8  1  0
  8  9  2  0
  8 10  1  0
 10 11  2  0
 11 12  1  0
 12 13  1  0
 12 14  2  0
 14 15  1  0
 15 16  2  0
 16 17  1  0
 17 18  1  0
 18 19  2  0
 18 20  1  0
 20 21  1  0
 21 22  1  0
 22 23  2  0
 22 24  1  0
  7 25  1  0
 25  2  1  0
 16 10  1  0
  1 26  1  0
  1 27  1  0
  1 28  1  0
  2 29  1  1
  3 30  1  0
  3 31  1  0
  4 32  1  1
  5 33  1  0
  5 34  1  0
  5 35  1  0
  6 36  1  0
  6 37  1  0
 11 38  1  0
 14 39  1  0
 15 40  1  0
 17 41  1  0
 20 42  1  0
 20 43  1  0
 21 44  1  0
 21 45  1  0
 25 46  1  0
 25 47  1  0
M  CHG  1  24  -1
M  END
>  <meeko>  (4) 
{"is_sidechain": [false], "free_energy": -7.03, "intermolecular_energy": -9.522, "internal_energy": -1.408}

$$$$
3cj4_ligand
     RDKit          3D

 47 48  0  0  0  0  0  0  0  0999 V2000
   -3.9380   13.5320    6.2980 C   0  0  0  0  0  0  0  0  0  0  0  0
   -5.0940   12.6320    5.8680 C   0  0  2  0  0  0  0  0  0  0  0  0
   -4.9710   11.2460    6.5100 C   0  0  0  0  0  0  0  0  0  0  0  0
   -6.1200   10.3440    6.0470 C   0  0  2  0  0  0  0  0  0  0  0  0
   -5.9950    8.9510    6.6600 C   0  0  0  0  0  0  0  0  0  0  0  0
   -6.1550   10.2610    4.5170 C   0  0  0  0  0  0  0  0  0  0  0  0
   -6.1840   11.5800    3.8880 N   0  0  0  0  0  0  0  0  0  0  0  0
   -6.6980   11.6170    2.5850 C   0  0  0  0  0  0  0  0  0  0  0  0
   -6.1940   11.0520    1.6160 O   0  0  0  0  0  0  0  0  0  0  0  0
   -8.0100   12.2550    2.3690 C   0  0  0  0  0  0  0  0  0  0  0  0
   -7.9710   13.6550    2.2350 C   0  0  0  0  0  0  0  0  0  0  0  0
   -9.1550   14.3600    2.0730 C   0  0  0  0  0  0  0  0  0  0  0  0
   -9.1160   16.2390    1.8830 Br  0  0  0  0  0  0  0  0  0  0  0  0
  -10.3690   13.6850    2.0540 C   0  0  0  0  0  0  0  0  0  0  0  0
  -10.4000   12.2920    2.1990 C   0  0  0  0  0  0  0  0  0  0  0  0
   -9.2250   11.5430    2.3620 C   0  0  0  0  0  0  0  0  0  0  0  0
   -9.2430   10.1320    2.4960 N   0  0  0  0  0  0  0  0  0  0  0  0
   -9.4460    9.3900    3.6450 C   0  0  0  0  0  0  0  0  0  0  0  0
   -9.6230    9.8390    4.7780 O   0  0  0  0  0  0  0  0  0  0  0  0
   -9.4110    7.8820    3.4360 C   0  0  0  0  0  0  0  0  0  0  0  0
   -8.3610    7.1870    4.2940 C   0  0  0  0  0  0  0  0  0  0  0  0
   -8.2400    5.6930    4.0280 C   0  0  0  0  0  0  0  0  0  0  0  0
   -7.8530    5.0010    5.0060 O   0  0  0  0  0  0  0  0  0  0  0  0
   -8.5770    5.3180    2.8680 O   0  0  0  0  0  0  0  0  0  0  0  0
   -5.1530   12.5200    4.3400 C   0  0  0  0  0  0  0  0  0  0  0  0
   -3.8909   13.5687    7.3964 H   0  0  0  0  0  0  0  0  0  0  0  0
   -2.9934   13.1292    5.9037 H   0  0  0  0  0  0  0  0  0  0  0  0
   -4.0969   14.5465    5.9037 H   0  0  0  0  0  0  0  0  0  0  0  0
   -6.0327   13.0879    6.2158 H   0  0  0  0  0  0  0  0  0  0  0  0
   -4.0126   10.7932    6.2160 H   0  0  0  0  0  0  0  0  0  0  0  0
   -5.0166   11.3520    7.6039 H   0  0  0  0  0  0  0  0  0  0  0  0
   -7.0664   10.7860    6.3918 H   0  0  0  0  0  0  0  0  0  0  0  0
   -6.0022    9.0312    7.7571 H   0  0  0  0  0  0  0  0  0  0  0  0
   -6.8409    8.3289    6.3323 H   0  0  0  0  0  0  0  0  0  0  0  0
   -5.0518    8.4895    6.3323 H   0  0  0  0  0  0  0  0  0  0  0  0
   -5.2589    9.7246    4.1717 H   0  0  0  0  0  0  0  0  0  0  0  0
   -7.0763    9.7326    4.2308 H   0  0  0  0  0  0  0  0  0  0  0  0
   -7.0085   14.1870    2.2585 H   0  0  0  0  0  0  0  0  0  0  0  0
  -11.3070   14.2449    1.9250 H   0  0  0  0  0  0  0  0  0  0  0  0
  -11.3696   11.7726    2.1847 H   0  0  0  0  0  0  0  0  0  0  0  0
   -9.1440    9.5650    1.6340 H   0  0  0  0  0  0  0  0  0  0  0  0
  -10.3991    7.4699    3.6887 H   0  0  0  0  0  0  0  0  0  0  0  0
   -9.1482    7.7014    2.3832 H   0  0  0  0  0  0  0  0  0  0  0  0
   -7.3855    7.6547    4.0948 H   0  0  0  0  0  0  0  0  0  0  0  0
   -8.6769    7.3011    5.3415 H   0  0  0  0  0  0  0  0  0  0  0  0
   -4.1751   12.1751    3.9730 H   0  0  0  0  0  0  0  0  0  0  0  0
   -5.4060   13.5131    3.9403 H   0  0  0  0  0  0  0  0  0  0  0  0
  1  2  1  0
  2  3  1  0
  3  4  1  0
  4  5  1  0
  4  6  1  0
  6  7  1  0
  7  8  1  0
  8  9  2  0
  8 10  1  0
 10 11  2  0
 11 12  1  0
 12 13  1  0
 12 14  2  0
 14 15  1  0
 15 16  2  0
 16 17  1  0
 17 18  1  0
 18 19  2  0
 18 20  1  0
 20 21  1  0
 21 22  1  0
 22 23  2  0
 22 24  1  0
  7 25  1  0
 25  2  1  0
 16 10  1  0
  1 26  1  0
  1 27  1  0
  1 28  1  0
  2 29  1  1
  3 30  1  0
  3 31  1  0
  4 32  1  1
  5 33  1  0
  5 34  1  0
  5 35  1  0
  6 36  1  0
  6 37  1  0
 11 38  1  0
 14 39  1  0
 15 40  1  0
 17 41  1  0
 20 42  1  0
 20 43  1  0
 21 44  1  0
 21 45  1  0
 25 46  1  0
 25 47  1  0
M  CHG  1  24  -1
M  END
>  <meeko>  (5) 
{"is_sidechain": [false], "free_energy": -7.013, "intermolecular_energy": -9.487, "internal_energy": -1.421}

$$$$
3cj4_ligand
     RDKit          3D

 47 48  0  0  0  0  0  0  0  0999 V2000
   -3.1740   17.3380   12.8040 C   0  0  0  0  0  0  0  0  0  0  0  0
   -3.4230   16.3090   13.9040 C   0  0  2  0  0  0  0  0  0  0  0  0
   -3.6000   14.9080   13.3080 C   0  0  0  0  0  0  0  0  0  0  0  0
   -3.8790   13.8910   14.4200 C   0  0  2  0  0  0  0  0  0  0  0  0
   -4.0820   12.4950   13.8370 C   0  0  0  0  0  0  0  0  0  0  0  0
   -5.0990   14.3170   15.2450 C   0  0  0  0  0  0  0  0  0  0  0  0
   -4.9820   15.6850   15.7470 N   0  0  0  0  0  0  0  0  0  0  0  0
   -5.7660   15.9860   16.8680 C   0  0  0  0  0  0  0  0  0  0  0  0
   -6.3230   15.1520   17.5790 O   0  0  0  0  0  0  0  0  0  0  0  0
   -5.8180   17.3870   17.3280 C   0  0  0  0  0  0  0  0  0  0  0  0
   -4.6010   17.8930   17.8190 C   0  0  0  0  0  0  0  0  0  0  0  0
   -4.5490   19.1860   18.3180 C   0  0  0  0  0  0  0  0  0  0  0  0
   -2.9180   19.8820   18.9710 Br  0  0  0  0  0  0  0  0  0  0  0  0
   -5.6960   19.9690   18.3430 C   0  0  0  0  0  0  0  0  0  0  0  0
   -6.9070   19.4530   17.8630 C   0  0  0  0  0  0  0  0  0  0  0  0
   -7.0000   18.1520   17.3460 C   0  0  0  0  0  0  0  0  0  0  0  0
   -8.2170   17.6250   16.8460 N   0  0  0  0  0  0  0  0  0  0  0  0
   -9.3470   17.2700   17.5600 C   0  0  0  0  0  0  0  0  0  0  0  0
   -9.4820   17.3290   18.7830 O   0  0  0  0  0  0  0  0  0  0  0  0
  -10.4910   16.7400   16.7060 C   0  0  0  0  0  0  0  0  0  0  0  0
  -10.9090   15.3250   17.0840 C   0  0  0  0  0  0  0  0  0  0  0  0
   -9.7620   14.3230   17.0800 C   0  0  0  0  0  0  0  0  0  0  0  0
   -9.5140   13.7830   18.1900 O   0  0  0  0  0  0  0  0  0  0  0  0
   -9.2200   14.1240   15.9550 O   0  0  0  0  0  0  0  0  0  0  0  0
   -4.6440   16.7000   14.7440 C   0  0  0  0  0  0  0  0  0  0  0  0
   -2.9385   18.3114   13.2590 H   0  0  0  0  0  0  0  0  0  0  0  0
   -2.3291   17.0108   12.1802 H   0  0  0  0  0  0  0  0  0  0  0  0
   -4.0750   17.4332   12.1802 H   0  0  0  0  0  0  0  0  0  0  0  0
   -2.5429   16.2913   14.5636 H   0  0  0  0  0  0  0  0  0  0  0  0
   -4.4447   14.9169   12.6035 H   0  0  0  0  0  0  0  0  0  0  0  0
   -2.6764   14.6219   12.7834 H   0  0  0  0  0  0  0  0  0  0  0  0
   -3.0047   13.8595   15.0868 H   0  0  0  0  0  0  0  0  0  0  0  0
   -4.1878   11.7677   14.6554 H   0  0  0  0  0  0  0  0  0  0  0  0
   -4.9911   12.4849   13.2177 H   0  0  0  0  0  0  0  0  0  0  0  0
   -3.2135   12.2264   13.2177 H   0  0  0  0  0  0  0  0  0  0  0  0
   -5.9954   14.2487   14.6112 H   0  0  0  0  0  0  0  0  0  0  0  0
   -5.1676   13.6456   16.1137 H   0  0  0  0  0  0  0  0  0  0  0  0
   -3.6964   17.2673   17.8073 H   0  0  0  0  0  0  0  0  0  0  0  0
   -5.6536   20.9941   18.7396 H   0  0  0  0  0  0  0  0  0  0  0  0
   -7.8076   20.0839   17.8922 H   0  0  0  0  0  0  0  0  0  0  0  0
   -8.3140   17.5310   15.8180 H   0  0  0  0  0  0  0  0  0  0  0  0
  -11.3577   17.4062   16.8284 H   0  0  0  0  0  0  0  0  0  0  0  0
  -10.1388   16.7121   15.6643 H   0  0  0  0  0  0  0  0  0  0  0  0
  -11.3440   15.3501   18.0940 H   0  0  0  0  0  0  0  0  0  0  0  0
  -11.6295   14.9900   16.3233 H   0  0  0  0  0  0  0  0  0  0  0  0
   -5.5055   16.8343   14.0734 H   0  0  0  0  0  0  0  0  0  0  0  0
   -4.3993   17.6301   15.2779 H   0  0  0  0  0  0  0  0  0  0  0  0
  1  2  1  0
  2  3  1  0
  3  4  1  0
  4  5  1  0
  4  6  1  0
  6  7  1  0
  7  8  1  0
  8  9  2  0
  8 10  1  0
 10 11  2  0
 11 12  1  0
 12 13  1  0
 12 14  2  0
 14 15  1  0
 15 16  2  0
 16 17  1  0
 17 18  1  0
 18 19  2  0
 18 20  1  0
 20 21  1  0
 21 22  1  0
 22 23  2  0
 22 24  1  0
  7 25  1  0
 25  2  1  0
 16 10  1  0
  1 26  1  0
  1 27  1  0
  1 28  1  0
  2 29  1  1
  3 30  1  0
  3 31  1  0
  4 32  1  1
  5 33  1  0
  5 34  1  0
  5 35  1  0
  6 36  1  0
  6 37  1  0
 11 38  1  0
 14 39  1  0
 15 40  1  0
 17 41  1  0
 20 42  1  0
 20 43  1  0
 21 44  1  0
 21 45  1  0
 25 46  1  0
 25 47  1  0
M  CHG  1  24  -1
M  END
>  <meeko>  (6) 
{"is_sidechain": [false], "free_energy": -6.996, "intermolecular_energy": -9.603, "internal_energy": -1.282}

$$$$
3cj4_ligand
     RDKit          3D

 47 48  0  0  0  0  0  0  0  0999 V2000
   -3.3230   17.3780   12.7190 C   0  0  0  0  0  0  0  0  0  0  0  0
   -3.5320   16.3820   13.8580 C   0  0  2  0  0  0  0  0  0  0  0  0
   -3.7050   14.9610   13.3120 C   0  0  0  0  0  0  0  0  0  0  0  0
   -3.9440   13.9770   14.4620 C   0  0  2  0  0  0  0  0  0  0  0  0
   -4.1430   12.5600   13.9290 C   0  0  0  0  0  0  0  0  0  0  0  0
   -5.1490   14.4140   15.3020 C   0  0  0  0  0  0  0  0  0  0  0  0
   -5.0380   15.7980   15.7570 N   0  0  0  0  0  0  0  0  0  0  0  0
   -5.7980   16.1260   16.8870 C   0  0  0  0  0  0  0  0  0  0  0  0
   -6.3810   15.3120   17.6010 O   0  0  0  0  0  0  0  0  0  0  0  0
   -5.7910   17.5260   17.3520 C   0  0  0  0  0  0  0  0  0  0  0  0
   -4.5480   17.9830   17.8300 C   0  0  0  0  0  0  0  0  0  0  0  0
   -4.4400   19.2710   18.3330 C   0  0  0  0  0  0  0  0  0  0  0  0
   -2.7760   19.9000   18.9680 Br  0  0  0  0  0  0  0  0  0  0  0  0
   -5.5560   20.0970   18.3740 C   0  0  0  0  0  0  0  0  0  0  0  0
   -6.7920   19.6310   17.9080 C   0  0  0  0  0  0  0  0  0  0  0  0
   -6.9410   18.3360   17.3880 C   0  0  0  0  0  0  0  0  0  0  0  0
   -8.1840   17.8580   16.9010 N   0  0  0  0  0  0  0  0  0  0  0  0
   -9.2600   17.3910   17.6320 C   0  0  0  0  0  0  0  0  0  0  0  0
   -9.3150   17.2830   18.8580 O   0  0  0  0  0  0  0  0  0  0  0  0
  -10.4540   16.9590   16.7900 C   0  0  0  0  0  0  0  0  0  0  0  0
  -10.4120   17.5110   15.3710 C   0  0  0  0  0  0  0  0  0  0  0  0
  -11.3880   18.6540   15.1250 C   0  0  0  0  0  0  0  0  0  0  0  0
  -11.9900   19.0770   16.1470 O   0  0  0  0  0  0  0  0  0  0  0  0
  -11.4520   19.0660   13.9320 O   0  0  0  0  0  0  0  0  0  0  0  0
   -4.7370   16.7850   14.7140 C   0  0  0  0  0  0  0  0  0  0  0  0
   -3.1140   18.3740   13.1366 H   0  0  0  0  0  0  0  0  0  0  0  0
   -2.4732   17.0542   12.1001 H   0  0  0  0  0  0  0  0  0  0  0  0
   -4.2312   17.4231   12.1001 H   0  0  0  0  0  0  0  0  0  0  0  0
   -2.6362   16.3965   14.4962 H   0  0  0  0  0  0  0  0  0  0  0  0
   -4.5664   14.9369   12.6284 H   0  0  0  0  0  0  0  0  0  0  0  0
   -2.7905   14.6694   12.7747 H   0  0  0  0  0  0  0  0  0  0  0  0
   -3.0534   13.9778   15.1077 H   0  0  0  0  0  0  0  0  0  0  0  0
   -4.2411   11.8612   14.7729 H   0  0  0  0  0  0  0  0  0  0  0  0
   -5.0550   12.5239   13.3151 H   0  0  0  0  0  0  0  0  0  0  0  0
   -3.2762   12.2741   13.3151 H   0  0  0  0  0  0  0  0  0  0  0  0
   -6.0593   14.3144   14.6925 H   0  0  0  0  0  0  0  0  0  0  0  0
   -5.1881   13.7701   16.1930 H   0  0  0  0  0  0  0  0  0  0  0  0
   -3.6684   17.3229   17.8047 H   0  0  0  0  0  0  0  0  0  0  0  0
   -5.4690   21.1184   18.7729 H   0  0  0  0  0  0  0  0  0  0  0  0
   -7.6671   20.2962   17.9507 H   0  0  0  0  0  0  0  0  0  0  0  0
   -8.3490   17.9010   15.8780 H   0  0  0  0  0  0  0  0  0  0  0  0
  -10.4675   15.8603   16.7385 H   0  0  0  0  0  0  0  0  0  0  0  0
  -11.3585   17.3585   17.2720 H   0  0  0  0  0  0  0  0  0  0  0  0
   -9.3937   17.8759   15.1712 H   0  0  0  0  0  0  0  0  0  0  0  0
  -10.7054   16.6902   14.7000 H   0  0  0  0  0  0  0  0  0  0  0  0
   -5.6159   16.8875   14.0605 H   0  0  0  0  0  0  0  0  0  0  0  0
   -4.4917   17.7346   15.2120 H   0  0  0  0  0  0  0  0  0  0  0  0
  1  2  1  0
  2  3  1  0
  3  4  1  0
  4  5  1  0
  4  6  1  0
  6  7  1  0
  7  8  1  0
  8  9  2  0
  8 10  1  0
 10 11  2  0
 11 12  1  0
 12 13  1  0
 12 14  2  0
 14 15  1  0
 15 16  2  0
 16 17  1  0
 17 18  1  0
 18 19  2  0
 18 20  1  0
 20 21  1  0
 21 22  1  0
 22 23  2  0
 22 24  1  0
  7 25  1  0
 25  2  1  0
 16 10  1  0
  1 26  1  0
  1 27  1  0
  1 28  1  0
  2 29  1  1
  3 30  1  0
  3 31  1  0
  4 32  1  1
  5 33  1  0
  5 34  1  0
  5 35  1  0
  6 36  1  0
  6 37  1  0
 11 38  1  0
 14 39  1  0
 15 40  1  0
 17 41  1  0
 20 42  1  0
 20 43  1  0
 21 44  1  0
 21 45  1  0
 25 46  1  0
 25 47  1  0
M  CHG  1  24  -1
M  END
>  <meeko>  (7) 
{"is_sidechain": [false], "free_energy": -6.914, "intermolecular_energy": -9.625, "internal_energy": -1.149}

$$$$
3cj4_ligand
     RDKit          3D

 47 48  0  0  0  0  0  0  0  0999 V2000
   -8.6820   13.6360    7.7690 C   0  0  0  0  0  0  0  0  0  0  0  0
   -8.1090   12.5100    6.9110 C   0  0  2  0  0  0  0  0  0  0  0  0
   -7.4290   11.4520    7.7860 C   0  0  0  0  0  0  0  0  0  0  0  0
   -6.8340   10.3440    6.9100 C   0  0  2  0  0  0  0  0  0  0  0  0
   -6.1300    9.2950    7.7690 C   0  0  0  0  0  0  0  0  0  0  0  0
   -5.8680   10.9350    5.8780 C   0  0  0  0  0  0  0  0  0  0  0  0
   -6.4770   12.0070    5.0940 N   0  0  0  0  0  0  0  0  0  0  0  0
   -5.8820   12.2620    3.8520 C   0  0  0  0  0  0  0  0  0  0  0  0
   -4.6700   12.3270    3.6550 O   0  0  0  0  0  0  0  0  0  0  0  0
   -6.7490   12.3180    2.6600 C   0  0  0  0  0  0  0  0  0  0  0  0
   -6.7290   13.5450    1.9720 C   0  0  0  0  0  0  0  0  0  0  0  0
   -7.5420   13.7210    0.8620 C   0  0  0  0  0  0  0  0  0  0  0  0
   -7.5170   15.3610   -0.0760 Br  0  0  0  0  0  0  0  0  0  0  0  0
   -8.3760   12.6930    0.4410 C   0  0  0  0  0  0  0  0  0  0  0  0
   -8.3990   11.4780    1.1380 C   0  0  0  0  0  0  0  0  0  0  0  0
   -7.5890   11.2600    2.2630 C   0  0  0  0  0  0  0  0  0  0  0  0
   -7.5940   10.0300    2.9680 N   0  0  0  0  0  0  0  0  0  0  0  0
   -8.6590    9.4200    3.6050 C   0  0  0  0  0  0  0  0  0  0  0  0
   -9.8040    9.8640    3.6940 O   0  0  0  0  0  0  0  0  0  0  0  0
   -8.3200    8.0890    4.2640 C   0  0  0  0  0  0  0  0  0  0  0  0
   -9.1380    6.9280    3.7130 C   0  0  0  0  0  0  0  0  0  0  0  0
   -8.4110    5.5910    3.7480 C   0  0  0  0  0  0  0  0  0  0  0  0
   -8.2560    5.0330    2.6300 O   0  0  0  0  0  0  0  0  0  0  0  0
   -8.0170    5.2160    4.8890 O   0  0  0  0  0  0  0  0  0  0  0  0
   -7.1300   13.0660    5.8710 C   0  0  0  0  0  0  0  0  0  0  0  0
   -8.5553   13.3871    8.8329 H   0  0  0  0  0  0  0  0  0  0  0  0
   -8.1512   14.5733    7.5460 H   0  0  0  0  0  0  0  0  0  0  0  0
   -9.7522   13.7586    7.5460 H   0  0  0  0  0  0  0  0  0  0  0  0
   -8.9411   12.0283    6.3765 H   0  0  0  0  0  0  0  0  0  0  0  0
   -6.6254   11.9249    8.3696 H   0  0  0  0  0  0  0  0  0  0  0  0
   -8.1758   11.0122    8.4633 H   0  0  0  0  0  0  0  0  0  0  0  0
   -7.6565    9.8503    6.3716 H   0  0  0  0  0  0  0  0  0  0  0  0
   -6.2860    9.5274    8.8328 H   0  0  0  0  0  0  0  0  0  0  0  0
   -6.5443    8.3006    7.5464 H   0  0  0  0  0  0  0  0  0  0  0  0
   -5.0528    9.3016    7.5464 H   0  0  0  0  0  0  0  0  0  0  0  0
   -4.9908   11.3378    6.4055 H   0  0  0  0  0  0  0  0  0  0  0  0
   -5.5864   10.1301    5.1831 H   0  0  0  0  0  0  0  0  0  0  0  0
   -6.0728   14.3597    2.3122 H   0  0  0  0  0  0  0  0  0  0  0  0
   -9.0190   12.8331   -0.4405 H   0  0  0  0  0  0  0  0  0  0  0  0
   -9.0683   10.6753    0.7951 H   0  0  0  0  0  0  0  0  0  0  0  0
   -6.7170    9.4780    2.9780 H   0  0  0  0  0  0  0  0  0  0  0  0
   -7.2536    7.8768    4.0977 H   0  0  0  0  0  0  0  0  0  0  0  0
   -8.5577    8.1811    5.3341 H   0  0  0  0  0  0  0  0  0  0  0  0
  -10.0577    6.8381    4.3098 H   0  0  0  0  0  0  0  0  0  0  0  0
   -9.3415    7.1537    2.6558 H   0  0  0  0  0  0  0  0  0  0  0  0
   -6.3566   13.6503    6.3911 H   0  0  0  0  0  0  0  0  0  0  0  0
   -7.7043   13.6899    5.1703 H   0  0  0  0  0  0  0  0  0  0  0  0
  1  2  1  0
  2  3  1  0
  3  4  1  0
  4  5  1  0
  4  6  1  0
  6  7  1  0
  7  8  1  0
  8  9  2  0
  8 10  1  0
 10 11  2  0
 11 12  1  0
 12 13  1  0
 12 14  2  0
 14 15  1  0
 15 16  2  0
 16 17  1  0
 17 18  1  0
 18 19  2  0
 18 20  1  0
 20 21  1  0
 21 22  1  0
 22 23  2  0
 22 24  1  0
  7 25  1  0
 25  2  1  0
 16 10  1  0
  1 26  1  0
  1 27  1  0
  1 28  1  0
  2 29  1  6
  3 30  1  0
  3 31  1  0
  4 32  1  6
  5 33  1  0
  5 34  1  0
  5 35  1  0
  6 36  1  0
  6 37  1  0
 11 38  1  0
 14 39  1  0
 15 40  1  0
 17 41  1  0
 20 42  1  0
 20 43  1  0
 21 44  1  0
 21 45  1  0
 25 46  1  0
 25 47  1  0
M  CHG  1  24  -1
M  END
>  <meeko>  (8) 
{"is_sidechain": [false], "free_energy": -6.89, "intermolecular_energy": -9.79, "internal_energy": -0.952}

$$$$
3cj4_ligand
     RDKit          3D

 47 48  0  0  0  0  0  0  0  0999 V2000
   -8.2170   16.0890    0.7650 C   0  0  0  0  0  0  0  0  0  0  0  0
   -7.9970   14.8560    1.6370 C   0  0  2  0  0  0  0  0  0  0  0  0
   -7.0570   13.8620    0.9470 C   0  0  0  0  0  0  0  0  0  0  0  0
   -6.8700   12.6160    1.8190 C   0  0  2  0  0  0  0  0  0  0  0  0
   -5.9540   11.6060    1.1310 C   0  0  0  0  0  0  0  0  0  0  0  0
   -8.2250   11.9820    2.1500 C   0  0  0  0  0  0  0  0  0  0  0  0
   -9.1630   12.9410    2.7300 N   0  0  0  0  0  0  0  0  0  0  0  0
  -10.2000   12.3890    3.4920 C   0  0  0  0  0  0  0  0  0  0  0  0
  -11.2690   11.9860    3.0350 O   0  0  0  0  0  0  0  0  0  0  0  0
   -9.9550   12.1310    4.9230 C   0  0  0  0  0  0  0  0  0  0  0  0
   -9.8620   13.2850    5.7230 C   0  0  0  0  0  0  0  0  0  0  0  0
   -9.5890   13.1580    7.0770 C   0  0  0  0  0  0  0  0  0  0  0  0
   -9.4710   14.6990    8.1650 Br  0  0  0  0  0  0  0  0  0  0  0  0
   -9.3970   11.9000    7.6340 C   0  0  0  0  0  0  0  0  0  0  0  0
   -9.4800   10.7570    6.8280 C   0  0  0  0  0  0  0  0  0  0  0  0
   -9.7580   10.8420    5.4560 C   0  0  0  0  0  0  0  0  0  0  0  0
   -9.8570    9.6920    4.6340 N   0  0  0  0  0  0  0  0  0  0  0  0
   -8.8280    8.9290    4.1120 C   0  0  0  0  0  0  0  0  0  0  0  0
   -7.6230    9.1400    4.2540 O   0  0  0  0  0  0  0  0  0  0  0  0
   -9.2860    7.7450    3.2700 C   0  0  0  0  0  0  0  0  0  0  0  0
   -9.4370    6.4630    4.0790 C   0  0  0  0  0  0  0  0  0  0  0  0
   -8.3530    5.4300    3.8030 C   0  0  0  0  0  0  0  0  0  0  0  0
   -8.1500    5.1730    2.5870 O   0  0  0  0  0  0  0  0  0  0  0  0
   -7.7600    4.9790    4.8250 O   0  0  0  0  0  0  0  0  0  0  0  0
   -9.3350   14.1900    1.9800 C   0  0  0  0  0  0  0  0  0  0  0  0
   -8.3739   16.9686    1.4066 H   0  0  0  0  0  0  0  0  0  0  0  0
   -7.3336   16.2513    0.1299 H   0  0  0  0  0  0  0  0  0  0  0  0
   -9.1020   15.9358    0.1299 H   0  0  0  0  0  0  0  0  0  0  0  0
   -7.5229   15.1795    2.5754 H   0  0  0  0  0  0  0  0  0  0  0  0
   -7.4881   13.5665   -0.0209 H   0  0  0  0  0  0  0  0  0  0  0  0
   -6.0791   14.3415    0.7926 H   0  0  0  0  0  0  0  0  0  0  0  0
   -6.3931   12.9232    2.7614 H   0  0  0  0  0  0  0  0  0  0  0  0
   -5.4202   11.0175    1.8917 H   0  0  0  0  0  0  0  0  0  0  0  0
   -6.5563   10.9332    0.5029 H   0  0  0  0  0  0  0  0  0  0  0  0
   -5.2257   12.1399    0.5029 H   0  0  0  0  0  0  0  0  0  0  0  0
   -8.6609   11.5772    1.2247 H   0  0  0  0  0  0  0  0  0  0  0  0
   -8.0518   11.1908    2.8943 H   0  0  0  0  0  0  0  0  0  0  0  0
  -10.0048   14.2807    5.2777 H   0  0  0  0  0  0  0  0  0  0  0  0
   -9.1798   11.8012    8.7078 H   0  0  0  0  0  0  0  0  0  0  0  0
   -9.3231    9.7678    7.2829 H   0  0  0  0  0  0  0  0  0  0  0  0
  -10.8050    9.3290    4.4250 H   0  0  0  0  0  0  0  0  0  0  0  0
  -10.2583    7.9912    2.8183 H   0  0  0  0  0  0  0  0  0  0  0  0
   -8.5135    7.5644    2.5080 H   0  0  0  0  0  0  0  0  0  0  0  0
   -9.4053    6.7217    5.1477 H   0  0  0  0  0  0  0  0  0  0  0  0
  -10.3944    6.0090    3.7835 H   0  0  0  0  0  0  0  0  0  0  0  0
   -9.8696   13.9692    1.0444 H   0  0  0  0  0  0  0  0  0  0  0  0
   -9.9028   14.8863    2.6146 H   0  0  0  0  0  0  0  0  0  0  0  0
  1  2  1  0
  2  3  1  0
  3  4  1  0
  4  5  1  0
  4  6  1  0
  6  7  1  0
  7  8  1  0
  8  9  2  0
  8 10  1  0
 10 11  2  0
 11 12  1  0
 12 13  1  0
 12 14  2  0
 14 15  1  0
 15 16  2  0
 16 17  1  0
 17 18  1  0
 18 19  2  0
 18 20  1  0
 20 21  1  0
 21 22  1  0
 22 23  2  0
 22 24  1  0
  7 25  1  0
 25  2  1  0
 16 10  1  0
  1 26  1  0
  1 27  1  0
  1 28  1  0
  2 29  1  1
  3 30  1  0
  3 31  1  0
  4 32  1  1
  5 33  1  0
  5 34  1  0
  5 35  1  0
  6 36  1  0
  6 37  1  0
 11 38  1  0
 14 39  1  0
 15 40  1  0
 17 41  1  0
 20 42  1  0
 20 43  1  0
 21 44  1  0
 21 45  1  0
 25 46  1  0
 25 47  1  0
M  CHG  1  24  -1
M  END
>  <meeko>  (9) 
{"is_sidechain": [false], "free_energy": -6.885, "intermolecular_energy": -9.399, "internal_energy": -1.337}

$$$$
