2qbp_ligand
     RDKit          3D

 60 63  0  0  0  0  0  0  0  0999 V2000
   48.2160   17.9320    5.0300 O   0  0  0  0  0  0  0  0  0  0  0  0
   47.0720   17.4690    4.7300 C   0  0  0  0  0  0  0  0  0  0  0  0
   45.9360   17.9420    5.0480 O   0  0  0  0  0  0  0  0  0  0  0  0
   47.0610   16.2240    3.8140 C   0  0  0  0  0  0  0  0  0  0  0  0
   45.7950   15.5230    3.8670 O   0  0  0  0  0  0  0  0  0  0  0  0
   45.5000   14.9470    2.6740 C   0  0  0  0  0  0  0  0  0  0  0  0
   44.7670   15.5470    1.6650 C   0  0  0  0  0  0  0  0  0  0  0  0
   44.1810   17.0260    1.6290 C   0  0  0  0  0  0  0  0  0  0  0  0
   44.9790   18.0060    1.7500 O   0  0  0  0  0  0  0  0  0  0  0  0
   42.9210   17.1300    1.4540 O   0  0  0  0  0  0  0  0  0  0  0  0
   44.5180   14.4570    0.3550 S   0  0  0  0  0  0  0  0  0  0  0  0
   45.4430   13.2200    1.0970 C   0  0  0  0  0  0  0  0  0  0  0  0
   45.5210   11.9010    0.4670 C   0  0  0  0  0  0  0  0  0  0  0  0
   44.3860   11.2470   -0.0210 C   0  0  0  0  0  0  0  0  0  0  0  0
   44.4990    9.9770   -0.5850 C   0  0  0  0  0  0  0  0  0  0  0  0
   45.7510    9.3630   -0.6740 C   0  0  0  0  0  0  0  0  0  0  0  0
   46.9100   10.0140   -0.2350 C   0  0  0  0  0  0  0  0  0  0  0  0
   48.1240    9.2940   -0.2720 N   0  0  0  0  0  0  0  0  0  0  0  0
   48.2580    8.1330    0.6450 C   0  0  0  0  0  0  0  0  0  0  0  0
   49.6430    7.5080    0.4110 C   0  0  0  0  0  0  0  0  0  0  0  0
   50.7060    8.2130    1.2390 C   0  0  0  0  0  0  0  0  0  0  0  0
   50.4320    8.1010    2.6980 N   0  0  0  0  0  0  0  0  0  0  0  0
   51.6080    7.3220    3.6550 S   0  0  0  0  0  0  0  0  0  0  0  0
   52.1570    8.3160    4.5560 O   0  0  0  0  0  0  0  0  0  0  0  0
   52.4580    6.5510    2.7690 O   0  0  0  0  0  0  0  0  0  0  0  0
   50.5710    6.1780    4.5790 C   0  0  0  0  0  0  0  0  0  0  0  0
   51.3240    4.8960    4.8220 C   0  0  0  0  0  0  0  0  0  0  0  0
   52.4220    4.8680    5.6940 C   0  0  0  0  0  0  0  0  0  0  0  0
   53.1190    3.6800    5.9170 C   0  0  0  0  0  0  0  0  0  0  0  0
   52.7300    2.5100    5.2690 C   0  0  0  0  0  0  0  0  0  0  0  0
   51.6450    2.5270    4.3940 C   0  0  0  0  0  0  0  0  0  0  0  0
   50.9460    3.7140    4.1700 C   0  0  0  0  0  0  0  0  0  0  0  0
   49.0150    7.7910    3.0410 C   0  0  0  0  0  0  0  0  0  0  0  0
   48.0840    8.5610    2.1130 C   0  0  0  0  0  0  0  0  0  0  0  0
   46.7720   11.2670    0.3690 C   0  0  0  0  0  0  0  0  0  0  0  0
   45.9780   13.6640    2.2860 C   0  0  0  0  0  0  0  0  0  0  0  0
   47.2080   12.6790    3.3500 Br  0  0  0  0  0  0  0  0  0  0  0  0
   47.2469   16.5436    2.7780 H   0  0  0  0  0  0  0  0  0  0  0  0
   47.8450   15.5368    4.1650 H   0  0  0  0  0  0  0  0  0  0  0  0
   43.4021   11.7352    0.0401 H   0  0  0  0  0  0  0  0  0  0  0  0
   43.6037    9.4590   -0.9594 H   0  0  0  0  0  0  0  0  0  0  0  0
   45.8273    8.3502   -1.0965 H   0  0  0  0  0  0  0  0  0  0  0  0
   48.1980    8.9600   -1.2350 H   0  0  0  0  0  0  0  0  0  0  0  0
   47.4695    7.3948    0.4366 H   0  0  0  0  0  0  0  0  0  0  0  0
   49.6111    6.4459    0.6956 H   0  0  0  0  0  0  0  0  0  0  0  0
   49.9002    7.6143   -0.6532 H   0  0  0  0  0  0  0  0  0  0  0  0
   51.6845    7.7587    1.0242 H   0  0  0  0  0  0  0  0  0  0  0  0
   50.6987    9.2795    0.9698 H   0  0  0  0  0  0  0  0  0  0  0  0
   50.2969    6.6299    5.5437 H   0  0  0  0  0  0  0  0  0  0  0  0
   49.6602    5.9625    4.0010 H   0  0  0  0  0  0  0  0  0  0  0  0
   52.7361    5.7895    6.2060 H   0  0  0  0  0  0  0  0  0  0  0  0
   53.9768    3.6674    6.6055 H   0  0  0  0  0  0  0  0  0  0  0  0
   53.2785    1.5734    5.4476 H   0  0  0  0  0  0  0  0  0  0  0  0
   51.3395    1.6040    3.8796 H   0  0  0  0  0  0  0  0  0  0  0  0
   50.0921    3.7221    3.4767 H   0  0  0  0  0  0  0  0  0  0  0  0
   48.8378    6.7117    2.9241 H   0  0  0  0  0  0  0  0  0  0  0  0
   48.8184    8.0859    4.0823 H   0  0  0  0  0  0  0  0  0  0  0  0
   47.0436    8.3743    2.4174 H   0  0  0  0  0  0  0  0  0  0  0  0
   48.3325    9.6298    2.1893 H   0  0  0  0  0  0  0  0  0  0  0  0
   47.6622   11.7682    0.7768 H   0  0  0  0  0  0  0  0  0  0  0  0
  1  2  2  0
  2  3  1  0
  2  4  1  0
  4  5  1  0
  5  6  1  0
  6  7  2  0
  7  8  1  0
  8  9  2  0
  8 10  1  0
  7 11  1  0
 11 12  1  0
 12 13  1  0
 13 14  2  0
 14 15  1  0
 15 16  2  0
 16 17  1  0
 17 18  1  0
 18 19  1  0
 19 20  1  0
 20 21  1  0
 21 22  1  0
 22 23  1  0
 23 24  2  0
 23 25  2  0
 23 26  1  0
 26 27  1  0
 27 28  2  0
 28 29  1  0
 29 30  2  0
 30 31  1  0
 31 32  2  0
 22 33  1  0
 33 34  1  0
 17 35  2  0
 12 36  2  0
 36 37  1  0
 36  6  1  0
 35 13  1  0
 34 19  1  0
 32 27  1  0
  4 38  1  0
  4 39  1  0
 14 40  1  0
 15 41  1  0
 16 42  1  0
 18 43  1  0
 19 44  1  0
 20 45  1  0
 20 46  1  0
 21 47  1  0
 21 48  1  0
 26 49  1  0
 26 50  1  0
 28 51  1  0
 29 52  1  0
 30 53  1  0
 31 54  1  0
 32 55  1  0
 33 56  1  0
 33 57  1  0
 34 58  1  0
 34 59  1  0
 35 60  1  0
M  CHG  2   3  -1  10  -1
M  END
>  <meeko>  (1) 
{"is_sidechain": [false], "free_energy": -8.592, "intermolecular_energy": -13.614, "internal_energy": -1.133}

$$$$
2qbp_ligand
     RDKit          3D

 60 63  0  0  0  0  0  0  0  0999 V2000
   45.6220   17.8870    4.9550 O   0  0  0  0  0  0  0  0  0  0  0  0
   46.7340   17.5430    4.4480 C   0  0  0  0  0  0  0  0  0  0  0  0
   47.8890   17.9910    4.7340 O   0  0  0  0  0  0  0  0  0  0  0  0
   46.6840   16.3970    3.4120 C   0  0  0  0  0  0  0  0  0  0  0  0
   45.4260   15.6820    3.4540 O   0  0  0  0  0  0  0  0  0  0  0  0
   45.2540   14.9220    2.3430 C   0  0  0  0  0  0  0  0  0  0  0  0
   44.5750   15.3230    1.2060 C   0  0  0  0  0  0  0  0  0  0  0  0
   43.9240   16.7440    0.9060 C   0  0  0  0  0  0  0  0  0  0  0  0
   44.0210   17.6610    1.7800 O   0  0  0  0  0  0  0  0  0  0  0  0
   43.3530   16.8750   -0.2270 O   0  0  0  0  0  0  0  0  0  0  0  0
   44.4830   14.0410    0.0600 S   0  0  0  0  0  0  0  0  0  0  0  0
   45.4050   12.9830    1.0420 C   0  0  0  0  0  0  0  0  0  0  0  0
   45.5960   11.5930    0.6250 C   0  0  0  0  0  0  0  0  0  0  0  0
   44.5390   10.8150    0.1430 C   0  0  0  0  0  0  0  0  0  0  0  0
   44.7550    9.4850   -0.2140 C   0  0  0  0  0  0  0  0  0  0  0  0
   46.0340    8.9330   -0.1030 C   0  0  0  0  0  0  0  0  0  0  0  0
   47.1200    9.7030    0.3330 C   0  0  0  0  0  0  0  0  0  0  0  0
   48.3610    9.0520    0.5070 N   0  0  0  0  0  0  0  0  0  0  0  0
   48.4490    8.0240    1.5750 C   0  0  0  0  0  0  0  0  0  0  0  0
   49.6750    7.1450    1.2800 C   0  0  0  0  0  0  0  0  0  0  0  0
   50.9410    7.7650    1.8500 C   0  0  0  0  0  0  0  0  0  0  0  0
   50.8670    7.9050    3.3310 N   0  0  0  0  0  0  0  0  0  0  0  0
   52.0380    7.0750    4.2510 S   0  0  0  0  0  0  0  0  0  0  0  0
   52.6630    8.0460    5.1270 O   0  0  0  0  0  0  0  0  0  0  0  0
   52.8190    6.2610    3.3420 O   0  0  0  0  0  0  0  0  0  0  0  0
   50.9800    5.9860    5.2170 C   0  0  0  0  0  0  0  0  0  0  0  0
   51.5610    4.5950    5.2270 C   0  0  0  0  0  0  0  0  0  0  0  0
   51.0530    3.6030    4.3760 C   0  0  0  0  0  0  0  0  0  0  0  0
   51.5920    2.3160    4.3870 C   0  0  0  0  0  0  0  0  0  0  0  0
   52.6410    2.0060    5.2510 C   0  0  0  0  0  0  0  0  0  0  0  0
   53.1480    2.9810    6.1060 C   0  0  0  0  0  0  0  0  0  0  0  0
   52.6110    4.2690    6.0960 C   0  0  0  0  0  0  0  0  0  0  0  0
   49.4840    7.8920    3.8870 C   0  0  0  0  0  0  0  0  0  0  0  0
   48.5560    8.6750    2.9660 C   0  0  0  0  0  0  0  0  0  0  0  0
   46.8750   11.0200    0.7290 C   0  0  0  0  0  0  0  0  0  0  0  0
   45.8220   13.6260    2.1870 C   0  0  0  0  0  0  0  0  0  0  0  0
   47.0110   12.8810    3.4700 Br  0  0  0  0  0  0  0  0  0  0  0  0
   46.8176   16.8216    2.4061 H   0  0  0  0  0  0  0  0  0  0  0  0
   47.4873   15.6854    3.6537 H   0  0  0  0  0  0  0  0  0  0  0  0
   43.5349   11.2534    0.0453 H   0  0  0  0  0  0  0  0  0  0  0  0
   43.9201    8.8709   -0.5825 H   0  0  0  0  0  0  0  0  0  0  0  0
   46.1907    7.8756   -0.3625 H   0  0  0  0  0  0  0  0  0  0  0  0
   48.5490    8.6060   -0.3930 H   0  0  0  0  0  0  0  0  0  0  0  0
   47.5362    7.4102    1.5836 H   0  0  0  0  0  0  0  0  0  0  0  0
   49.5244    6.1541    1.7332 H   0  0  0  0  0  0  0  0  0  0  0  0
   49.7886    7.0572    0.1894 H   0  0  0  0  0  0  0  0  0  0  0  0
   51.7979    7.1242    1.5948 H   0  0  0  0  0  0  0  0  0  0  0  0
   51.0567    8.7691    1.4159 H   0  0  0  0  0  0  0  0  0  0  0  0
   50.9122    6.3619    6.2486 H   0  0  0  0  0  0  0  0  0  0  0  0
   49.9761    5.9594    4.7682 H   0  0  0  0  0  0  0  0  0  0  0  0
   50.2231    3.8413    3.6944 H   0  0  0  0  0  0  0  0  0  0  0  0
   51.1888    1.5455    3.7134 H   0  0  0  0  0  0  0  0  0  0  0  0
   53.0678    0.9922    5.2573 H   0  0  0  0  0  0  0  0  0  0  0  0
   53.9733    2.7356    6.7906 H   0  0  0  0  0  0  0  0  0  0  0  0
   53.0149    5.0341    6.7753 H   0  0  0  0  0  0  0  0  0  0  0  0
   49.1307    6.8532    3.9658 H   0  0  0  0  0  0  0  0  0  0  0  0
   49.4865    8.3564    4.8842 H   0  0  0  0  0  0  0  0  0  0  0  0
   47.5544    8.7139    3.4190 H   0  0  0  0  0  0  0  0  0  0  0  0
   48.9721    9.6854    2.8397 H   0  0  0  0  0  0  0  0  0  0  0  0
   47.7025   11.6226    1.1316 H   0  0  0  0  0  0  0  0  0  0  0  0
  1  2  2  0
  2  3  1  0
  2  4  1  0
  4  5  1  0
  5  6  1  0
  6  7  2  0
  7  8  1  0
  8  9  2  0
  8 10  1  0
  7 11  1  0
 11 12  1  0
 12 13  1  0
 13 14  2  0
 14 15  1  0
 15 16  2  0
 16 17  1  0
 17 18  1  0
 18 19  1  0
 19 20  1  0
 20 21  1  0
 21 22  1  0
 22 23  1  0
 23 24  2  0
 23 25  2  0
 23 26  1  0
 26 27  1  0
 27 28  2  0
 28 29  1  0
 29 30  2  0
 30 31  1  0
 31 32  2  0
 22 33  1  0
 33 34  1  0
 17 35  2  0
 12 36  2  0
 36 37  1  0
 36  6  1  0
 35 13  1  0
 34 19  1  0
 32 27  1  0
  4 38  1  0
  4 39  1  0
 14 40  1  0
 15 41  1  0
 16 42  1  0
 18 43  1  0
 19 44  1  0
 20 45  1  0
 20 46  1  0
 21 47  1  0
 21 48  1  0
 26 49  1  0
 26 50  1  0
 28 51  1  0
 29 52  1  0
 30 53  1  0
 31 54  1  0
 32 55  1  0
 33 56  1  0
 33 57  1  0
 34 58  1  0
 34 59  1  0
 35 60  1  0
M  CHG  2   3  -1  10  -1
M  END
>  <meeko>  (2) 
{"is_sidechain": [false], "free_energy": -8.559, "intermolecular_energy": -13.856, "internal_energy": -0.841}

$$$$
2qbp_ligand
     RDKit          3D

 60 63  0  0  0  0  0  0  0  0999 V2000
   43.8940   18.5720    2.6230 O   0  0  0  0  0  0  0  0  0  0  0  0
   44.9320   17.9260    2.2850 C   0  0  0  0  0  0  0  0  0  0  0  0
   46.1340   18.1470    2.6360 O   0  0  0  0  0  0  0  0  0  0  0  0
   44.7000   16.6800    1.3990 C   0  0  0  0  0  0  0  0  0  0  0  0
   44.1470   15.5740    2.1510 O   0  0  0  0  0  0  0  0  0  0  0  0
   45.1140   14.6950    2.5190 C   0  0  0  0  0  0  0  0  0  0  0  0
   45.8270   14.7520    3.7030 C   0  0  0  0  0  0  0  0  0  0  0  0
   45.6400   15.7730    4.9090 C   0  0  0  0  0  0  0  0  0  0  0  0
   46.6710   16.2720    5.4570 O   0  0  0  0  0  0  0  0  0  0  0  0
   44.4370   16.0450    5.2370 O   0  0  0  0  0  0  0  0  0  0  0  0
   47.0350   13.5260    3.7530 S   0  0  0  0  0  0  0  0  0  0  0  0
   46.5620   12.8790    2.2380 C   0  0  0  0  0  0  0  0  0  0  0  0
   47.3450   11.7970    1.6390 C   0  0  0  0  0  0  0  0  0  0  0  0
   47.9030   11.9090    0.3620 C   0  0  0  0  0  0  0  0  0  0  0  0
   48.6140   10.8430   -0.1860 C   0  0  0  0  0  0  0  0  0  0  0  0
   48.7800    9.6660    0.5470 C   0  0  0  0  0  0  0  0  0  0  0  0
   48.2720    9.5440    1.8460 C   0  0  0  0  0  0  0  0  0  0  0  0
   48.3990    8.2930    2.4890 N   0  0  0  0  0  0  0  0  0  0  0  0
   49.2430    8.2340    3.7100 C   0  0  0  0  0  0  0  0  0  0  0  0
   48.7360    7.0690    4.5750 C   0  0  0  0  0  0  0  0  0  0  0  0
   49.3690    5.7550    4.1430 C   0  0  0  0  0  0  0  0  0  0  0  0
   50.8500    5.7800    4.2920 N   0  0  0  0  0  0  0  0  0  0  0  0
   51.5470    4.6340    5.3440 S   0  0  0  0  0  0  0  0  0  0  0  0
   51.0760    3.3280    4.9290 O   0  0  0  0  0  0  0  0  0  0  0  0
   51.3640    5.1100    6.7000 O   0  0  0  0  0  0  0  0  0  0  0  0
   53.2850    4.8120    4.9120 C   0  0  0  0  0  0  0  0  0  0  0  0
   53.5710    4.0570    3.6390 C   0  0  0  0  0  0  0  0  0  0  0  0
   53.9310    2.7030    3.6800 C   0  0  0  0  0  0  0  0  0  0  0  0
   54.1970    2.0050    2.5010 C   0  0  0  0  0  0  0  0  0  0  0  0
   54.1070    2.6530    1.2710 C   0  0  0  0  0  0  0  0  0  0  0  0
   53.7570    4.0010    1.2190 C   0  0  0  0  0  0  0  0  0  0  0  0
   53.4910    4.7000    2.3970 C   0  0  0  0  0  0  0  0  0  0  0  0
   51.4440    7.1460    4.3440 C   0  0  0  0  0  0  0  0  0  0  0  0
   50.7280    8.0530    3.3500 C   0  0  0  0  0  0  0  0  0  0  0  0
   47.5230   10.6050    2.3620 C   0  0  0  0  0  0  0  0  0  0  0  0
   45.4650   13.5520    1.7470 C   0  0  0  0  0  0  0  0  0  0  0  0
   44.5070   13.0550    0.1810 Br  0  0  0  0  0  0  0  0  0  0  0  0
   44.0019   16.9441    0.5910 H   0  0  0  0  0  0  0  0  0  0  0  0
   45.6737   16.3636    0.9968 H   0  0  0  0  0  0  0  0  0  0  0  0
   47.7806   12.8399   -0.2111 H   0  0  0  0  0  0  0  0  0  0  0  0
   49.0440   10.9286   -1.1949 H   0  0  0  0  0  0  0  0  0  0  0  0
   49.3193    8.8200    0.0960 H   0  0  0  0  0  0  0  0  0  0  0  0
   47.4430    8.0310    2.7390 H   0  0  0  0  0  0  0  0  0  0  0  0
   49.1671    9.1791    4.2676 H   0  0  0  0  0  0  0  0  0  0  0  0
   48.9926    7.2635    5.6268 H   0  0  0  0  0  0  0  0  0  0  0  0
   47.6456    6.9900    4.4531 H   0  0  0  0  0  0  0  0  0  0  0  0
   48.9623    4.9428    4.7634 H   0  0  0  0  0  0  0  0  0  0  0  0
   49.1347    5.5955    3.0801 H   0  0  0  0  0  0  0  0  0  0  0  0
   53.5185    5.8770    4.7660 H   0  0  0  0  0  0  0  0  0  0  0  0
   53.9061    4.4061    5.7241 H   0  0  0  0  0  0  0  0  0  0  0  0
   54.0044    2.1867    4.6485 H   0  0  0  0  0  0  0  0  0  0  0  0
   54.4779    0.9423    2.5430 H   0  0  0  0  0  0  0  0  0  0  0  0
   54.3120    2.1012    0.3418 H   0  0  0  0  0  0  0  0  0  0  0  0
   53.6904    4.5144    0.2484 H   0  0  0  0  0  0  0  0  0  0  0  0
   53.2164    5.7641    2.3500 H   0  0  0  0  0  0  0  0  0  0  0  0
   51.3327    7.5552    5.3590 H   0  0  0  0  0  0  0  0  0  0  0  0
   52.5115    7.0903    4.0845 H   0  0  0  0  0  0  0  0  0  0  0  0
   51.2173    9.0382    3.3503 H   0  0  0  0  0  0  0  0  0  0  0  0
   50.7847    7.5842    2.3565 H   0  0  0  0  0  0  0  0  0  0  0  0
   47.0626   10.5050    3.3560 H   0  0  0  0  0  0  0  0  0  0  0  0
  1  2  2  0
  2  3  1  0
  2  4  1  0
  4  5  1  0
  5  6  1  0
  6  7  2  0
  7  8  1  0
  8  9  2  0
  8 10  1  0
  7 11  1  0
 11 12  1  0
 12 13  1  0
 13 14  2  0
 14 15  1  0
 15 16  2  0
 16 17  1  0
 17 18  1  0
 18 19  1  0
 19 20  1  0
 20 21  1  0
 21 22  1  0
 22 23  1  0
 23 24  2  0
 23 25  2  0
 23 26  1  0
 26 27  1  0
 27 28  2  0
 28 29  1  0
 29 30  2  0
 30 31  1  0
 31 32  2  0
 22 33  1  0
 33 34  1  0
 17 35  2  0
 12 36  2  0
 36 37  1  0
 36  6  1  0
 35 13  1  0
 34 19  1  0
 32 27  1  0
  4 38  1  0
  4 39  1  0
 14 40  1  0
 15 41  1  0
 16 42  1  0
 18 43  1  0
 19 44  1  0
 20 45  1  0
 20 46  1  0
 21 47  1  0
 21 48  1  0
 26 49  1  0
 26 50  1  0
 28 51  1  0
 29 52  1  0
 30 53  1  0
 31 54  1  0
 32 55  1  0
 33 56  1  0
 33 57  1  0
 34 58  1  0
 34 59  1  0
 35 60  1  0
M  CHG  2   3  -1  10  -1
M  END
>  <meeko>  (3) 
{"is_sidechain": [false], "free_energy": -8.085, "intermolecular_energy": -12.695, "internal_energy": -1.249}

$$$$
2qbp_ligand
     RDKit          3D

 60 63  0  0  0  0  0  0  0  0999 V2000
   44.2350   17.1770   -2.3500 O   0  0  0  0  0  0  0  0  0  0  0  0
   43.6220   16.5840   -1.4100 C   0  0  0  0  0  0  0  0  0  0  0  0
   42.5630   15.8850   -1.4940 O   0  0  0  0  0  0  0  0  0  0  0  0
   44.2790   16.6610   -0.0130 C   0  0  0  0  0  0  0  0  0  0  0  0
   43.7180   15.6930    0.9050 O   0  0  0  0  0  0  0  0  0  0  0  0
   44.6900   14.9550    1.4990 C   0  0  0  0  0  0  0  0  0  0  0  0
   45.3000   15.2670    2.7000 C   0  0  0  0  0  0  0  0  0  0  0  0
   44.9700   16.4780    3.6780 C   0  0  0  0  0  0  0  0  0  0  0  0
   44.5340   16.2260    4.8440 O   0  0  0  0  0  0  0  0  0  0  0  0
   45.1910   17.6490    3.2210 O   0  0  0  0  0  0  0  0  0  0  0  0
   46.5540   14.1440    3.0640 S   0  0  0  0  0  0  0  0  0  0  0  0
   46.2370   13.2070    1.6650 C   0  0  0  0  0  0  0  0  0  0  0  0
   47.1130   12.0810    1.3360 C   0  0  0  0  0  0  0  0  0  0  0  0
   47.8690   12.0550    0.1600 C   0  0  0  0  0  0  0  0  0  0  0  0
   48.6660   10.9500   -0.1330 C   0  0  0  0  0  0  0  0  0  0  0  0
   48.7210    9.8740    0.7570 C   0  0  0  0  0  0  0  0  0  0  0  0
   48.0110    9.8960    1.9640 C   0  0  0  0  0  0  0  0  0  0  0  0
   48.0430    8.7350    2.7670 N   0  0  0  0  0  0  0  0  0  0  0  0
   49.0250    7.6810    2.4070 C   0  0  0  0  0  0  0  0  0  0  0  0
   50.3940    8.1060    2.9630 C   0  0  0  0  0  0  0  0  0  0  0  0
   50.5500    7.6760    4.4130 C   0  0  0  0  0  0  0  0  0  0  0  0
   50.4730    6.1970    4.5620 N   0  0  0  0  0  0  0  0  0  0  0  0
   51.8370    5.4070    5.2110 S   0  0  0  0  0  0  0  0  0  0  0  0
   51.5030    5.0140    6.5650 O   0  0  0  0  0  0  0  0  0  0  0  0
   52.9990    6.2240    4.9230 O   0  0  0  0  0  0  0  0  0  0  0  0
   51.8990    3.9480    4.1580 C   0  0  0  0  0  0  0  0  0  0  0  0
   53.0880    4.0410    3.2350 C   0  0  0  0  0  0  0  0  0  0  0  0
   53.0750    4.9200    2.1430 C   0  0  0  0  0  0  0  0  0  0  0  0
   54.1750    5.0030    1.2880 C   0  0  0  0  0  0  0  0  0  0  0  0
   55.2970    4.2090    1.5150 C   0  0  0  0  0  0  0  0  0  0  0  0
   55.3180    3.3260    2.5930 C   0  0  0  0  0  0  0  0  0  0  0  0
   54.2190    3.2420    3.4490 C   0  0  0  0  0  0  0  0  0  0  0  0
   49.7990    5.4950    3.4330 C   0  0  0  0  0  0  0  0  0  0  0  0
   48.6000    6.3110    2.9660 C   0  0  0  0  0  0  0  0  0  0  0  0
   47.1810   10.9910    2.2190 C   0  0  0  0  0  0  0  0  0  0  0  0
   45.1540   13.7120    0.9800 C   0  0  0  0  0  0  0  0  0  0  0  0
   44.3500   12.8840   -0.5310 Br  0  0  0  0  0  0  0  0  0  0  0  0
   45.3571   16.4686   -0.1167 H   0  0  0  0  0  0  0  0  0  0  0  0
   44.0910   17.6648    0.3956 H   0  0  0  0  0  0  0  0  0  0  0  0
   47.8346   12.9074   -0.5344 H   0  0  0  0  0  0  0  0  0  0  0  0
   49.2513   10.9248   -1.0640 H   0  0  0  0  0  0  0  0  0  0  0  0
   49.3323    8.9948    0.5053 H   0  0  0  0  0  0  0  0  0  0  0  0
   48.2590    9.0760    3.7070 H   0  0  0  0  0  0  0  0  0  0  0  0
   49.0781    7.5721    1.3137 H   0  0  0  0  0  0  0  0  0  0  0  0
   51.1875    7.6383    2.3617 H   0  0  0  0  0  0  0  0  0  0  0  0
   50.4680    9.2023    2.9125 H   0  0  0  0  0  0  0  0  0  0  0  0
   51.5266    8.0209    4.7836 H   0  0  0  0  0  0  0  0  0  0  0  0
   49.7277    8.1214    4.9922 H   0  0  0  0  0  0  0  0  0  0  0  0
   51.9909    3.0482    4.7841 H   0  0  0  0  0  0  0  0  0  0  0  0
   50.9768    3.8885    3.5613 H   0  0  0  0  0  0  0  0  0  0  0  0
   52.1915    5.5488    1.9587 H   0  0  0  0  0  0  0  0  0  0  0  0
   54.1560    5.6961    0.4340 H   0  0  0  0  0  0  0  0  0  0  0  0
   56.1657    4.2790    0.8438 H   0  0  0  0  0  0  0  0  0  0  0  0
   56.2015    2.6948    2.7693 H   0  0  0  0  0  0  0  0  0  0  0  0
   54.2408    2.5432    4.2982 H   0  0  0  0  0  0  0  0  0  0  0  0
   50.5079    5.3766    2.6002 H   0  0  0  0  0  0  0  0  0  0  0  0
   49.4579    4.5050    3.7701 H   0  0  0  0  0  0  0  0  0  0  0  0
   48.0740    5.7523    2.1779 H   0  0  0  0  0  0  0  0  0  0  0  0
   47.9446    6.4831    3.8325 H   0  0  0  0  0  0  0  0  0  0  0  0
   46.5672   10.9994    3.1318 H   0  0  0  0  0  0  0  0  0  0  0  0
  1  2  2  0
  2  3  1  0
  2  4  1  0
  4  5  1  0
  5  6  1  0
  6  7  2  0
  7  8  1  0
  8  9  2  0
  8 10  1  0
  7 11  1  0
 11 12  1  0
 12 13  1  0
 13 14  2  0
 14 15  1  0
 15 16  2  0
 16 17  1  0
 17 18  1  0
 18 19  1  0
 19 20  1  0
 20 21  1  0
 21 22  1  0
 22 23  1  0
 23 24  2  0
 23 25  2  0
 23 26  1  0
 26 27  1  0
 27 28  2  0
 28 29  1  0
 29 30  2  0
 30 31  1  0
 31 32  2  0
 22 33  1  0
 33 34  1  0
 17 35  2  0
 12 36  2  0
 36 37  1  0
 36  6  1  0
 35 13  1  0
 34 19  1  0
 32 27  1  0
  4 38  1  0
  4 39  1  0
 14 40  1  0
 15 41  1  0
 16 42  1  0
 18 43  1  0
 19 44  1  0
 20 45  1  0
 20 46  1  0
 21 47  1  0
 21 48  1  0
 26 49  1  0
 26 50  1  0
 28 51  1  0
 29 52  1  0
 30 53  1  0
 31 54  1  0
 32 55  1  0
 33 56  1  0
 33 57  1  0
 34 58  1  0
 34 59  1  0
 35 60  1  0
M  CHG  2   3  -1  10  -1
M  END
>  <meeko>  (4) 
{"is_sidechain": [false], "free_energy": -7.88, "intermolecular_energy": -12.444, "internal_energy": -1.177}

$$$$
2qbp_ligand
     RDKit          3D

 60 63  0  0  0  0  0  0  0  0999 V2000
   43.3990   16.6650   -4.0100 O   0  0  0  0  0  0  0  0  0  0  0  0
   42.4030   16.6500   -3.2230 C   0  0  0  0  0  0  0  0  0  0  0  0
   41.2140   17.0260   -3.4690 O   0  0  0  0  0  0  0  0  0  0  0  0
   42.6480   16.0380   -1.8250 C   0  0  0  0  0  0  0  0  0  0  0  0
   44.0600   15.9230   -1.5230 O   0  0  0  0  0  0  0  0  0  0  0  0
   44.2980   14.9030   -0.6610 C   0  0  0  0  0  0  0  0  0  0  0  0
   44.3780   15.0300    0.7150 C   0  0  0  0  0  0  0  0  0  0  0  0
   44.1420   16.3370    1.5910 C   0  0  0  0  0  0  0  0  0  0  0  0
   43.0930   17.0260    1.3970 O   0  0  0  0  0  0  0  0  0  0  0  0
   45.0340   16.5990    2.4650 O   0  0  0  0  0  0  0  0  0  0  0  0
   44.7990   13.5300    1.4480 S   0  0  0  0  0  0  0  0  0  0  0  0
   44.8030   12.7000   -0.0510 C   0  0  0  0  0  0  0  0  0  0  0  0
   45.2260   11.3000   -0.1020 C   0  0  0  0  0  0  0  0  0  0  0  0
   44.3370   10.2720   -0.4310 C   0  0  0  0  0  0  0  0  0  0  0  0
   44.7710    8.9480   -0.4360 C   0  0  0  0  0  0  0  0  0  0  0  0
   46.1000    8.6490   -0.1250 C   0  0  0  0  0  0  0  0  0  0  0  0
   47.0220    9.6630    0.1630 C   0  0  0  0  0  0  0  0  0  0  0  0
   48.3220    9.2780    0.5580 N   0  0  0  0  0  0  0  0  0  0  0  0
   48.4390    8.1570    1.5260 C   0  0  0  0  0  0  0  0  0  0  0  0
   49.7170    7.3750    1.1850 C   0  0  0  0  0  0  0  0  0  0  0  0
   50.9330    8.0010    1.8500 C   0  0  0  0  0  0  0  0  0  0  0  0
   50.8150    7.9940    3.3350 N   0  0  0  0  0  0  0  0  0  0  0  0
   52.0050    7.1420    4.2070 S   0  0  0  0  0  0  0  0  0  0  0  0
   52.6320    8.0840    5.1120 O   0  0  0  0  0  0  0  0  0  0  0  0
   52.7820    6.3710    3.2580 O   0  0  0  0  0  0  0  0  0  0  0  0
   50.9700    6.0050    5.1430 C   0  0  0  0  0  0  0  0  0  0  0  0
   51.5720    4.6240    5.1040 C   0  0  0  0  0  0  0  0  0  0  0  0
   51.1150    3.6730    4.1810 C   0  0  0  0  0  0  0  0  0  0  0  0
   51.6720    2.3940    4.1470 C   0  0  0  0  0  0  0  0  0  0  0  0
   52.6900    2.0520    5.0350 C   0  0  0  0  0  0  0  0  0  0  0  0
   53.1470    2.9870    5.9620 C   0  0  0  0  0  0  0  0  0  0  0  0
   52.5910    4.2660    5.9970 C   0  0  0  0  0  0  0  0  0  0  0  0
   49.4210    7.8570    3.8450 C   0  0  0  0  0  0  0  0  0  0  0  0
   48.4750    8.6760    2.9740 C   0  0  0  0  0  0  0  0  0  0  0  0
   46.5590   10.9800    0.2080 C   0  0  0  0  0  0  0  0  0  0  0  0
   44.4260   13.5460   -1.0720 C   0  0  0  0  0  0  0  0  0  0  0  0
   44.1290   13.0020   -2.8700 Br  0  0  0  0  0  0  0  0  0  0  0  0
   42.1741   16.6803   -1.0681 H   0  0  0  0  0  0  0  0  0  0  0  0
   42.2151   15.0268   -1.8161 H   0  0  0  0  0  0  0  0  0  0  0  0
   43.2936   10.5089   -0.6862 H   0  0  0  0  0  0  0  0  0  0  0  0
   44.0682    8.1391   -0.6845 H   0  0  0  0  0  0  0  0  0  0  0  0
   46.4277    7.5991   -0.1061 H   0  0  0  0  0  0  0  0  0  0  0  0
   48.7880    9.0080   -0.3120 H   0  0  0  0  0  0  0  0  0  0  0  0
   47.5615    7.4981    1.4495 H   0  0  0  0  0  0  0  0  0  0  0  0
   49.6088    6.3382    1.5363 H   0  0  0  0  0  0  0  0  0  0  0  0
   49.8624    7.3995    0.0949 H   0  0  0  0  0  0  0  0  0  0  0  0
   51.8292    7.4324    1.5611 H   0  0  0  0  0  0  0  0  0  0  0  0
   51.0048    9.0470    1.5172 H   0  0  0  0  0  0  0  0  0  0  0  0
   50.9030    6.3457    6.1867 H   0  0  0  0  0  0  0  0  0  0  0  0
   49.9639    5.9774    4.6992 H   0  0  0  0  0  0  0  0  0  0  0  0
   50.3111    3.9370    3.4781 H   0  0  0  0  0  0  0  0  0  0  0  0
   51.3071    1.6550    3.4185 H   0  0  0  0  0  0  0  0  0  0  0  0
   53.1323    1.0453    5.0044 H   0  0  0  0  0  0  0  0  0  0  0  0
   53.9469    2.7162    6.6668 H   0  0  0  0  0  0  0  0  0  0  0  0
   52.9554    4.9994    6.7314 H   0  0  0  0  0  0  0  0  0  0  0  0
   49.1225    6.7987    3.8149 H   0  0  0  0  0  0  0  0  0  0  0  0
   49.3733    8.2237    4.8810 H   0  0  0  0  0  0  0  0  0  0  0  0
   47.4616    8.6193    3.3980 H   0  0  0  0  0  0  0  0  0  0  0  0
   48.8384    9.7141    2.9565 H   0  0  0  0  0  0  0  0  0  0  0  0
   47.2530   11.7846    0.4924 H   0  0  0  0  0  0  0  0  0  0  0  0
  1  2  2  0
  2  3  1  0
  2  4  1  0
  4  5  1  0
  5  6  1  0
  6  7  2  0
  7  8  1  0
  8  9  2  0
  8 10  1  0
  7 11  1  0
 11 12  1  0
 12 13  1  0
 13 14  2  0
 14 15  1  0
 15 16  2  0
 16 17  1  0
 17 18  1  0
 18 19  1  0
 19 20  1  0
 20 21  1  0
 21 22  1  0
 22 23  1  0
 23 24  2  0
 23 25  2  0
 23 26  1  0
 26 27  1  0
 27 28  2  0
 28 29  1  0
 29 30  2  0
 30 31  1  0
 31 32  2  0
 22 33  1  0
 33 34  1  0
 17 35  2  0
 12 36  2  0
 36 37  1  0
 36  6  1  0
 35 13  1  0
 34 19  1  0
 32 27  1  0
  4 38  1  0
  4 39  1  0
 14 40  1  0
 15 41  1  0
 16 42  1  0
 18 43  1  0
 19 44  1  0
 20 45  1  0
 20 46  1  0
 21 47  1  0
 21 48  1  0
 26 49  1  0
 26 50  1  0
 28 51  1  0
 29 52  1  0
 30 53  1  0
 31 54  1  0
 32 55  1  0
 33 56  1  0
 33 57  1  0
 34 58  1  0
 34 59  1  0
 35 60  1  0
M  CHG  2   3  -1  10  -1
M  END
>  <meeko>  (5) 
{"is_sidechain": [false], "free_energy": -7.739, "intermolecular_energy": -12.142, "internal_energy": -1.254}

$$$$
2qbp_ligand
     RDKit          3D

 60 63  0  0  0  0  0  0  0  0999 V2000
   48.6220   17.9110    4.9190 O   0  0  0  0  0  0  0  0  0  0  0  0
   47.5060   17.3060    4.9190 C   0  0  0  0  0  0  0  0  0  0  0  0
   46.4550   17.6160    5.5630 O   0  0  0  0  0  0  0  0  0  0  0  0
   47.3910   16.0900    3.9710 C   0  0  0  0  0  0  0  0  0  0  0  0
   46.0920   15.4560    4.0570 O   0  0  0  0  0  0  0  0  0  0  0  0
   45.6630   15.0460    2.8370 C   0  0  0  0  0  0  0  0  0  0  0  0
   44.9400   15.8220    1.9480 C   0  0  0  0  0  0  0  0  0  0  0  0
   44.5200   17.3490    2.1020 C   0  0  0  0  0  0  0  0  0  0  0  0
   43.2970   17.6670    1.9730 O   0  0  0  0  0  0  0  0  0  0  0  0
   45.4610   18.1680    2.3720 O   0  0  0  0  0  0  0  0  0  0  0  0
   44.4930   14.9100    0.5570 S   0  0  0  0  0  0  0  0  0  0  0  0
   45.3190   13.5120    1.1030 C   0  0  0  0  0  0  0  0  0  0  0  0
   45.2130   12.2670    0.3410 C   0  0  0  0  0  0  0  0  0  0  0  0
   44.4700   11.1780    0.8070 C   0  0  0  0  0  0  0  0  0  0  0  0
   44.4210    9.9980    0.0670 C   0  0  0  0  0  0  0  0  0  0  0  0
   45.1020    9.9090   -1.1500 C   0  0  0  0  0  0  0  0  0  0  0  0
   45.8150   11.0000   -1.6620 C   0  0  0  0  0  0  0  0  0  0  0  0
   46.5530   10.8050   -2.8500 N   0  0  0  0  0  0  0  0  0  0  0  0
   47.6420    9.7950   -2.8200 C   0  0  0  0  0  0  0  0  0  0  0  0
   48.8830   10.4630   -2.2070 C   0  0  0  0  0  0  0  0  0  0  0  0
   48.8480   10.3880   -0.6880 C   0  0  0  0  0  0  0  0  0  0  0  0
   48.8430    8.9790   -0.2050 N   0  0  0  0  0  0  0  0  0  0  0  0
   50.1410    8.4890    0.7840 S   0  0  0  0  0  0  0  0  0  0  0  0
   51.1430    9.5350    0.7280 O   0  0  0  0  0  0  0  0  0  0  0  0
   50.4590    7.1160    0.4470 O   0  0  0  0  0  0  0  0  0  0  0  0
   49.3440    8.5030    2.3980 C   0  0  0  0  0  0  0  0  0  0  0  0
   50.0590    7.5520    3.3230 C   0  0  0  0  0  0  0  0  0  0  0  0
   51.3990    7.7700    3.6740 C   0  0  0  0  0  0  0  0  0  0  0  0
   52.0590    6.8870    4.5290 C   0  0  0  0  0  0  0  0  0  0  0  0
   51.3890    5.7770    5.0400 C   0  0  0  0  0  0  0  0  0  0  0  0
   50.0600    5.5460    4.6920 C   0  0  0  0  0  0  0  0  0  0  0  0
   49.3980    6.4280    3.8370 C   0  0  0  0  0  0  0  0  0  0  0  0
   48.3890    7.9800   -1.2140 C   0  0  0  0  0  0  0  0  0  0  0  0
   47.2250    8.5530   -2.0130 C   0  0  0  0  0  0  0  0  0  0  0  0
   45.8910   12.1590   -0.8850 C   0  0  0  0  0  0  0  0  0  0  0  0
   45.9720   13.7680    2.2890 C   0  0  0  0  0  0  0  0  0  0  0  0
   47.1490   12.5530    3.1570 Br  0  0  0  0  0  0  0  0  0  0  0  0
   47.5529   16.4291    2.9372 H   0  0  0  0  0  0  0  0  0  0  0  0
   48.1497   15.3522    4.2712 H   0  0  0  0  0  0  0  0  0  0  0  0
   43.9235   11.2527    1.7587 H   0  0  0  0  0  0  0  0  0  0  0  0
   43.8467    9.1374    0.4406 H   0  0  0  0  0  0  0  0  0  0  0  0
   45.0775    8.9658   -1.7154 H   0  0  0  0  0  0  0  0  0  0  0  0
   45.8590   10.5170   -3.5430 H   0  0  0  0  0  0  0  0  0  0  0  0
   47.8640    9.4479   -3.8399 H   0  0  0  0  0  0  0  0  0  0  0  0
   49.7850    9.9498   -2.5718 H   0  0  0  0  0  0  0  0  0  0  0  0
   48.8947   11.5217   -2.5055 H   0  0  0  0  0  0  0  0  0  0  0  0
   49.7348   10.8995   -0.2855 H   0  0  0  0  0  0  0  0  0  0  0  0
   47.9225   10.8718   -0.3425 H   0  0  0  0  0  0  0  0  0  0  0  0
   49.3827    9.5195    2.8166 H   0  0  0  0  0  0  0  0  0  0  0  0
   48.2953    8.1889    2.2904 H   0  0  0  0  0  0  0  0  0  0  0  0
   51.9336    8.6434    3.2723 H   0  0  0  0  0  0  0  0  0  0  0  0
   53.1097    7.0672    4.8002 H   0  0  0  0  0  0  0  0  0  0  0  0
   51.9091    5.0839    5.7175 H   0  0  0  0  0  0  0  0  0  0  0  0
   49.5320    4.6676    5.0915 H   0  0  0  0  0  0  0  0  0  0  0  0
   48.3491    6.2397    3.5643 H   0  0  0  0  0  0  0  0  0  0  0  0
   49.2198    7.7443   -1.8953 H   0  0  0  0  0  0  0  0  0  0  0  0
   48.0631    7.0638   -0.6998 H   0  0  0  0  0  0  0  0  0  0  0  0
   46.8574    7.7837   -2.7081 H   0  0  0  0  0  0  0  0  0  0  0  0
   46.4392    8.8538   -1.3044 H   0  0  0  0  0  0  0  0  0  0  0  0
   46.4954   13.0062   -1.2413 H   0  0  0  0  0  0  0  0  0  0  0  0
  1  2  2  0
  2  3  1  0
  2  4  1  0
  4  5  1  0
  5  6  1  0
  6  7  2  0
  7  8  1  0
  8  9  2  0
  8 10  1  0
  7 11  1  0
 11 12  1  0
 12 13  1  0
 13 14  2  0
 14 15  1  0
 15 16  2  0
 16 17  1  0
 17 18  1  0
 18 19  1  0
 19 20  1  0
 20 21  1  0
 21 22  1  0
 22 23  1  0
 23 24  2  0
 23 25  2  0
 23 26  1  0
 26 27  1  0
 27 28  2  0
 28 29  1  0
 29 30  2  0
 30 31  1  0
 31 32  2  0
 22 33  1  0
 33 34  1  0
 17 35  2  0
 12 36  2  0
 36 37  1  0
 36  6  1  0
 35 13  1  0
 34 19  1  0
 32 27  1  0
  4 38  1  0
  4 39  1  0
 14 40  1  0
 15 41  1  0
 16 42  1  0
 18 43  1  0
 19 44  1  0
 20 45  1  0
 20 46  1  0
 21 47  1  0
 21 48  1  0
 26 49  1  0
 26 50  1  0
 28 51  1  0
 29 52  1  0
 30 53  1  0
 31 54  1  0
 32 55  1  0
 33 56  1  0
 33 57  1  0
 34 58  1  0
 34 59  1  0
 35 60  1  0
M  CHG  2   3  -1  10  -1
M  END
>  <meeko>  (6) 
{"is_sidechain": [false], "free_energy": -7.65, "intermolecular_energy": -12.883, "internal_energy": -0.372}

$$$$
2qbp_ligand
     RDKit          3D

 60 63  0  0  0  0  0  0  0  0999 V2000
   52.1690    9.1590    4.5520 O   0  0  0  0  0  0  0  0  0  0  0  0
   51.7880    7.9790    4.2810 C   0  0  0  0  0  0  0  0  0  0  0  0
   52.1630    6.8960    4.8320 O   0  0  0  0  0  0  0  0  0  0  0  0
   50.6860    7.8500    3.2040 C   0  0  0  0  0  0  0  0  0  0  0  0
   50.8200    8.8530    2.1680 O   0  0  0  0  0  0  0  0  0  0  0  0
   50.0160    8.5780    1.1100 C   0  0  0  0  0  0  0  0  0  0  0  0
   50.3330    7.7140    0.0770 C   0  0  0  0  0  0  0  0  0  0  0  0
   51.6330    6.8080   -0.0760 C   0  0  0  0  0  0  0  0  0  0  0  0
   52.4110    7.0090   -1.0590 O   0  0  0  0  0  0  0  0  0  0  0  0
   51.8210    5.9340    0.8340 O   0  0  0  0  0  0  0  0  0  0  0  0
   49.1020    7.7160   -1.1270 S   0  0  0  0  0  0  0  0  0  0  0  0
   48.1200    8.8060   -0.2420 C   0  0  0  0  0  0  0  0  0  0  0  0
   46.8850    9.3150   -0.8410 C   0  0  0  0  0  0  0  0  0  0  0  0
   45.8120    8.4730   -1.1480 C   0  0  0  0  0  0  0  0  0  0  0  0
   44.6660    8.9920   -1.7480 C   0  0  0  0  0  0  0  0  0  0  0  0
   44.5840   10.3590   -2.0290 C   0  0  0  0  0  0  0  0  0  0  0  0
   45.6250   11.2320   -1.6890 C   0  0  0  0  0  0  0  0  0  0  0  0
   45.5090   12.5810   -2.0870 N   0  0  0  0  0  0  0  0  0  0  0  0
   44.3080   13.3280   -1.6330 C   0  0  0  0  0  0  0  0  0  0  0  0
   44.2470   13.2290   -0.1000 C   0  0  0  0  0  0  0  0  0  0  0  0
   45.0960   14.3100    0.5500 C   0  0  0  0  0  0  0  0  0  0  0  0
   44.6180   15.6750    0.1950 N   0  0  0  0  0  0  0  0  0  0  0  0
   44.1140   16.6820    1.4740 S   0  0  0  0  0  0  0  0  0  0  0  0
   42.6660   16.7430    1.4280 O   0  0  0  0  0  0  0  0  0  0  0  0
   44.9240   17.8820    1.4370 O   0  0  0  0  0  0  0  0  0  0  0  0
   44.6310   15.6950    2.8880 C   0  0  0  0  0  0  0  0  0  0  0  0
   45.8270   16.3390    3.5420 C   0  0  0  0  0  0  0  0  0  0  0  0
   47.1210   16.0940    3.0610 C   0  0  0  0  0  0  0  0  0  0  0  0
   48.2270   16.6890    3.6690 C   0  0  0  0  0  0  0  0  0  0  0  0
   48.0520   17.5310    4.7650 C   0  0  0  0  0  0  0  0  0  0  0  0
   46.7720   17.7760    5.2570 C   0  0  0  0  0  0  0  0  0  0  0  0
   45.6640   17.1820    4.6500 C   0  0  0  0  0  0  0  0  0  0  0  0
   43.7860   15.7380   -1.0410 C   0  0  0  0  0  0  0  0  0  0  0  0
   44.3600   14.7960   -2.0920 C   0  0  0  0  0  0  0  0  0  0  0  0
   46.7840   10.6870   -1.1300 C   0  0  0  0  0  0  0  0  0  0  0  0
   48.7000    9.1030    0.9720 C   0  0  0  0  0  0  0  0  0  0  0  0
   47.8730   10.1340    2.3390 Br  0  0  0  0  0  0  0  0  0  0  0  0
   50.7539    6.8531    2.7441 H   0  0  0  0  0  0  0  0  0  0  0  0
   49.7125    7.9963    3.6947 H   0  0  0  0  0  0  0  0  0  0  0  0
   45.8723    7.3995   -0.9157 H   0  0  0  0  0  0  0  0  0  0  0  0
   43.8270    8.3267   -2.0001 H   0  0  0  0  0  0  0  0  0  0  0  0
   43.6863   10.7558   -2.5257 H   0  0  0  0  0  0  0  0  0  0  0  0
   46.3420   13.0370   -1.7050 H   0  0  0  0  0  0  0  0  0  0  0  0
   43.4014   12.8913   -2.0772 H   0  0  0  0  0  0  0  0  0  0  0  0
   43.2032   13.3463    0.2268 H   0  0  0  0  0  0  0  0  0  0  0  0
   44.6378   12.2466    0.2036 H   0  0  0  0  0  0  0  0  0  0  0  0
   45.0509   14.1896    1.6425 H   0  0  0  0  0  0  0  0  0  0  0  0
   46.1274   14.2022    0.1832 H   0  0  0  0  0  0  0  0  0  0  0  0
   43.8060   15.6332    3.6130 H   0  0  0  0  0  0  0  0  0  0  0  0
   44.8994   14.6833    2.5497 H   0  0  0  0  0  0  0  0  0  0  0  0
   47.2654   15.4277    2.1978 H   0  0  0  0  0  0  0  0  0  0  0  0
   49.2381   16.4930    3.2826 H   0  0  0  0  0  0  0  0  0  0  0  0
   48.9242   18.0022    5.2417 H   0  0  0  0  0  0  0  0  0  0  0  0
   46.6342   18.4381    6.1246 H   0  0  0  0  0  0  0  0  0  0  0  0
   44.6557   17.3769    5.0441 H   0  0  0  0  0  0  0  0  0  0  0  0
   42.7548   15.4373   -0.8039 H   0  0  0  0  0  0  0  0  0  0  0  0
   43.7891   16.7664   -1.4314 H   0  0  0  0  0  0  0  0  0  0  0  0
   43.7777   14.8999   -3.0194 H   0  0  0  0  0  0  0  0  0  0  0  0
   45.4138   15.0663   -2.2545 H   0  0  0  0  0  0  0  0  0  0  0  0
   47.6367   11.3466   -0.9111 H   0  0  0  0  0  0  0  0  0  0  0  0
  1  2  2  0
  2  3  1  0
  2  4  1  0
  4  5  1  0
  5  6  1  0
  6  7  2  0
  7  8  1  0
  8  9  2  0
  8 10  1  0
  7 11  1  0
 11 12  1  0
 12 13  1  0
 13 14  2  0
 14 15  1  0
 15 16  2  0
 16 17  1  0
 17 18  1  0
 18 19  1  0
 19 20  1  0
 20 21  1  0
 21 22  1  0
 22 23  1  0
 23 24  2  0
 23 25  2  0
 23 26  1  0
 26 27  1  0
 27 28  2  0
 28 29  1  0
 29 30  2  0
 30 31  1  0
 31 32  2  0
 22 33  1  0
 33 34  1  0
 17 35  2  0
 12 36  2  0
 36 37  1  0
 36  6  1  0
 35 13  1  0
 34 19  1  0
 32 27  1  0
  4 38  1  0
  4 39  1  0
 14 40  1  0
 15 41  1  0
 16 42  1  0
 18 43  1  0
 19 44  1  0
 20 45  1  0
 20 46  1  0
 21 47  1  0
 21 48  1  0
 26 49  1  0
 26 50  1  0
 28 51  1  0
 29 52  1  0
 30 53  1  0
 31 54  1  0
 32 55  1  0
 33 56  1  0
 33 57  1  0
 34 58  1  0
 34 59  1  0
 35 60  1  0
M  CHG  2   3  -1  10  -1
M  END
>  <meeko>  (7) 
{"is_sidechain": [false], "free_energy": -7.577, "intermolecular_energy": -11.94, "internal_energy": -1.199}

$$$$
2qbp_ligand
     RDKit          3D

 60 63  0  0  0  0  0  0  0  0999 V2000
   51.2130    1.0530    6.5530 O   0  0  0  0  0  0  0  0  0  0  0  0
   50.1130    1.5640    6.1780 C   0  0  0  0  0  0  0  0  0  0  0  0
   49.0290    1.6420    6.8370 O   0  0  0  0  0  0  0  0  0  0  0  0
   50.1120    2.2310    4.7840 C   0  0  0  0  0  0  0  0  0  0  0  0
   49.6020    3.5850    4.8300 O   0  0  0  0  0  0  0  0  0  0  0  0
   50.4420    4.4500    4.2080 C   0  0  0  0  0  0  0  0  0  0  0  0
   51.5850    4.9890    4.7720 C   0  0  0  0  0  0  0  0  0  0  0  0
   52.2100    4.6770    6.2010 C   0  0  0  0  0  0  0  0  0  0  0  0
   51.4920    4.8440    7.2360 O   0  0  0  0  0  0  0  0  0  0  0  0
   53.4120    4.2500    6.2100 O   0  0  0  0  0  0  0  0  0  0  0  0
   52.3210    6.1230    3.7050 S   0  0  0  0  0  0  0  0  0  0  0  0
   51.1640    5.8440    2.4720 C   0  0  0  0  0  0  0  0  0  0  0  0
   51.1960    6.6550    1.2540 C   0  0  0  0  0  0  0  0  0  0  0  0
   51.7950    6.1970    0.0770 C   0  0  0  0  0  0  0  0  0  0  0  0
   51.8320    7.0140   -1.0520 C   0  0  0  0  0  0  0  0  0  0  0  0
   51.2570    8.2870   -1.0100 C   0  0  0  0  0  0  0  0  0  0  0  0
   50.6100    8.7520    0.1410 C   0  0  0  0  0  0  0  0  0  0  0  0
   50.1360   10.0820    0.1380 N   0  0  0  0  0  0  0  0  0  0  0  0
   48.7120   10.2990   -0.2240 C   0  0  0  0  0  0  0  0  0  0  0  0
   47.8530    9.8800    0.9810 C   0  0  0  0  0  0  0  0  0  0  0  0
   47.7160   11.0220    1.9760 C   0  0  0  0  0  0  0  0  0  0  0  0
   47.0460   12.2050    1.3690 N   0  0  0  0  0  0  0  0  0  0  0  0
   45.5830   12.7200    2.0760 S   0  0  0  0  0  0  0  0  0  0  0  0
   45.7550   12.6560    3.5140 O   0  0  0  0  0  0  0  0  0  0  0  0
   44.5010   12.0230    1.4110 O   0  0  0  0  0  0  0  0  0  0  0  0
   45.5550   14.4400    1.5480 C   0  0  0  0  0  0  0  0  0  0  0  0
   45.8510   15.3350    2.7250 C   0  0  0  0  0  0  0  0  0  0  0  0
   44.8070   15.9320    3.4460 C   0  0  0  0  0  0  0  0  0  0  0  0
   45.0820   16.7620    4.5340 C   0  0  0  0  0  0  0  0  0  0  0  0
   46.4020   17.0050    4.9110 C   0  0  0  0  0  0  0  0  0  0  0  0
   47.4470   16.4230    4.1960 C   0  0  0  0  0  0  0  0  0  0  0  0
   47.1740   15.5930    3.1080 C   0  0  0  0  0  0  0  0  0  0  0  0
   47.0890   12.2460   -0.1210 C   0  0  0  0  0  0  0  0  0  0  0  0
   48.4530   11.7670   -0.6050 C   0  0  0  0  0  0  0  0  0  0  0  0
   50.6230    7.9380    1.2770 C   0  0  0  0  0  0  0  0  0  0  0  0
   50.2800    4.8580    2.8530 C   0  0  0  0  0  0  0  0  0  0  0  0
   48.9440    4.1120    1.7250 Br  0  0  0  0  0  0  0  0  0  0  0  0
   51.1426    2.2528    4.4002 H   0  0  0  0  0  0  0  0  0  0  0  0
   49.4545    1.6429    4.1269 H   0  0  0  0  0  0  0  0  0  0  0  0
   52.2377    5.1907    0.0416 H   0  0  0  0  0  0  0  0  0  0  0  0
   52.3131    6.6571   -1.9746 H   0  0  0  0  0  0  0  0  0  0  0  0
   51.3138    8.9351   -1.8970 H   0  0  0  0  0  0  0  0  0  0  0  0
   50.2850   10.4130    1.0940 H   0  0  0  0  0  0  0  0  0  0  0  0
   48.4500    9.6940   -1.1046 H   0  0  0  0  0  0  0  0  0  0  0  0
   46.8529    9.5899    0.6264 H   0  0  0  0  0  0  0  0  0  0  0  0
   48.3439    9.0339    1.4841 H   0  0  0  0  0  0  0  0  0  0  0  0
   47.1211   10.6771    2.8345 H   0  0  0  0  0  0  0  0  0  0  0  0
   48.7255   11.3245    2.2914 H   0  0  0  0  0  0  0  0  0  0  0  0
   46.3156   14.5962    0.7688 H   0  0  0  0  0  0  0  0  0  0  0  0
   44.5605   14.6826    1.1455 H   0  0  0  0  0  0  0  0  0  0  0  0
   43.7637   15.7449    3.1520 H   0  0  0  0  0  0  0  0  0  0  0  0
   44.2564   17.2248    5.0945 H   0  0  0  0  0  0  0  0  0  0  0  0
   46.6183   17.6551    5.7715 H   0  0  0  0  0  0  0  0  0  0  0  0
   48.4889   16.6182    4.4898 H   0  0  0  0  0  0  0  0  0  0  0  0
   48.0035   15.1379    2.5469 H   0  0  0  0  0  0  0  0  0  0  0  0
   46.3049   11.5908   -0.5283 H   0  0  0  0  0  0  0  0  0  0  0  0
   46.9206   13.2776   -0.4638 H   0  0  0  0  0  0  0  0  0  0  0  0
   48.4962   11.8635   -1.6999 H   0  0  0  0  0  0  0  0  0  0  0  0
   49.2235   12.3862   -0.1225 H   0  0  0  0  0  0  0  0  0  0  0  0
   50.1747    8.3099    2.2101 H   0  0  0  0  0  0  0  0  0  0  0  0
  1  2  2  0
  2  3  1  0
  2  4  1  0
  4  5  1  0
  5  6  1  0
  6  7  2  0
  7  8  1  0
  8  9  2  0
  8 10  1  0
  7 11  1  0
 11 12  1  0
 12 13  1  0
 13 14  2  0
 14 15  1  0
 15 16  2  0
 16 17  1  0
 17 18  1  0
 18 19  1  0
 19 20  1  0
 20 21  1  0
 21 22  1  0
 22 23  1  0
 23 24  2  0
 23 25  2  0
 23 26  1  0
 26 27  1  0
 27 28  2  0
 28 29  1  0
 29 30  2  0
 30 31  1  0
 31 32  2  0
 22 33  1  0
 33 34  1  0
 17 35  2  0
 12 36  2  0
 36 37  1  0
 36  6  1  0
 35 13  1  0
 34 19  1  0
 32 27  1  0
  4 38  1  0
  4 39  1  0
 14 40  1  0
 15 41  1  0
 16 42  1  0
 18 43  1  0
 19 44  1  0
 20 45  1  0
 20 46  1  0
 21 47  1  0
 21 48  1  0
 26 49  1  0
 26 50  1  0
 28 51  1  0
 29 52  1  0
 30 53  1  0
 31 54  1  0
 32 55  1  0
 33 56  1  0
 33 57  1  0
 34 58  1  0
 34 59  1  0
 35 60  1  0
M  CHG  2   3  -1  10  -1
M  END
>  <meeko>  (8) 
{"is_sidechain": [false], "free_energy": -7.518, "intermolecular_energy": -11.778, "internal_energy": -1.268}

$$$$
2qbp_ligand
     RDKit          3D

 60 63  0  0  0  0  0  0  0  0999 V2000
   39.9820   10.5090   -5.1090 O   0  0  0  0  0  0  0  0  0  0  0  0
   40.0830   11.1790   -4.0360 C   0  0  0  0  0  0  0  0  0  0  0  0
   39.1890   11.3690   -3.1520 O   0  0  0  0  0  0  0  0  0  0  0  0
   41.4760   11.7760   -3.7350 C   0  0  0  0  0  0  0  0  0  0  0  0
   42.5450   10.8710   -4.1000 O   0  0  0  0  0  0  0  0  0  0  0  0
   43.1120   10.3090   -3.0020 C   0  0  0  0  0  0  0  0  0  0  0  0
   42.8790    9.0180   -2.5630 C   0  0  0  0  0  0  0  0  0  0  0  0
   41.9850    7.8970   -3.2540 C   0  0  0  0  0  0  0  0  0  0  0  0
   42.5570    6.9740   -3.9130 O   0  0  0  0  0  0  0  0  0  0  0  0
   40.7250    7.9910   -3.0760 O   0  0  0  0  0  0  0  0  0  0  0  0
   43.6990    8.7150   -1.0800 S   0  0  0  0  0  0  0  0  0  0  0  0
   44.4190   10.2690   -1.0610 C   0  0  0  0  0  0  0  0  0  0  0  0
   45.2110   10.6850    0.0970 C   0  0  0  0  0  0  0  0  0  0  0  0
   44.8220   11.7520    0.9120 C   0  0  0  0  0  0  0  0  0  0  0  0
   45.6210   12.1380    1.9870 C   0  0  0  0  0  0  0  0  0  0  0  0
   46.8050   11.4470    2.2580 C   0  0  0  0  0  0  0  0  0  0  0  0
   47.1940   10.3460    1.4870 C   0  0  0  0  0  0  0  0  0  0  0  0
   48.4480    9.7570    1.7630 N   0  0  0  0  0  0  0  0  0  0  0  0
   48.4850    8.2840    1.9520 C   0  0  0  0  0  0  0  0  0  0  0  0
   49.9050    7.8040    1.6160 C   0  0  0  0  0  0  0  0  0  0  0  0
   50.8220    7.9250    2.8230 C   0  0  0  0  0  0  0  0  0  0  0  0
   50.3500    7.0880    3.9610 N   0  0  0  0  0  0  0  0  0  0  0  0
   51.4020    5.8700    4.5210 S   0  0  0  0  0  0  0  0  0  0  0  0
   52.4630    6.5240    5.2600 O   0  0  0  0  0  0  0  0  0  0  0  0
   51.6880    4.9870    3.4080 O   0  0  0  0  0  0  0  0  0  0  0  0
   50.3160    5.0030    5.6650 C   0  0  0  0  0  0  0  0  0  0  0  0
   50.8250    3.6010    5.8810 C   0  0  0  0  0  0  0  0  0  0  0  0
   51.9760    3.3710    6.6490 C   0  0  0  0  0  0  0  0  0  0  0  0
   52.4470    2.0720    6.8460 C   0  0  0  0  0  0  0  0  0  0  0  0
   51.7750    0.9920    6.2780 C   0  0  0  0  0  0  0  0  0  0  0  0
   50.6350    1.2090    5.5080 C   0  0  0  0  0  0  0  0  0  0  0  0
   50.1620    2.5070    5.3090 C   0  0  0  0  0  0  0  0  0  0  0  0
   48.9080    6.7150    3.8990 C   0  0  0  0  0  0  0  0  0  0  0  0
   48.0950    7.8990    3.3910 C   0  0  0  0  0  0  0  0  0  0  0  0
   46.4050   10.0020    0.3860 C   0  0  0  0  0  0  0  0  0  0  0  0
   44.0850   10.9700   -2.1990 C   0  0  0  0  0  0  0  0  0  0  0  0
   44.8010   12.6670   -2.6710 Br  0  0  0  0  0  0  0  0  0  0  0  0
   41.5922   12.7104   -4.3037 H   0  0  0  0  0  0  0  0  0  0  0  0
   41.5404   11.9582   -2.6521 H   0  0  0  0  0  0  0  0  0  0  0  0
   43.8840   12.2878    0.7047 H   0  0  0  0  0  0  0  0  0  0  0  0
   45.3200   12.9851    2.6209 H   0  0  0  0  0  0  0  0  0  0  0  0
   47.4426   11.7745    3.0924 H   0  0  0  0  0  0  0  0  0  0  0  0
   49.0310    9.9980    0.9580 H   0  0  0  0  0  0  0  0  0  0  0  0
   47.7550    7.7993    1.2871 H   0  0  0  0  0  0  0  0  0  0  0  0
   49.8633    6.7511    1.3002 H   0  0  0  0  0  0  0  0  0  0  0  0
   50.3053    8.4337    0.8077 H   0  0  0  0  0  0  0  0  0  0  0  0
   51.8329    7.5994    2.5365 H   0  0  0  0  0  0  0  0  0  0  0  0
   50.8231    8.9758    3.1482 H   0  0  0  0  0  0  0  0  0  0  0  0
   50.2955    5.5372    6.6264 H   0  0  0  0  0  0  0  0  0  0  0  0
   49.3003    4.9622    5.2447 H   0  0  0  0  0  0  0  0  0  0  0  0
   52.5111    4.2202    7.0991 H   0  0  0  0  0  0  0  0  0  0  0  0
   53.3499    1.9008    7.4505 H   0  0  0  0  0  0  0  0  0  0  0  0
   52.1446   -0.0317    6.4376 H   0  0  0  0  0  0  0  0  0  0  0  0
   50.1068    0.3565    5.0561 H   0  0  0  0  0  0  0  0  0  0  0  0
   49.2620    2.6724    4.6986 H   0  0  0  0  0  0  0  0  0  0  0  0
   48.7795    5.8626    3.2157 H   0  0  0  0  0  0  0  0  0  0  0  0
   48.5591    6.4370    4.9045 H   0  0  0  0  0  0  0  0  0  0  0  0
   47.0277    7.6335    3.4119 H   0  0  0  0  0  0  0  0  0  0  0  0
   48.3005    8.7605    4.0434 H   0  0  0  0  0  0  0  0  0  0  0  0
   46.7255    9.1784   -0.2690 H   0  0  0  0  0  0  0  0  0  0  0  0
  1  2  2  0
  2  3  1  0
  2  4  1  0
  4  5  1  0
  5  6  1  0
  6  7  2  0
  7  8  1  0
  8  9  2  0
  8 10  1  0
  7 11  1  0
 11 12  1  0
 12 13  1  0
 13 14  2  0
 14 15  1  0
 15 16  2  0
 16 17  1  0
 17 18  1  0
 18 19  1  0
 19 20  1  0
 20 21  1  0
 21 22  1  0
 22 23  1  0
 23 24  2  0
 23 25  2  0
 23 26  1  0
 26 27  1  0
 27 28  2  0
 28 29  1  0
 29 30  2  0
 30 31  1  0
 31 32  2  0
 22 33  1  0
 33 34  1  0
 17 35  2  0
 12 36  2  0
 36 37  1  0
 36  6  1  0
 35 13  1  0
 34 19  1  0
 32 27  1  0
  4 38  1  0
  4 39  1  0
 14 40  1  0
 15 41  1  0
 16 42  1  0
 18 43  1  0
 19 44  1  0
 20 45  1  0
 20 46  1  0
 21 47  1  0
 21 48  1  0
 26 49  1  0
 26 50  1  0
 28 51  1  0
 29 52  1  0
 30 53  1  0
 31 54  1  0
 32 55  1  0
 33 56  1  0
 33 57  1  0
 34 58  1  0
 34 59  1  0
 35 60  1  0
M  CHG  2   3  -1  10  -1
M  END
>  <meeko>  (9) 
{"is_sidechain": [false], "free_energy": -7.442, "intermolecular_energy": -11.459, "internal_energy": -1.467}

$$$$
