4ty7_ligand
     RDKit          3D

 67 71  0  0  0  0  0  0  0  0999 V2000
   34.4410  -13.8940   29.2900 N   0  0  0  0  0  0  0  0  0  0  0  0
   35.6820  -13.9740   28.7110 C   0  0  0  0  0  0  0  0  0  0  0  0
   36.3660  -12.8960   28.1240 N   0  0  0  0  0  0  0  0  0  0  0  0
   37.6860  -13.4160   27.6110 N   0  0  0  0  0  0  0  0  0  0  0  0
   37.7360  -14.7840   27.9110 C   0  0  0  0  0  0  0  0  0  0  0  0
   38.7170  -15.7290   27.6560 C   0  0  0  0  0  0  0  0  0  0  0  0
   38.4860  -17.0550   28.0710 C   0  0  0  0  0  0  0  0  0  0  0  0
   39.4980  -18.0740   27.7900 C   0  0  0  0  0  0  0  0  0  0  0  0
   40.0630  -18.8780   28.7580 N   0  0  0  0  0  0  0  0  0  0  0  0
   41.0030  -19.6830   28.1630 C   0  0  0  0  0  0  0  0  0  0  0  0
   41.8390  -20.6670   28.9400 C   0  0  2  0  0  0  0  0  0  0  0  0
   43.3340  -20.6020   28.5600 C   0  0  0  0  0  0  0  0  0  0  0  0
   44.3140  -20.8920   29.6760 C   0  0  0  0  0  0  0  0  0  0  0  0
   43.9340  -21.6460   30.7940 C   0  0  0  0  0  0  0  0  0  0  0  0
   44.8420  -21.8920   31.8240 C   0  0  0  0  0  0  0  0  0  0  0  0
   46.1400  -21.3920   31.7490 C   0  0  0  0  0  0  0  0  0  0  0  0
   46.5320  -20.6440   30.6410 C   0  0  0  0  0  0  0  0  0  0  0  0
   45.6240  -20.3930   29.6110 C   0  0  0  0  0  0  0  0  0  0  0  0
   41.2730  -21.9880   28.7190 N   0  0  0  0  0  0  0  0  0  0  0  0
   40.5670  -22.6480   29.6950 C   0  0  0  0  0  0  0  0  0  0  0  0
   40.5440  -22.2900   30.8690 O   0  0  0  0  0  0  0  0  0  0  0  0
   39.8500  -23.9020   29.1860 C   0  0  2  0  0  0  0  0  0  0  0  0
   40.2400  -25.1510   29.9950 C   0  0  0  0  0  0  0  0  0  0  0  0
   41.4960  -25.8320   29.4530 C   0  0  0  0  0  0  0  0  0  0  0  0
   41.3720  -26.2480   27.9710 C   0  0  1  0  0  0  0  0  0  0  0  0
   41.2470  -27.7650   27.7820 C   0  0  0  0  0  0  0  0  0  0  0  0
   40.8050  -28.4150   29.0410 N   0  0  0  0  0  0  0  0  0  0  0  0
   40.1960  -25.5430   27.2710 C   0  0  0  0  0  0  0  0  0  0  0  0
   40.1010  -24.0770   27.6780 C   0  0  0  0  0  0  0  0  0  0  0  0
   41.0370  -19.4670   26.8620 N   0  0  0  0  0  0  0  0  0  0  0  0
   40.1170  -18.4810   26.6180 C   0  0  0  0  0  0  0  0  0  0  0  0
   39.8310  -17.9040   25.0400 Cl  0  0  0  0  0  0  0  0  0  0  0  0
   37.2900  -17.4260   28.7420 C   0  0  0  0  0  0  0  0  0  0  0  0
   36.2570  -16.5200   29.0390 C   0  0  0  0  0  0  0  0  0  0  0  0
   36.4900  -15.1980   28.6140 C   0  0  0  0  0  0  0  0  0  0  0  0
   33.6220  -14.4500   29.0530 H   0  0  0  0  0  0  0  0  0  0  0  0
   34.2280  -13.2620   30.0620 H   0  0  0  0  0  0  0  0  0  0  0  0
   36.0410  -11.9340   28.0470 H   0  0  0  0  0  0  0  0  0  0  0  0
   38.3880  -12.8510   27.1310 H   0  0  0  0  0  0  0  0  0  0  0  0
   39.6500  -15.4513   27.1438 H   0  0  0  0  0  0  0  0  0  0  0  0
   39.8450  -18.8620   29.7450 H   0  0  0  0  0  0  0  0  0  0  0  0
   41.8105  -20.4169   30.0108 H   0  0  0  0  0  0  0  0  0  0  0  0
   43.5099  -21.3345   27.7585 H   0  0  0  0  0  0  0  0  0  0  0  0
   43.5204  -19.5590   28.2644 H   0  0  0  0  0  0  0  0  0  0  0  0
   42.9119  -22.0471   30.8601 H   0  0  0  0  0  0  0  0  0  0  0  0
   44.5319  -22.4829   32.6985 H   0  0  0  0  0  0  0  0  0  0  0  0
   46.8539  -21.5873   32.5628 H   0  0  0  0  0  0  0  0  0  0  0  0
   47.5575  -20.2510   30.5778 H   0  0  0  0  0  0  0  0  0  0  0  0
   45.9382  -19.7986   28.7404 H   0  0  0  0  0  0  0  0  0  0  0  0
   41.0030  -22.1600   27.7540 H   0  0  0  0  0  0  0  0  0  0  0  0
   38.7680  -23.7713   29.3350 H   0  0  0  0  0  0  0  0  0  0  0  0
   40.4229  -24.8527   31.0379 H   0  0  0  0  0  0  0  0  0  0  0  0
   39.4112  -25.8702   29.9189 H   0  0  0  0  0  0  0  0  0  0  0  0
   42.3413  -25.1349   29.5507 H   0  0  0  0  0  0  0  0  0  0  0  0
   41.6478  -26.7508   30.0385 H   0  0  0  0  0  0  0  0  0  0  0  0
   42.3132  -25.9261   27.5014 H   0  0  0  0  0  0  0  0  0  0  0  0
   40.5107  -27.9711   26.9912 H   0  0  0  0  0  0  0  0  0  0  0  0
   42.2309  -28.1691   27.5014 H   0  0  0  0  0  0  0  0  0  0  0  0
   39.9670  -27.9600   29.4300 H   0  0  0  0  0  0  0  0  0  0  0  0
   40.5840  -29.4120   28.9150 H   0  0  0  0  0  0  0  0  0  0  0  0
   41.5380  -28.3590   29.7600 H   0  0  0  0  0  0  0  0  0  0  0  0
   40.3403  -25.6030   26.1822 H   0  0  0  0  0  0  0  0  0  0  0  0
   39.2646  -26.0454   27.5710 H   0  0  0  0  0  0  0  0  0  0  0  0
   41.0447  -23.5759   27.4165 H   0  0  0  0  0  0  0  0  0  0  0  0
   39.2480  -23.6348   27.1425 H   0  0  0  0  0  0  0  0  0  0  0  0
   37.1659  -18.4762   29.0447 H   0  0  0  0  0  0  0  0  0  0  0  0
   35.3377  -16.8206   29.5629 H   0  0  0  0  0  0  0  0  0  0  0  0
  1  2  1  0
  2  3  2  0
  3  4  1  0
  4  5  1  0
  5  6  2  0
  6  7  1  0
  7  8  1  0
  8  9  1  0
  9 10  1  0
 10 11  1  0
 11 12  1  0
 12 13  1  0
 13 14  2  0
 14 15  1  0
 15 16  2  0
 16 17  1  0
 17 18  2  0
 11 19  1  0
 19 20  1  0
 20 21  2  0
 20 22  1  0
 22 23  1  0
 23 24  1  0
 24 25  1  0
 25 26  1  0
 26 27  1  0
 25 28  1  0
 28 29  1  0
 10 30  2  0
 30 31  1  0
 31 32  1  0
  7 33  2  0
 33 34  1  0
 34 35  2  0
 35  2  1  0
 35  5  1  0
 31  8  2  0
 18 13  1  0
 29 22  1  0
  1 36  1  0
  1 37  1  0
  3 38  1  0
  4 39  1  0
  6 40  1  0
  9 41  1  0
 11 42  1  1
 12 43  1  0
 12 44  1  0
 14 45  1  0
 15 46  1  0
 16 47  1  0
 17 48  1  0
 18 49  1  0
 19 50  1  0
 22 51  1  1
 23 52  1  0
 23 53  1  0
 24 54  1  0
 24 55  1  0
 25 56  1  1
 26 57  1  0
 26 58  1  0
 27 59  1  0
 27 60  1  0
 27 61  1  0
 28 62  1  0
 28 63  1  0
 29 64  1  0
 29 65  1  0
 33 66  1  0
 34 67  1  0
M  CHG  2   3   1  27   1
M  END
>  <meeko>  (1) 
{"is_sidechain": [false], "free_energy": -10.272, "intermolecular_energy": -15.076, "internal_energy": -1.276}

$$$$
4ty7_ligand
     RDKit          3D

 67 71  0  0  0  0  0  0  0  0999 V2000
   47.6980  -20.7570   30.8620 N   0  0  0  0  0  0  0  0  0  0  0  0
   46.4560  -21.2130   31.2230 C   0  0  0  0  0  0  0  0  0  0  0  0
   46.1850  -21.9880   32.3640 N   0  0  0  0  0  0  0  0  0  0  0  0
   44.7030  -22.2710   32.3830 N   0  0  0  0  0  0  0  0  0  0  0  0
   44.1500  -21.6560   31.2520 C   0  0  0  0  0  0  0  0  0  0  0  0
   42.8420  -21.6120   30.7970 C   0  0  0  0  0  0  0  0  0  0  0  0
   42.5770  -20.9150   29.6020 C   0  0  0  0  0  0  0  0  0  0  0  0
   41.2060  -20.8770   29.0900 C   0  0  0  0  0  0  0  0  0  0  0  0
   40.5750  -19.7220   28.6800 N   0  0  0  0  0  0  0  0  0  0  0  0
   39.2910  -20.0350   28.3050 C   0  0  0  0  0  0  0  0  0  0  0  0
   38.3070  -18.9970   27.8330 C   0  0  2  0  0  0  0  0  0  0  0  0
   37.7980  -18.1000   28.9810 C   0  0  0  0  0  0  0  0  0  0  0  0
   37.4990  -16.6620   28.6140 C   0  0  0  0  0  0  0  0  0  0  0  0
   36.2800  -16.0660   28.9630 C   0  0  0  0  0  0  0  0  0  0  0  0
   36.0100  -14.7440   28.6040 C   0  0  0  0  0  0  0  0  0  0  0  0
   36.9550  -14.0030   27.9000 C   0  0  0  0  0  0  0  0  0  0  0  0
   38.1740  -14.5820   27.5510 C   0  0  0  0  0  0  0  0  0  0  0  0
   38.4440  -15.9050   27.9040 C   0  0  0  0  0  0  0  0  0  0  0  0
   37.2240  -19.6990   27.1620 N   0  0  0  0  0  0  0  0  0  0  0  0
   37.0690  -19.6630   25.7970 C   0  0  0  0  0  0  0  0  0  0  0  0
   37.6780  -18.8820   25.0720 O   0  0  0  0  0  0  0  0  0  0  0  0
   36.0300  -20.6580   25.2760 C   0  0  2  0  0  0  0  0  0  0  0  0
   36.0330  -21.9650   26.0870 C   0  0  0  0  0  0  0  0  0  0  0  0
   37.0470  -22.9790   25.5600 C   0  0  0  0  0  0  0  0  0  0  0  0
   36.8290  -23.3450   24.0760 C   0  0  1  0  0  0  0  0  0  0  0  0
   36.2750  -24.7630   23.8830 C   0  0  0  0  0  0  0  0  0  0  0  0
   34.8970  -24.8650   24.4220 N   0  0  0  0  0  0  0  0  0  0  0  0
   35.9140  -22.3330   23.3620 C   0  0  0  0  0  0  0  0  0  0  0  0
   36.2390  -20.9010   23.7710 C   0  0  0  0  0  0  0  0  0  0  0  0
   39.0840  -21.3330   28.4130 N   0  0  0  0  0  0  0  0  0  0  0  0
   40.2540  -21.8650   28.8940 C   0  0  0  0  0  0  0  0  0  0  0  0
   40.4210  -23.5380   29.1700 Cl  0  0  0  0  0  0  0  0  0  0  0  0
   43.6100  -20.2600   28.8790 C   0  0  0  0  0  0  0  0  0  0  0  0
   44.9550  -20.2570   29.2850 C   0  0  0  0  0  0  0  0  0  0  0  0
   45.2160  -20.9640   30.4760 C   0  0  0  0  0  0  0  0  0  0  0  0
   48.3750  -20.2960   31.4670 H   0  0  0  0  0  0  0  0  0  0  0  0
   48.0810  -20.8690   29.9230 H   0  0  0  0  0  0  0  0  0  0  0  0
   46.8560  -22.3110   33.0580 H   0  0  0  0  0  0  0  0  0  0  0  0
   44.2240  -22.8200   33.0980 H   0  0  0  0  0  0  0  0  0  0  0  0
   42.0330  -22.1076   31.3536 H   0  0  0  0  0  0  0  0  0  0  0  0
   40.9760  -18.7940   28.6780 H   0  0  0  0  0  0  0  0  0  0  0  0
   38.8004  -18.3050   27.1346 H   0  0  0  0  0  0  0  0  0  0  0  0
   36.8726  -18.5471   29.3731 H   0  0  0  0  0  0  0  0  0  0  0  0
   38.6197  -18.0561   29.7110 H   0  0  0  0  0  0  0  0  0  0  0  0
   35.5304  -16.6436   29.5238 H   0  0  0  0  0  0  0  0  0  0  0  0
   35.0479  -14.2868   28.8782 H   0  0  0  0  0  0  0  0  0  0  0  0
   36.7400  -12.9614   27.6193 H   0  0  0  0  0  0  0  0  0  0  0  0
   38.9229  -13.9964   26.9976 H   0  0  0  0  0  0  0  0  0  0  0  0
   39.4060  -16.3586   27.6233 H   0  0  0  0  0  0  0  0  0  0  0  0
   36.9290  -20.5470   27.6400 H   0  0  0  0  0  0  0  0  0  0  0  0
   35.0298  -20.2205   25.4111 H   0  0  0  0  0  0  0  0  0  0  0  0
   36.2799  -21.7304   27.1330 H   0  0  0  0  0  0  0  0  0  0  0  0
   35.0334  -22.4154   25.9983 H   0  0  0  0  0  0  0  0  0  0  0  0
   38.0556  -22.5540   25.6704 H   0  0  0  0  0  0  0  0  0  0  0  0
   36.9199  -23.9016   26.1454 H   0  0  0  0  0  0  0  0  0  0  0  0
   37.8290  -23.3084   23.6193 H   0  0  0  0  0  0  0  0  0  0  0  0
   36.2615  -25.0025   22.8095 H   0  0  0  0  0  0  0  0  0  0  0  0
   36.9198  -25.4714   24.4238 H   0  0  0  0  0  0  0  0  0  0  0  0
   34.2860  -25.4130   23.8020 H   0  0  0  0  0  0  0  0  0  0  0  0
   34.8680  -25.3050   25.3510 H   0  0  0  0  0  0  0  0  0  0  0  0
   34.4700  -23.9340   24.5180 H   0  0  0  0  0  0  0  0  0  0  0  0
   36.0492  -22.4337   22.2750 H   0  0  0  0  0  0  0  0  0  0  0  0
   34.8736  -22.5462   23.6485 H   0  0  0  0  0  0  0  0  0  0  0  0
   37.2901  -20.6927   23.5223 H   0  0  0  0  0  0  0  0  0  0  0  0
   35.5554  -20.2336   23.2258 H   0  0  0  0  0  0  0  0  0  0  0  0
   43.3430  -19.7280   27.9540 H   0  0  0  0  0  0  0  0  0  0  0  0
   45.7439  -19.7423   28.7169 H   0  0  0  0  0  0  0  0  0  0  0  0
  1  2  1  0
  2  3  2  0
  3  4  1  0
  4  5  1  0
  5  6  2  0
  6  7  1  0
  7  8  1  0
  8  9  1  0
  9 10  1  0
 10 11  1  0
 11 12  1  0
 12 13  1  0
 13 14  2  0
 14 15  1  0
 15 16  2  0
 16 17  1  0
 17 18  2  0
 11 19  1  0
 19 20  1  0
 20 21  2  0
 20 22  1  0
 22 23  1  0
 23 24  1  0
 24 25  1  0
 25 26  1  0
 26 27  1  0
 25 28  1  0
 28 29  1  0
 10 30  2  0
 30 31  1  0
 31 32  1  0
  7 33  2  0
 33 34  1  0
 34 35  2  0
 35  2  1  0
 35  5  1  0
 31  8  2  0
 18 13  1  0
 29 22  1  0
  1 36  1  0
  1 37  1  0
  3 38  1  0
  4 39  1  0
  6 40  1  0
  9 41  1  0
 11 42  1  6
 12 43  1  0
 12 44  1  0
 14 45  1  0
 15 46  1  0
 16 47  1  0
 17 48  1  0
 18 49  1  0
 19 50  1  0
 22 51  1  1
 23 52  1  0
 23 53  1  0
 24 54  1  0
 24 55  1  0
 25 56  1  1
 26 57  1  0
 26 58  1  0
 27 59  1  0
 27 60  1  0
 27 61  1  0
 28 62  1  0
 28 63  1  0
 29 64  1  0
 29 65  1  0
 33 66  1  0
 34 67  1  0
M  CHG  2   3   1  27   1
M  END
>  <meeko>  (2) 
{"is_sidechain": [false], "free_energy": -9.556, "intermolecular_energy": -13.945, "internal_energy": -1.356}

$$$$
4ty7_ligand
     RDKit          3D

 67 71  0  0  0  0  0  0  0  0999 V2000
   34.4680  -13.7290   29.3340 N   0  0  0  0  0  0  0  0  0  0  0  0
   35.6670  -13.8390   28.6760 C   0  0  0  0  0  0  0  0  0  0  0  0
   36.3520  -12.7710   28.0710 N   0  0  0  0  0  0  0  0  0  0  0  0
   37.6180  -13.3240   27.4650 N   0  0  0  0  0  0  0  0  0  0  0  0
   37.6360  -14.7000   27.7300 C   0  0  0  0  0  0  0  0  0  0  0  0
   38.5640  -15.6730   27.3920 C   0  0  0  0  0  0  0  0  0  0  0  0
   38.3100  -17.0000   27.7910 C   0  0  0  0  0  0  0  0  0  0  0  0
   39.2640  -18.0470   27.4240 C   0  0  0  0  0  0  0  0  0  0  0  0
   39.4510  -19.2020   28.1540 N   0  0  0  0  0  0  0  0  0  0  0  0
   40.4470  -19.9380   27.5610 C   0  0  0  0  0  0  0  0  0  0  0  0
   40.9310  -21.2500   28.1210 C   0  0  2  0  0  0  0  0  0  0  0  0
   39.7710  -22.1680   28.5620 C   0  0  0  0  0  0  0  0  0  0  0  0
   40.1190  -23.6290   28.7530 C   0  0  0  0  0  0  0  0  0  0  0  0
   40.2400  -24.1800   30.0350 C   0  0  0  0  0  0  0  0  0  0  0  0
   40.5780  -25.5240   30.1980 C   0  0  0  0  0  0  0  0  0  0  0  0
   40.7930  -26.3330   29.0850 C   0  0  0  0  0  0  0  0  0  0  0  0
   40.6710  -25.7980   27.8040 C   0  0  0  0  0  0  0  0  0  0  0  0
   40.3380  -24.4530   27.6390 C   0  0  0  0  0  0  0  0  0  0  0  0
   41.8390  -20.9470   29.2160 N   0  0  0  0  0  0  0  0  0  0  0  0
   43.0770  -21.5340   29.3180 C   0  0  0  0  0  0  0  0  0  0  0  0
   43.4220  -22.4970   28.6410 O   0  0  0  0  0  0  0  0  0  0  0  0
   43.9650  -20.9000   30.3920 C   0  0  2  0  0  0  0  0  0  0  0  0
   45.1360  -20.1160   29.7750 C   0  0  0  0  0  0  0  0  0  0  0  0
   46.3530  -20.9990   29.5030 C   0  0  0  0  0  0  0  0  0  0  0  0
   46.8780  -21.7170   30.7650 C   0  0  1  0  0  0  0  0  0  0  0  0
   48.2090  -21.1460   31.2710 C   0  0  0  0  0  0  0  0  0  0  0  0
   49.0940  -20.7940   30.1330 N   0  0  0  0  0  0  0  0  0  0  0  0
   45.8450  -21.7060   31.9060 C   0  0  0  0  0  0  0  0  0  0  0  0
   44.4360  -21.9730   31.3880 C   0  0  0  0  0  0  0  0  0  0  0  0
   40.8740  -19.3370   26.4670 N   0  0  0  0  0  0  0  0  0  0  0  0
   40.1560  -18.1730   26.3700 C   0  0  0  0  0  0  0  0  0  0  0  0
   40.3910  -17.0900   25.0750 Cl  0  0  0  0  0  0  0  0  0  0  0  0
   37.1450  -17.3450   28.5280 C   0  0  0  0  0  0  0  0  0  0  0  0
   36.1670  -16.4110   28.9100 C   0  0  0  0  0  0  0  0  0  0  0  0
   36.4220  -15.0870   28.5000 C   0  0  0  0  0  0  0  0  0  0  0  0
   34.1880  -12.9800   29.9640 H   0  0  0  0  0  0  0  0  0  0  0  0
   33.7100  -14.4020   29.2230 H   0  0  0  0  0  0  0  0  0  0  0  0
   36.0590  -11.7960   28.0370 H   0  0  0  0  0  0  0  0  0  0  0  0
   38.3090  -12.7730   26.9540 H   0  0  0  0  0  0  0  0  0  0  0  0
   39.4729  -15.4161   26.8282 H   0  0  0  0  0  0  0  0  0  0  0  0
   38.9600  -19.4560   29.0010 H   0  0  0  0  0  0  0  0  0  0  0  0
   41.4567  -21.8180   27.3393 H   0  0  0  0  0  0  0  0  0  0  0  0
   39.3840  -21.7861   29.5182 H   0  0  0  0  0  0  0  0  0  0  0  0
   39.0413  -22.1412   27.7393 H   0  0  0  0  0  0  0  0  0  0  0  0
   40.0674  -23.5490   30.9193 H   0  0  0  0  0  0  0  0  0  0  0  0
   40.6750  -25.9460   31.2092 H   0  0  0  0  0  0  0  0  0  0  0  0
   41.0586  -27.3923   29.2168 H   0  0  0  0  0  0  0  0  0  0  0  0
   40.8371  -26.4357   26.9233 H   0  0  0  0  0  0  0  0  0  0  0  0
   40.2463  -24.0348   26.6257 H   0  0  0  0  0  0  0  0  0  0  0  0
   41.7430  -20.0010   29.5760 H   0  0  0  0  0  0  0  0  0  0  0  0
   43.3682  -20.1627   30.9490 H   0  0  0  0  0  0  0  0  0  0  0  0
   44.8023  -19.6730   28.8251 H   0  0  0  0  0  0  0  0  0  0  0  0
   45.4384  -19.3436   30.4974 H   0  0  0  0  0  0  0  0  0  0  0  0
   46.0738  -21.7594   28.7588 H   0  0  0  0  0  0  0  0  0  0  0  0
   47.1585  -20.3429   29.1414 H   0  0  0  0  0  0  0  0  0  0  0  0
   47.0548  -22.7568   30.4525 H   0  0  0  0  0  0  0  0  0  0  0  0
   48.0113  -20.2433   31.8676 H   0  0  0  0  0  0  0  0  0  0  0  0
   48.7098  -21.9076   31.8867 H   0  0  0  0  0  0  0  0  0  0  0  0
   48.8580  -19.8740   29.7380 H   0  0  0  0  0  0  0  0  0  0  0  0
   50.0880  -20.7710   30.3980 H   0  0  0  0  0  0  0  0  0  0  0  0
   49.0030  -21.4800   29.3720 H   0  0  0  0  0  0  0  0  0  0  0  0
   46.1108  -22.4847   32.6361 H   0  0  0  0  0  0  0  0  0  0  0  0
   45.8577  -20.7101   32.3729 H   0  0  0  0  0  0  0  0  0  0  0  0
   44.4238  -22.9514   30.8854 H   0  0  0  0  0  0  0  0  0  0  0  0
   43.7525  -21.9543   32.2497 H   0  0  0  0  0  0  0  0  0  0  0  0
   37.0014  -18.3974   28.8142 H   0  0  0  0  0  0  0  0  0  0  0  0
   35.2719  -16.6916   29.4845 H   0  0  0  0  0  0  0  0  0  0  0  0
  1  2  1  0
  2  3  2  0
  3  4  1  0
  4  5  1  0
  5  6  2  0
  6  7  1  0
  7  8  1  0
  8  9  1  0
  9 10  1  0
 10 11  1  0
 11 12  1  0
 12 13  1  0
 13 14  2  0
 14 15  1  0
 15 16  2  0
 16 17  1  0
 17 18  2  0
 11 19  1  0
 19 20  1  0
 20 21  2  0
 20 22  1  0
 22 23  1  0
 23 24  1  0
 24 25  1  0
 25 26  1  0
 26 27  1  0
 25 28  1  0
 28 29  1  0
 10 30  2  0
 30 31  1  0
 31 32  1  0
  7 33  2  0
 33 34  1  0
 34 35  2  0
 35  2  1  0
 35  5  1  0
 31  8  2  0
 18 13  1  0
 29 22  1  0
  1 36  1  0
  1 37  1  0
  3 38  1  0
  4 39  1  0
  6 40  1  0
  9 41  1  0
 11 42  1  6
 12 43  1  0
 12 44  1  0
 14 45  1  0
 15 46  1  0
 16 47  1  0
 17 48  1  0
 18 49  1  0
 19 50  1  0
 22 51  1  6
 23 52  1  0
 23 53  1  0
 24 54  1  0
 24 55  1  0
 25 56  1  1
 26 57  1  0
 26 58  1  0
 27 59  1  0
 27 60  1  0
 27 61  1  0
 28 62  1  0
 28 63  1  0
 29 64  1  0
 29 65  1  0
 33 66  1  0
 34 67  1  0
M  CHG  2   3   1  27   1
M  END
>  <meeko>  (3) 
{"is_sidechain": [false], "free_energy": -9.377, "intermolecular_energy": -13.869, "internal_energy": -1.169}

$$$$
4ty7_ligand
     RDKit          3D

 67 71  0  0  0  0  0  0  0  0999 V2000
   36.7260  -12.3850   27.3280 N   0  0  0  0  0  0  0  0  0  0  0  0
   36.3840  -13.6010   27.8620 C   0  0  0  0  0  0  0  0  0  0  0  0
   35.2610  -13.8350   28.6740 N   0  0  0  0  0  0  0  0  0  0  0  0
   35.2580  -15.2970   29.0430 N   0  0  0  0  0  0  0  0  0  0  0  0
   36.3810  -15.8780   28.4380 C   0  0  0  0  0  0  0  0  0  0  0  0
   36.8460  -17.1830   28.4620 C   0  0  0  0  0  0  0  0  0  0  0  0
   38.0280  -17.4800   27.7570 C   0  0  0  0  0  0  0  0  0  0  0  0
   38.5500  -18.8480   27.7880 C   0  0  0  0  0  0  0  0  0  0  0  0
   39.6250  -19.2390   28.5580 N   0  0  0  0  0  0  0  0  0  0  0  0
   39.8770  -20.5670   28.3140 C   0  0  0  0  0  0  0  0  0  0  0  0
   41.0110  -21.3120   28.9690 C   0  0  2  0  0  0  0  0  0  0  0  0
   42.3920  -20.8580   28.4520 C   0  0  0  0  0  0  0  0  0  0  0  0
   43.5250  -20.9110   29.4550 C   0  0  0  0  0  0  0  0  0  0  0  0
   44.6890  -20.1530   29.2710 C   0  0  0  0  0  0  0  0  0  0  0  0
   45.7330  -20.2250   30.1950 C   0  0  0  0  0  0  0  0  0  0  0  0
   45.6240  -21.0480   31.3130 C   0  0  0  0  0  0  0  0  0  0  0  0
   44.4700  -21.8040   31.5090 C   0  0  0  0  0  0  0  0  0  0  0  0
   43.4270  -21.7380   30.5850 C   0  0  0  0  0  0  0  0  0  0  0  0
   40.7820  -22.7320   28.7490 N   0  0  0  0  0  0  0  0  0  0  0  0
   40.2460  -23.5400   29.7230 C   0  0  0  0  0  0  0  0  0  0  0  0
   40.1250  -23.1940   30.8940 O   0  0  0  0  0  0  0  0  0  0  0  0
   39.8580  -24.9310   29.2130 C   0  0  2  0  0  0  0  0  0  0  0  0
   40.7650  -26.0270   29.7990 C   0  0  0  0  0  0  0  0  0  0  0  0
   42.0310  -26.2420   28.9710 C   0  0  0  0  0  0  0  0  0  0  0  0
   41.7420  -26.6040   27.4990 C   0  0  1  0  0  0  0  0  0  0  0  0
   42.0500  -28.0700   27.1690 C   0  0  0  0  0  0  0  0  0  0  0  0
   43.3380  -28.4850   27.7800 N   0  0  0  0  0  0  0  0  0  0  0  0
   40.2910  -26.2800   27.0990 C   0  0  0  0  0  0  0  0  0  0  0  0
   39.8380  -24.9430   27.6750 C   0  0  0  0  0  0  0  0  0  0  0  0
   38.9940  -21.0540   27.4640 N   0  0  0  0  0  0  0  0  0  0  0  0
   38.1710  -20.0080   27.1320 C   0  0  0  0  0  0  0  0  0  0  0  0
   36.8690  -20.2120   26.0520 Cl  0  0  0  0  0  0  0  0  0  0  0  0
   38.7300  -16.4820   27.0290 C   0  0  0  0  0  0  0  0  0  0  0  0
   38.3140  -15.1420   26.9560 C   0  0  0  0  0  0  0  0  0  0  0  0
   37.1360  -14.8490   27.6710 C   0  0  0  0  0  0  0  0  0  0  0  0
   37.4890  -12.1990   26.6810 H   0  0  0  0  0  0  0  0  0  0  0  0
   36.2060  -11.5290   27.5180 H   0  0  0  0  0  0  0  0  0  0  0  0
   34.5670  -13.1500   28.9720 H   0  0  0  0  0  0  0  0  0  0  0  0
   34.5580  -15.7490   29.6330 H   0  0  0  0  0  0  0  0  0  0  0  0
   36.3067  -17.9652   29.0164 H   0  0  0  0  0  0  0  0  0  0  0  0
   40.1580  -18.6460   29.1800 H   0  0  0  0  0  0  0  0  0  0  0  0
   41.0285  -21.0930   30.0468 H   0  0  0  0  0  0  0  0  0  0  0  0
   42.6629  -21.5035   27.6035 H   0  0  0  0  0  0  0  0  0  0  0  0
   42.2767  -19.7959   28.1898 H   0  0  0  0  0  0  0  0  0  0  0  0
   44.7808  -19.4970   28.3928 H   0  0  0  0  0  0  0  0  0  0  0  0
   46.6448  -19.6296   30.0394 H   0  0  0  0  0  0  0  0  0  0  0  0
   46.4476  -21.1012   32.0403 H   0  0  0  0  0  0  0  0  0  0  0  0
   44.3814  -22.4531   32.3927 H   0  0  0  0  0  0  0  0  0  0  0  0
   42.5197  -22.3394   30.7433 H   0  0  0  0  0  0  0  0  0  0  0  0
   40.5710  -22.9670   27.7830 H   0  0  0  0  0  0  0  0  0  0  0  0
   38.8411  -25.1615   29.5635 H   0  0  0  0  0  0  0  0  0  0  0  0
   41.0557  -25.7364   30.8193 H   0  0  0  0  0  0  0  0  0  0  0  0
   40.1975  -26.9693   29.7936 H   0  0  0  0  0  0  0  0  0  0  0  0
   42.6243  -25.3160   28.9930 H   0  0  0  0  0  0  0  0  0  0  0  0
   42.5716  -27.0906   29.4157 H   0  0  0  0  0  0  0  0  0  0  0  0
   42.4249  -25.9750   26.9091 H   0  0  0  0  0  0  0  0  0  0  0  0
   41.2426  -28.7059   27.5611 H   0  0  0  0  0  0  0  0  0  0  0  0
   42.1247  -28.1790   26.0770 H   0  0  0  0  0  0  0  0  0  0  0  0
   43.2280  -29.3260   28.3630 H   0  0  0  0  0  0  0  0  0  0  0  0
   44.0610  -28.6880   27.0780 H   0  0  0  0  0  0  0  0  0  0  0  0
   43.7100  -27.7440   28.3890 H   0  0  0  0  0  0  0  0  0  0  0  0
   40.2236  -26.2378   26.0019 H   0  0  0  0  0  0  0  0  0  0  0  0
   39.6378  -27.0683   27.5014 H   0  0  0  0  0  0  0  0  0  0  0  0
   40.5098  -24.1537   27.3067 H   0  0  0  0  0  0  0  0  0  0  0  0
   38.8006  -24.7722   27.3514 H   0  0  0  0  0  0  0  0  0  0  0  0
   39.6464  -16.7735   26.4950 H   0  0  0  0  0  0  0  0  0  0  0  0
   38.8654  -14.3806   26.3848 H   0  0  0  0  0  0  0  0  0  0  0  0
  1  2  1  0
  2  3  2  0
  3  4  1  0
  4  5  1  0
  5  6  2  0
  6  7  1  0
  7  8  1  0
  8  9  1  0
  9 10  1  0
 10 11  1  0
 11 12  1  0
 12 13  1  0
 13 14  2  0
 14 15  1  0
 15 16  2  0
 16 17  1  0
 17 18  2  0
 11 19  1  0
 19 20  1  0
 20 21  2  0
 20 22  1  0
 22 23  1  0
 23 24  1  0
 24 25  1  0
 25 26  1  0
 26 27  1  0
 25 28  1  0
 28 29  1  0
 10 30  2  0
 30 31  1  0
 31 32  1  0
  7 33  2  0
 33 34  1  0
 34 35  2  0
 35  2  1  0
 35  5  1  0
 31  8  2  0
 18 13  1  0
 29 22  1  0
  1 36  1  0
  1 37  1  0
  3 38  1  0
  4 39  1  0
  6 40  1  0
  9 41  1  0
 11 42  1  1
 12 43  1  0
 12 44  1  0
 14 45  1  0
 15 46  1  0
 16 47  1  0
 17 48  1  0
 18 49  1  0
 19 50  1  0
 22 51  1  6
 23 52  1  0
 23 53  1  0
 24 54  1  0
 24 55  1  0
 25 56  1  1
 26 57  1  0
 26 58  1  0
 27 59  1  0
 27 60  1  0
 27 61  1  0
 28 62  1  0
 28 63  1  0
 29 64  1  0
 29 65  1  0
 33 66  1  0
 34 67  1  0
M  CHG  2   3   1  27   1
M  END
>  <meeko>  (4) 
{"is_sidechain": [false], "free_energy": -9.346, "intermolecular_energy": -13.594, "internal_energy": -1.398}

$$$$
4ty7_ligand
     RDKit          3D

 67 71  0  0  0  0  0  0  0  0999 V2000
   37.0410  -12.7290   27.5410 N   0  0  0  0  0  0  0  0  0  0  0  0
   36.6690  -13.9640   28.0050 C   0  0  0  0  0  0  0  0  0  0  0  0
   35.4490  -14.2490   28.6430 N   0  0  0  0  0  0  0  0  0  0  0  0
   35.4440  -15.7170   28.9890 N   0  0  0  0  0  0  0  0  0  0  0  0
   36.6620  -16.2500   28.5450 C   0  0  0  0  0  0  0  0  0  0  0  0
   37.1640  -17.5400   28.6190 C   0  0  0  0  0  0  0  0  0  0  0  0
   38.4450  -17.7850   28.0890 C   0  0  0  0  0  0  0  0  0  0  0  0
   39.0040  -19.1350   28.1780 C   0  0  0  0  0  0  0  0  0  0  0  0
   40.2210  -19.4220   28.7590 N   0  0  0  0  0  0  0  0  0  0  0  0
   40.4610  -20.7690   28.6300 C   0  0  0  0  0  0  0  0  0  0  0  0
   41.7240  -21.4210   29.1290 C   0  0  2  0  0  0  0  0  0  0  0  0
   42.9380  -20.4690   29.0820 C   0  0  0  0  0  0  0  0  0  0  0  0
   44.0840  -20.8110   30.0100 C   0  0  0  0  0  0  0  0  0  0  0  0
   45.3490  -20.2340   29.8390 C   0  0  0  0  0  0  0  0  0  0  0  0
   46.4010  -20.5710   30.6920 C   0  0  0  0  0  0  0  0  0  0  0  0
   46.2010  -21.4820   31.7260 C   0  0  0  0  0  0  0  0  0  0  0  0
   44.9460  -22.0600   31.9100 C   0  0  0  0  0  0  0  0  0  0  0  0
   43.8930  -21.7280   31.0560 C   0  0  0  0  0  0  0  0  0  0  0  0
   41.9350  -22.6220   28.3360 N   0  0  0  0  0  0  0  0  0  0  0  0
   41.6780  -23.8760   28.8340 C   0  0  0  0  0  0  0  0  0  0  0  0
   41.4680  -24.0980   30.0230 O   0  0  0  0  0  0  0  0  0  0  0  0
   41.7270  -24.9760   27.7700 C   0  0  2  0  0  0  0  0  0  0  0  0
   41.3130  -24.4490   26.3850 C   0  0  0  0  0  0  0  0  0  0  0  0
   39.8020  -24.5110   26.1630 C   0  0  0  0  0  0  0  0  0  0  0  0
   39.2210  -25.9320   26.3220 C   0  0  1  0  0  0  0  0  0  0  0  0
   38.7950  -26.5590   24.9880 C   0  0  0  0  0  0  0  0  0  0  0  0
   38.1300  -25.5510   24.1250 N   0  0  0  0  0  0  0  0  0  0  0  0
   40.1970  -26.8770   27.0460 C   0  0  0  0  0  0  0  0  0  0  0  0
   40.8830  -26.1810   28.2170 C   0  0  0  0  0  0  0  0  0  0  0  0
   39.4430  -21.3620   28.0370 N   0  0  0  0  0  0  0  0  0  0  0  0
   38.5390  -20.3700   27.7540 C   0  0  0  0  0  0  0  0  0  0  0  0
   37.0560  -20.7130   26.9880 Cl  0  0  0  0  0  0  0  0  0  0  0  0
   39.2090  -16.7520   27.4830 C   0  0  0  0  0  0  0  0  0  0  0  0
   38.7620  -15.4260   27.3670 C   0  0  0  0  0  0  0  0  0  0  0  0
   37.4830  -15.1840   27.9080 C   0  0  0  0  0  0  0  0  0  0  0  0
   37.7580  -12.5320   26.8450 H   0  0  0  0  0  0  0  0  0  0  0  0
   36.5950  -11.8630   27.8440 H   0  0  0  0  0  0  0  0  0  0  0  0
   34.6970  -13.5930   28.8460 H   0  0  0  0  0  0  0  0  0  0  0  0
   34.6830  -16.2010   29.4660 H   0  0  0  0  0  0  0  0  0  0  0  0
   36.5780  -18.3494   29.0789 H   0  0  0  0  0  0  0  0  0  0  0  0
   40.8490  -18.7540   29.1870 H   0  0  0  0  0  0  0  0  0  0  0  0
   41.6148  -21.6834   30.1916 H   0  0  0  0  0  0  0  0  0  0  0  0
   43.3264  -20.4691   28.0529 H   0  0  0  0  0  0  0  0  0  0  0  0
   42.5628  -19.4920   29.4206 H   0  0  0  0  0  0  0  0  0  0  0  0
   45.5143  -19.5105   29.0271 H   0  0  0  0  0  0  0  0  0  0  0  0
   47.3916  -20.1154   30.5470 H   0  0  0  0  0  0  0  0  0  0  0  0
   47.0322  -21.7451   32.3967 H   0  0  0  0  0  0  0  0  0  0  0  0
   44.7855  -22.7776   32.7281 H   0  0  0  0  0  0  0  0  0  0  0  0
   42.9051  -22.1887   31.2037 H   0  0  0  0  0  0  0  0  0  0  0  0
   41.7980  -22.4810   27.3380 H   0  0  0  0  0  0  0  0  0  0  0  0
   42.7680  -25.3155   27.6653 H   0  0  0  0  0  0  0  0  0  0  0  0
   41.6404  -23.4029   26.2933 H   0  0  0  0  0  0  0  0  0  0  0  0
   41.7887  -25.0895   25.6277 H   0  0  0  0  0  0  0  0  0  0  0  0
   39.3139  -23.8501   26.8944 H   0  0  0  0  0  0  0  0  0  0  0  0
   39.6109  -24.1942   25.1271 H   0  0  0  0  0  0  0  0  0  0  0  0
   38.3195  -25.8067   26.9397 H   0  0  0  0  0  0  0  0  0  0  0  0
   39.6848  -26.9471   24.4706 H   0  0  0  0  0  0  0  0  0  0  0  0
   38.0859  -27.3752   25.1905 H   0  0  0  0  0  0  0  0  0  0  0  0
   37.1170  -25.7220   24.0530 H   0  0  0  0  0  0  0  0  0  0  0  0
   38.2570  -24.5900   24.4690 H   0  0  0  0  0  0  0  0  0  0  0  0
   38.5080  -25.5800   23.1690 H   0  0  0  0  0  0  0  0  0  0  0  0
   39.6389  -27.7463   27.4239 H   0  0  0  0  0  0  0  0  0  0  0  0
   40.9704  -27.1900   26.3292 H   0  0  0  0  0  0  0  0  0  0  0  0
   40.1129  -25.8314   28.9204 H   0  0  0  0  0  0  0  0  0  0  0  0
   41.5601  -26.9080   28.6892 H   0  0  0  0  0  0  0  0  0  0  0  0
   40.2025  -17.0040   27.0838 H   0  0  0  0  0  0  0  0  0  0  0  0
   39.3632  -14.6373   26.8910 H   0  0  0  0  0  0  0  0  0  0  0  0
  1  2  1  0
  2  3  2  0
  3  4  1  0
  4  5  1  0
  5  6  2  0
  6  7  1  0
  7  8  1  0
  8  9  1  0
  9 10  1  0
 10 11  1  0
 11 12  1  0
 12 13  1  0
 13 14  2  0
 14 15  1  0
 15 16  2  0
 16 17  1  0
 17 18  2  0
 11 19  1  0
 19 20  1  0
 20 21  2  0
 20 22  1  0
 22 23  1  0
 23 24  1  0
 24 25  1  0
 25 26  1  0
 26 27  1  0
 25 28  1  0
 28 29  1  0
 10 30  2  0
 30 31  1  0
 31 32  1  0
  7 33  2  0
 33 34  1  0
 34 35  2  0
 35  2  1  0
 35  5  1  0
 31  8  2  0
 18 13  1  0
 29 22  1  0
  1 36  1  0
  1 37  1  0
  3 38  1  0
  4 39  1  0
  6 40  1  0
  9 41  1  0
 11 42  1  1
 12 43  1  0
 12 44  1  0
 14 45  1  0
 15 46  1  0
 16 47  1  0
 17 48  1  0
 18 49  1  0
 19 50  1  0
 22 51  1  1
 23 52  1  0
 23 53  1  0
 24 54  1  0
 24 55  1  0
 25 56  1  6
 26 57  1  0
 26 58  1  0
 27 59  1  0
 27 60  1  0
 27 61  1  0
 28 62  1  0
 28 63  1  0
 29 64  1  0
 29 65  1  0
 33 66  1  0
 34 67  1  0
M  CHG  2   3   1  27   1
M  END
>  <meeko>  (5) 
{"is_sidechain": [false], "free_energy": -9.283, "intermolecular_energy": -13.528, "internal_energy": -1.373}

$$$$
4ty7_ligand
     RDKit          3D

 67 71  0  0  0  0  0  0  0  0999 V2000
   40.8800  -28.4860   29.4230 N   0  0  0  0  0  0  0  0  0  0  0  0
   40.7930  -27.4870   28.4880 C   0  0  0  0  0  0  0  0  0  0  0  0
   40.9280  -27.6700   27.1010 N   0  0  0  0  0  0  0  0  0  0  0  0
   40.7650  -26.3230   26.4420 N   0  0  0  0  0  0  0  0  0  0  0  0
   40.5410  -25.3890   27.4630 C   0  0  0  0  0  0  0  0  0  0  0  0
   40.3340  -24.0200   27.4050 C   0  0  0  0  0  0  0  0  0  0  0  0
   40.1430  -23.3250   28.6150 C   0  0  0  0  0  0  0  0  0  0  0  0
   39.9470  -21.8740   28.5780 C   0  0  0  0  0  0  0  0  0  0  0  0
   38.8290  -21.2670   28.0470 N   0  0  0  0  0  0  0  0  0  0  0  0
   38.9910  -19.9050   28.1310 C   0  0  0  0  0  0  0  0  0  0  0  0
   37.9660  -18.9320   27.6090 C   0  0  2  0  0  0  0  0  0  0  0  0
   37.3850  -18.0330   28.7210 C   0  0  0  0  0  0  0  0  0  0  0  0
   37.0420  -16.6160   28.3160 C   0  0  0  0  0  0  0  0  0  0  0  0
   36.1200  -15.8570   29.0490 C   0  0  0  0  0  0  0  0  0  0  0  0
   35.8000  -14.5580   28.6550 C   0  0  0  0  0  0  0  0  0  0  0  0
   36.4000  -14.0000   27.5290 C   0  0  0  0  0  0  0  0  0  0  0  0
   37.3210  -14.7410   26.7930 C   0  0  0  0  0  0  0  0  0  0  0  0
   37.6400  -16.0430   27.1830 C   0  0  0  0  0  0  0  0  0  0  0  0
   36.9370  -19.7060   26.9340 N   0  0  0  0  0  0  0  0  0  0  0  0
   36.9220  -19.8610   25.5680 C   0  0  0  0  0  0  0  0  0  0  0  0
   37.6240  -19.1990   24.8090 O   0  0  0  0  0  0  0  0  0  0  0  0
   35.9120  -20.9040   25.0850 C   0  0  2  0  0  0  0  0  0  0  0  0
   35.8640  -22.1270   26.0170 C   0  0  0  0  0  0  0  0  0  0  0  0
   36.9040  -23.1840   25.6500 C   0  0  0  0  0  0  0  0  0  0  0  0
   36.7720  -23.6910   24.1980 C   0  0  1  0  0  0  0  0  0  0  0  0
   36.2270  -25.1230   24.1090 C   0  0  0  0  0  0  0  0  0  0  0  0
   35.8610  -25.4580   22.7110 N   0  0  0  0  0  0  0  0  0  0  0  0
   35.9040  -22.7550   23.3380 C   0  0  0  0  0  0  0  0  0  0  0  0
   36.2090  -21.2890   23.6250 C   0  0  0  0  0  0  0  0  0  0  0  0
   40.1310  -19.6130   28.7270 N   0  0  0  0  0  0  0  0  0  0  0  0
   40.7300  -20.8140   29.0090 C   0  0  0  0  0  0  0  0  0  0  0  0
   42.2360  -20.8910   29.8010 Cl  0  0  0  0  0  0  0  0  0  0  0  0
   40.1480  -23.9970   29.8670 C   0  0  0  0  0  0  0  0  0  0  0  0
   40.3440  -25.3820   30.0000 C   0  0  0  0  0  0  0  0  0  0  0  0
   40.5440  -26.0700   28.7870 C   0  0  0  0  0  0  0  0  0  0  0  0
   40.1030  -28.9640   29.8760 H   0  0  0  0  0  0  0  0  0  0  0  0
   41.7680  -28.8760   29.7400 H   0  0  0  0  0  0  0  0  0  0  0  0
   41.1080  -28.5460   26.6140 H   0  0  0  0  0  0  0  0  0  0  0  0
   40.8220  -26.1540   25.4370 H   0  0  0  0  0  0  0  0  0  0  0  0
   40.3193  -23.4909   26.4407 H   0  0  0  0  0  0  0  0  0  0  0  0
   38.0340  -21.7380   27.6380 H   0  0  0  0  0  0  0  0  0  0  0  0
   38.4393  -18.2339   26.9028 H   0  0  0  0  0  0  0  0  0  0  0  0
   36.4655  -18.5089   29.0926 H   0  0  0  0  0  0  0  0  0  0  0  0
   38.1807  -17.9419   29.4751 H   0  0  0  0  0  0  0  0  0  0  0  0
   35.6449  -16.2891   29.9421 H   0  0  0  0  0  0  0  0  0  0  0  0
   35.0716  -13.9726   29.2353 H   0  0  0  0  0  0  0  0  0  0  0  0
   36.1466  -12.9748   27.2212 H   0  0  0  0  0  0  0  0  0  0  0  0
   37.7971  -14.3006   25.9045 H   0  0  0  0  0  0  0  0  0  0  0  0
   38.3666  -16.6250   26.5970 H   0  0  0  0  0  0  0  0  0  0  0  0
   36.5700  -20.4720   27.4910 H   0  0  0  0  0  0  0  0  0  0  0  0
   34.9065  -20.4592   25.1184 H   0  0  0  0  0  0  0  0  0  0  0  0
   36.0502  -21.7921   27.0481 H   0  0  0  0  0  0  0  0  0  0  0  0
   34.8699  -22.5866   25.9140 H   0  0  0  0  0  0  0  0  0  0  0  0
   37.9056  -22.7477   25.7779 H   0  0  0  0  0  0  0  0  0  0  0  0
   36.7403  -24.0465   26.3128 H   0  0  0  0  0  0  0  0  0  0  0  0
   37.7973  -23.6953   23.7996 H   0  0  0  0  0  0  0  0  0  0  0  0
   36.9980  -25.8253   24.4588 H   0  0  0  0  0  0  0  0  0  0  0  0
   35.3280  -25.1993   24.7383 H   0  0  0  0  0  0  0  0  0  0  0  0
   35.2300  -26.2700   22.6670 H   0  0  0  0  0  0  0  0  0  0  0  0
   35.3960  -24.6800   22.2260 H   0  0  0  0  0  0  0  0  0  0  0  0
   36.6970  -25.6980   22.1610 H   0  0  0  0  0  0  0  0  0  0  0  0
   36.1020  -22.9599   22.2755 H   0  0  0  0  0  0  0  0  0  0  0  0
   34.8480  -22.9420   23.5829 H   0  0  0  0  0  0  0  0  0  0  0  0
   37.2735  -21.1027   23.4199 H   0  0  0  0  0  0  0  0  0  0  0  0
   35.5616  -20.6785   22.9784 H   0  0  0  0  0  0  0  0  0  0  0  0
   39.9903  -23.4024   30.7789 H   0  0  0  0  0  0  0  0  0  0  0  0
   40.3415  -25.8898   30.9758 H   0  0  0  0  0  0  0  0  0  0  0  0
  1  2  1  0
  2  3  2  0
  3  4  1  0
  4  5  1  0
  5  6  2  0
  6  7  1  0
  7  8  1  0
  8  9  1  0
  9 10  1  0
 10 11  1  0
 11 12  1  0
 12 13  1  0
 13 14  2  0
 14 15  1  0
 15 16  2  0
 16 17  1  0
 17 18  2  0
 11 19  1  0
 19 20  1  0
 20 21  2  0
 20 22  1  0
 22 23  1  0
 23 24  1  0
 24 25  1  0
 25 26  1  0
 26 27  1  0
 25 28  1  0
 28 29  1  0
 10 30  2  0
 30 31  1  0
 31 32  1  0
  7 33  2  0
 33 34  1  0
 34 35  2  0
 35  2  1  0
 35  5  1  0
 31  8  2  0
 18 13  1  0
 29 22  1  0
  1 36  1  0
  1 37  1  0
  3 38  1  0
  4 39  1  0
  6 40  1  0
  9 41  1  0
 11 42  1  6
 12 43  1  0
 12 44  1  0
 14 45  1  0
 15 46  1  0
 16 47  1  0
 17 48  1  0
 18 49  1  0
 19 50  1  0
 22 51  1  1
 23 52  1  0
 23 53  1  0
 24 54  1  0
 24 55  1  0
 25 56  1  1
 26 57  1  0
 26 58  1  0
 27 59  1  0
 27 60  1  0
 27 61  1  0
 28 62  1  0
 28 63  1  0
 29 64  1  0
 29 65  1  0
 33 66  1  0
 34 67  1  0
M  CHG  2   3   1  27   1
M  END
>  <meeko>  (6) 
{"is_sidechain": [false], "free_energy": -9.011, "intermolecular_energy": -12.757, "internal_energy": -1.744}

$$$$
4ty7_ligand
     RDKit          3D

 67 71  0  0  0  0  0  0  0  0999 V2000
   34.5820  -13.2340   29.9790 N   0  0  0  0  0  0  0  0  0  0  0  0
   35.3830  -13.4160   28.8820 C   0  0  0  0  0  0  0  0  0  0  0  0
   35.7220  -12.4110   27.9590 N   0  0  0  0  0  0  0  0  0  0  0  0
   36.6150  -13.0320   26.9140 N   0  0  0  0  0  0  0  0  0  0  0  0
   36.7720  -14.3820   27.2530 C   0  0  0  0  0  0  0  0  0  0  0  0
   37.4840  -15.3940   26.6270 C   0  0  0  0  0  0  0  0  0  0  0  0
   37.4510  -16.6800   27.1990 C   0  0  0  0  0  0  0  0  0  0  0  0
   38.1760  -17.7690   26.5420 C   0  0  0  0  0  0  0  0  0  0  0  0
   37.7730  -19.0870   26.5770 N   0  0  0  0  0  0  0  0  0  0  0  0
   38.7000  -19.8450   25.9040 C   0  0  0  0  0  0  0  0  0  0  0  0
   38.5860  -21.3420   25.7760 C   0  0  2  0  0  0  0  0  0  0  0  0
   37.2090  -21.8710   26.2300 C   0  0  0  0  0  0  0  0  0  0  0  0
   36.2570  -22.2730   25.1240 C   0  0  0  0  0  0  0  0  0  0  0  0
   35.6700  -21.3120   24.2900 C   0  0  0  0  0  0  0  0  0  0  0  0
   34.7810  -21.6950   23.2850 C   0  0  0  0  0  0  0  0  0  0  0  0
   34.4710  -23.0400   23.0980 C   0  0  0  0  0  0  0  0  0  0  0  0
   35.0510  -24.0060   23.9180 C   0  0  0  0  0  0  0  0  0  0  0  0
   35.9370  -23.6250   24.9260 C   0  0  0  0  0  0  0  0  0  0  0  0
   39.6770  -21.9280   26.5380 N   0  0  0  0  0  0  0  0  0  0  0  0
   39.7200  -21.8680   27.9100 C   0  0  0  0  0  0  0  0  0  0  0  0
   38.9810  -21.1490   28.5760 O   0  0  0  0  0  0  0  0  0  0  0  0
   40.8090  -22.7510   28.5250 C   0  0  2  0  0  0  0  0  0  0  0  0
   41.2080  -23.9030   27.5860 C   0  0  0  0  0  0  0  0  0  0  0  0
   40.3220  -25.1350   27.7610 C   0  0  0  0  0  0  0  0  0  0  0  0
   40.3180  -25.6820   29.2050 C   0  0  1  0  0  0  0  0  0  0  0  0
   41.0810  -27.0050   29.3470 C   0  0  0  0  0  0  0  0  0  0  0  0
   40.2260  -28.1490   28.9460 N   0  0  0  0  0  0  0  0  0  0  0  0
   40.8710  -24.6570   30.2110 C   0  0  0  0  0  0  0  0  0  0  0  0
   40.3660  -23.2500   29.9100 C   0  0  0  0  0  0  0  0  0  0  0  0
   39.6480  -19.0770   25.4050 N   0  0  0  0  0  0  0  0  0  0  0  0
   39.3400  -17.7970   25.7890 C   0  0  0  0  0  0  0  0  0  0  0  0
   40.3150  -16.4750   25.3370 Cl  0  0  0  0  0  0  0  0  0  0  0  0
   36.7230  -16.9470   28.3900 C   0  0  0  0  0  0  0  0  0  0  0  0
   35.9850  -15.9690   29.0800 C   0  0  0  0  0  0  0  0  0  0  0  0
   36.0140  -14.6870   28.4980 C   0  0  0  0  0  0  0  0  0  0  0  0
   33.5820  -13.0420   29.9770 H   0  0  0  0  0  0  0  0  0  0  0  0
   34.9260  -13.3070   30.9370 H   0  0  0  0  0  0  0  0  0  0  0  0
   35.4240  -11.4380   27.9770 H   0  0  0  0  0  0  0  0  0  0  0  0
   37.0090  -12.5340   26.1140 H   0  0  0  0  0  0  0  0  0  0  0  0
   38.0583  -15.1976   25.7096 H   0  0  0  0  0  0  0  0  0  0  0  0
   36.9490  -19.4450   27.0410 H   0  0  0  0  0  0  0  0  0  0  0  0
   38.6636  -21.6323   24.7178 H   0  0  0  0  0  0  0  0  0  0  0  0
   37.3795  -22.7530   26.8648 H   0  0  0  0  0  0  0  0  0  0  0  0
   36.7241  -21.0310   26.7490 H   0  0  0  0  0  0  0  0  0  0  0  0
   35.9118  -20.2479   24.4286 H   0  0  0  0  0  0  0  0  0  0  0  0
   34.3234  -20.9320   22.6381 H   0  0  0  0  0  0  0  0  0  0  0  0
   33.7699  -23.3390   22.3048 H   0  0  0  0  0  0  0  0  0  0  0  0
   34.8102  -25.0691   23.7704 H   0  0  0  0  0  0  0  0  0  0  0  0
   36.3893  -24.3919   25.5720 H   0  0  0  0  0  0  0  0  0  0  0  0
   40.0920  -22.7440   26.0960 H   0  0  0  0  0  0  0  0  0  0  0  0
   41.7155  -22.1430   28.6610 H   0  0  0  0  0  0  0  0  0  0  0  0
   41.1260  -23.5546   26.5459 H   0  0  0  0  0  0  0  0  0  0  0  0
   42.2389  -24.1950   27.8351 H   0  0  0  0  0  0  0  0  0  0  0  0
   39.2913  -24.8662   27.4863 H   0  0  0  0  0  0  0  0  0  0  0  0
   40.7298  -25.9252   27.1135 H   0  0  0  0  0  0  0  0  0  0  0  0
   39.2605  -25.8761   29.4374 H   0  0  0  0  0  0  0  0  0  0  0  0
   41.9731  -26.9781   28.7040 H   0  0  0  0  0  0  0  0  0  0  0  0
   41.3730  -27.1336   30.3997 H   0  0  0  0  0  0  0  0  0  0  0  0
   39.5910  -28.4330   29.7040 H   0  0  0  0  0  0  0  0  0  0  0  0
   39.6490  -27.9400   28.1210 H   0  0  0  0  0  0  0  0  0  0  0  0
   40.7990  -28.9700   28.7110 H   0  0  0  0  0  0  0  0  0  0  0  0
   40.5515  -24.9423   31.2242 H   0  0  0  0  0  0  0  0  0  0  0  0
   41.9682  -24.6540   30.1327 H   0  0  0  0  0  0  0  0  0  0  0  0
   39.2667  -23.2536   29.9490 H   0  0  0  0  0  0  0  0  0  0  0  0
   40.7944  -22.5722   30.6630 H   0  0  0  0  0  0  0  0  0  0  0  0
   36.7376  -17.9706   28.7925 H   0  0  0  0  0  0  0  0  0  0  0  0
   35.4281  -16.1883   30.0029 H   0  0  0  0  0  0  0  0  0  0  0  0
  1  2  1  0
  2  3  2  0
  3  4  1  0
  4  5  1  0
  5  6  2  0
  6  7  1  0
  7  8  1  0
  8  9  1  0
  9 10  1  0
 10 11  1  0
 11 12  1  0
 12 13  1  0
 13 14  2  0
 14 15  1  0
 15 16  2  0
 16 17  1  0
 17 18  2  0
 11 19  1  0
 19 20  1  0
 20 21  2  0
 20 22  1  0
 22 23  1  0
 23 24  1  0
 24 25  1  0
 25 26  1  0
 26 27  1  0
 25 28  1  0
 28 29  1  0
 10 30  2  0
 30 31  1  0
 31 32  1  0
  7 33  2  0
 33 34  1  0
 34 35  2  0
 35  2  1  0
 35  5  1  0
 31  8  2  0
 18 13  1  0
 29 22  1  0
  1 36  1  0
  1 37  1  0
  3 38  1  0
  4 39  1  0
  6 40  1  0
  9 41  1  0
 11 42  1  6
 12 43  1  0
 12 44  1  0
 14 45  1  0
 15 46  1  0
 16 47  1  0
 17 48  1  0
 18 49  1  0
 19 50  1  0
 22 51  1  6
 23 52  1  0
 23 53  1  0
 24 54  1  0
 24 55  1  0
 25 56  1  6
 26 57  1  0
 26 58  1  0
 27 59  1  0
 27 60  1  0
 27 61  1  0
 28 62  1  0
 28 63  1  0
 29 64  1  0
 29 65  1  0
 33 66  1  0
 34 67  1  0
M  CHG  2   3   1  27   1
M  END
>  <meeko>  (7) 
{"is_sidechain": [false], "free_energy": -8.968, "intermolecular_energy": -13.562, "internal_energy": -0.875}

$$$$
4ty7_ligand
     RDKit          3D

 67 71  0  0  0  0  0  0  0  0999 V2000
   47.2530  -21.6790   31.8860 N   0  0  0  0  0  0  0  0  0  0  0  0
   45.9150  -21.7280   31.5850 C   0  0  0  0  0  0  0  0  0  0  0  0
   44.9210  -22.2560   32.4260 N   0  0  0  0  0  0  0  0  0  0  0  0
   43.5980  -22.1140   31.7160 N   0  0  0  0  0  0  0  0  0  0  0  0
   43.8560  -21.5090   30.4790 C   0  0  0  0  0  0  0  0  0  0  0  0
   42.9970  -21.1600   29.4480 C   0  0  0  0  0  0  0  0  0  0  0  0
   43.5490  -20.5640   28.2980 C   0  0  0  0  0  0  0  0  0  0  0  0
   42.6640  -20.2100   27.1860 C   0  0  0  0  0  0  0  0  0  0  0  0
   41.3190  -19.9450   27.3340 N   0  0  0  0  0  0  0  0  0  0  0  0
   40.7840  -19.6960   26.0940 C   0  0  0  0  0  0  0  0  0  0  0  0
   39.3220  -19.4010   25.8840 C   0  0  2  0  0  0  0  0  0  0  0  0
   38.9440  -19.3160   24.3900 C   0  0  0  0  0  0  0  0  0  0  0  0
   37.5870  -19.8730   24.0170 C   0  0  0  0  0  0  0  0  0  0  0  0
   36.9150  -19.4300   22.8710 C   0  0  0  0  0  0  0  0  0  0  0  0
   35.6570  -19.9400   22.5470 C   0  0  0  0  0  0  0  0  0  0  0  0
   35.0590  -20.9000   23.3600 C   0  0  0  0  0  0  0  0  0  0  0  0
   35.7190  -21.3530   24.5000 C   0  0  0  0  0  0  0  0  0  0  0  0
   36.9760  -20.8410   24.8290 C   0  0  0  0  0  0  0  0  0  0  0  0
   39.0200  -18.1700   26.5980 N   0  0  0  0  0  0  0  0  0  0  0  0
   38.7510  -18.1590   27.9460 C   0  0  0  0  0  0  0  0  0  0  0  0
   38.5300  -19.1760   28.5960 O   0  0  0  0  0  0  0  0  0  0  0  0
   38.7070  -16.7510   28.5460 C   0  0  2  0  0  0  0  0  0  0  0  0
   37.5240  -16.5810   29.5150 C   0  0  0  0  0  0  0  0  0  0  0  0
   36.2410  -16.1550   28.8030 C   0  0  0  0  0  0  0  0  0  0  0  0
   36.3930  -14.8410   28.0070 C   0  0  1  0  0  0  0  0  0  0  0  0
   35.6630  -13.6580   28.6570 C   0  0  0  0  0  0  0  0  0  0  0  0
   36.0340  -12.3840   27.9920 N   0  0  0  0  0  0  0  0  0  0  0  0
   37.8700  -14.4730   27.7800 C   0  0  0  0  0  0  0  0  0  0  0  0
   38.7030  -15.6990   27.4240 C   0  0  0  0  0  0  0  0  0  0  0  0
   41.7240  -19.7440   25.1690 N   0  0  0  0  0  0  0  0  0  0  0  0
   42.8860  -20.0590   25.8260 C   0  0  0  0  0  0  0  0  0  0  0  0
   44.3640  -20.2090   24.9920 Cl  0  0  0  0  0  0  0  0  0  0  0  0
   44.9430  -20.3110   28.1870 C   0  0  0  0  0  0  0  0  0  0  0  0
   45.8690  -20.6320   29.1940 C   0  0  0  0  0  0  0  0  0  0  0  0
   45.3120  -21.2360   30.3380 C   0  0  0  0  0  0  0  0  0  0  0  0
   48.0090  -21.4290   31.2530 H   0  0  0  0  0  0  0  0  0  0  0  0
   47.6190  -21.8700   32.8190 H   0  0  0  0  0  0  0  0  0  0  0  0
   45.0540  -22.6670   33.3480 H   0  0  0  0  0  0  0  0  0  0  0  0
   42.6990  -22.4200   32.0910 H   0  0  0  0  0  0  0  0  0  0  0  0
   41.9152  -21.3435   29.5263 H   0  0  0  0  0  0  0  0  0  0  0  0
   40.8020  -19.9570   28.2030 H   0  0  0  0  0  0  0  0  0  0  0  0
   38.7144  -20.2281   26.2800 H   0  0  0  0  0  0  0  0  0  0  0  0
   38.9649  -18.2559   24.0972 H   0  0  0  0  0  0  0  0  0  0  0  0
   39.6776  -19.9429   23.8620 H   0  0  0  0  0  0  0  0  0  0  0  0
   37.3820  -18.6748   22.2217 H   0  0  0  0  0  0  0  0  0  0  0  0
   35.1359  -19.5827   21.6466 H   0  0  0  0  0  0  0  0  0  0  0  0
   34.0672  -21.2998   23.1022 H   0  0  0  0  0  0  0  0  0  0  0  0
   35.2501  -22.1140   25.1411 H   0  0  0  0  0  0  0  0  0  0  0  0
   37.4915  -21.1995   25.7322 H   0  0  0  0  0  0  0  0  0  0  0  0
   39.4780  -17.3500   26.2100 H   0  0  0  0  0  0  0  0  0  0  0  0
   39.6154  -16.5980   29.1472 H   0  0  0  0  0  0  0  0  0  0  0  0
   37.3437  -17.5398   30.0232 H   0  0  0  0  0  0  0  0  0  0  0  0
   37.7887  -15.7879   30.2297 H   0  0  0  0  0  0  0  0  0  0  0  0
   35.9466  -16.9535   28.1061 H   0  0  0  0  0  0  0  0  0  0  0  0
   35.4802  -15.9807   29.5781 H   0  0  0  0  0  0  0  0  0  0  0  0
   35.9190  -15.0363   27.0338 H   0  0  0  0  0  0  0  0  0  0  0  0
   34.5773  -13.8098   28.5667 H   0  0  0  0  0  0  0  0  0  0  0  0
   35.9533  -13.6019   29.7165 H   0  0  0  0  0  0  0  0  0  0  0  0
   36.7670  -11.8830   28.5130 H   0  0  0  0  0  0  0  0  0  0  0  0
   36.3790  -12.5250   27.0330 H   0  0  0  0  0  0  0  0  0  0  0  0
   35.2240  -11.7530   27.9300 H   0  0  0  0  0  0  0  0  0  0  0  0
   37.9348  -13.7457   26.9573 H   0  0  0  0  0  0  0  0  0  0  0  0
   38.2664  -14.0455   28.7128 H   0  0  0  0  0  0  0  0  0  0  0  0
   38.2883  -16.1555   26.5132 H   0  0  0  0  0  0  0  0  0  0  0  0
   39.7406  -15.3669   27.2719 H   0  0  0  0  0  0  0  0  0  0  0  0
   45.3162  -19.8398   27.2657 H   0  0  0  0  0  0  0  0  0  0  0  0
   46.9454  -20.4274   29.0964 H   0  0  0  0  0  0  0  0  0  0  0  0
  1  2  1  0
  2  3  2  0
  3  4  1  0
  4  5  1  0
  5  6  2  0
  6  7  1  0
  7  8  1  0
  8  9  1  0
  9 10  1  0
 10 11  1  0
 11 12  1  0
 12 13  1  0
 13 14  2  0
 14 15  1  0
 15 16  2  0
 16 17  1  0
 17 18  2  0
 11 19  1  0
 19 20  1  0
 20 21  2  0
 20 22  1  0
 22 23  1  0
 23 24  1  0
 24 25  1  0
 25 26  1  0
 26 27  1  0
 25 28  1  0
 28 29  1  0
 10 30  2  0
 30 31  1  0
 31 32  1  0
  7 33  2  0
 33 34  1  0
 34 35  2  0
 35  2  1  0
 35  5  1  0
 31  8  2  0
 18 13  1  0
 29 22  1  0
  1 36  1  0
  1 37  1  0
  3 38  1  0
  4 39  1  0
  6 40  1  0
  9 41  1  0
 11 42  1  1
 12 43  1  0
 12 44  1  0
 14 45  1  0
 15 46  1  0
 16 47  1  0
 17 48  1  0
 18 49  1  0
 19 50  1  0
 22 51  1  6
 23 52  1  0
 23 53  1  0
 24 54  1  0
 24 55  1  0
 25 56  1  1
 26 57  1  0
 26 58  1  0
 27 59  1  0
 27 60  1  0
 27 61  1  0
 28 62  1  0
 28 63  1  0
 29 64  1  0
 29 65  1  0
 33 66  1  0
 34 67  1  0
M  CHG  2   3   1  27   1
M  END
>  <meeko>  (8) 
{"is_sidechain": [false], "free_energy": -8.949, "intermolecular_energy": -13.226, "internal_energy": -1.184}

$$$$
4ty7_ligand
     RDKit          3D

 67 71  0  0  0  0  0  0  0  0999 V2000
   34.6380  -26.2740   23.7380 N   0  0  0  0  0  0  0  0  0  0  0  0
   34.6050  -24.9550   23.3650 C   0  0  0  0  0  0  0  0  0  0  0  0
   33.9170  -24.4520   22.2470 N   0  0  0  0  0  0  0  0  0  0  0  0
   34.1410  -22.9610   22.2040 N   0  0  0  0  0  0  0  0  0  0  0  0
   34.9560  -22.6340   23.2960 C   0  0  0  0  0  0  0  0  0  0  0  0
   35.4600  -21.4120   23.7120 C   0  0  0  0  0  0  0  0  0  0  0  0
   36.2740  -21.3850   24.8600 C   0  0  0  0  0  0  0  0  0  0  0  0
   36.8370  -20.1090   25.3040 C   0  0  0  0  0  0  0  0  0  0  0  0
   37.5290  -19.9470   26.4860 N   0  0  0  0  0  0  0  0  0  0  0  0
   37.8720  -18.6240   26.6130 C   0  0  0  0  0  0  0  0  0  0  0  0
   38.6120  -18.0880   27.8110 C   0  0  2  0  0  0  0  0  0  0  0  0
   38.9100  -16.5780   27.6960 C   0  0  0  0  0  0  0  0  0  0  0  0
   37.7490  -15.6510   27.9850 C   0  0  0  0  0  0  0  0  0  0  0  0
   37.6900  -14.3700   27.4200 C   0  0  0  0  0  0  0  0  0  0  0  0
   36.6220  -13.5180   27.7070 C   0  0  0  0  0  0  0  0  0  0  0  0
   35.6010  -13.9370   28.5570 C   0  0  0  0  0  0  0  0  0  0  0  0
   35.6450  -15.2100   29.1220 C   0  0  0  0  0  0  0  0  0  0  0  0
   36.7140  -16.0620   28.8390 C   0  0  0  0  0  0  0  0  0  0  0  0
   39.8250  -18.8770   27.9610 N   0  0  0  0  0  0  0  0  0  0  0  0
   40.2100  -19.3930   29.1750 C   0  0  0  0  0  0  0  0  0  0  0  0
   39.7020  -19.0590   30.2410 O   0  0  0  0  0  0  0  0  0  0  0  0
   41.3680  -20.3900   29.0720 C   0  0  2  0  0  0  0  0  0  0  0  0
   41.3520  -21.1480   27.7340 C   0  0  0  0  0  0  0  0  0  0  0  0
   40.4760  -22.4000   27.7800 C   0  0  0  0  0  0  0  0  0  0  0  0
   40.8960  -23.3960   28.8820 C   0  0  1  0  0  0  0  0  0  0  0  0
   41.5590  -24.6620   28.3260 C   0  0  0  0  0  0  0  0  0  0  0  0
   42.8260  -24.9490   29.0430 N   0  0  0  0  0  0  0  0  0  0  0  0
   41.8220  -22.7450   29.9250 C   0  0  0  0  0  0  0  0  0  0  0  0
   41.3570  -21.3380   30.2840 C   0  0  0  0  0  0  0  0  0  0  0  0
   37.4760  -17.9410   25.5560 N   0  0  0  0  0  0  0  0  0  0  0  0
   36.8380  -18.8420   24.7420 C   0  0  0  0  0  0  0  0  0  0  0  0
   36.1760  -18.3700   23.2440 Cl  0  0  0  0  0  0  0  0  0  0  0  0
   36.5700  -22.5690   25.5890 C   0  0  0  0  0  0  0  0  0  0  0  0
   36.0880  -23.8390   25.2300 C   0  0  0  0  0  0  0  0  0  0  0  0
   35.2820  -23.8600   24.0740 C   0  0  0  0  0  0  0  0  0  0  0  0
   34.1560  -26.6940   24.5300 H   0  0  0  0  0  0  0  0  0  0  0  0
   35.1480  -26.9870   23.2150 H   0  0  0  0  0  0  0  0  0  0  0  0
   33.3660  -24.9860   21.5770 H   0  0  0  0  0  0  0  0  0  0  0  0
   33.7620  -22.3350   21.4920 H   0  0  0  0  0  0  0  0  0  0  0  0
   35.2303  -20.4885   23.1603 H   0  0  0  0  0  0  0  0  0  0  0  0
   37.7290  -20.6720   27.1620 H   0  0  0  0  0  0  0  0  0  0  0  0
   37.9842  -18.1820   28.7093 H   0  0  0  0  0  0  0  0  0  0  0  0
   39.7167  -16.3388   28.4045 H   0  0  0  0  0  0  0  0  0  0  0  0
   39.1729  -16.4060   26.6418 H   0  0  0  0  0  0  0  0  0  0  0  0
   38.4910  -14.0333   26.7455 H   0  0  0  0  0  0  0  0  0  0  0  0
   36.5866  -12.5132   27.2608 H   0  0  0  0  0  0  0  0  0  0  0  0
   34.7608  -13.2636   28.7820 H   0  0  0  0  0  0  0  0  0  0  0  0
   34.8377  -15.5434   29.7907 H   0  0  0  0  0  0  0  0  0  0  0  0
   36.7454  -17.0650   29.2896 H   0  0  0  0  0  0  0  0  0  0  0  0
   40.0710  -19.4100   27.1310 H   0  0  0  0  0  0  0  0  0  0  0  0
   42.3144  -19.8297   29.0905 H   0  0  0  0  0  0  0  0  0  0  0  0
   40.9664  -20.4764   26.9528 H   0  0  0  0  0  0  0  0  0  0  0  0
   42.3821  -21.4689   27.5197 H   0  0  0  0  0  0  0  0  0  0  0  0
   39.4361  -22.0925   27.9646 H   0  0  0  0  0  0  0  0  0  0  0  0
   40.5897  -22.9141   26.8142 H   0  0  0  0  0  0  0  0  0  0  0  0
   39.9581  -23.6946   29.3730 H   0  0  0  0  0  0  0  0  0  0  0  0
   40.8732  -25.5130   28.4502 H   0  0  0  0  0  0  0  0  0  0  0  0
   41.7835  -24.5048   27.2607 H   0  0  0  0  0  0  0  0  0  0  0  0
   42.9820  -25.9610   29.1480 H   0  0  0  0  0  0  0  0  0  0  0  0
   43.6480  -24.5570   28.5660 H   0  0  0  0  0  0  0  0  0  0  0  0
   42.8090  -24.5480   29.9910 H   0  0  0  0  0  0  0  0  0  0  0  0
   41.8260  -23.3632   30.8348 H   0  0  0  0  0  0  0  0  0  0  0  0
   42.8319  -22.6755   29.4945 H   0  0  0  0  0  0  0  0  0  0  0  0
   40.3319  -21.3946   30.6790 H   0  0  0  0  0  0  0  0  0  0  0  0
   42.0552  -20.9344   31.0321 H   0  0  0  0  0  0  0  0  0  0  0  0
   37.2095  -22.4866   26.4802 H   0  0  0  0  0  0  0  0  0  0  0  0
   36.3215  -24.7463   25.8064 H   0  0  0  0  0  0  0  0  0  0  0  0
  1  2  1  0
  2  3  2  0
  3  4  1  0
  4  5  1  0
  5  6  2  0
  6  7  1  0
  7  8  1  0
  8  9  1  0
  9 10  1  0
 10 11  1  0
 11 12  1  0
 12 13  1  0
 13 14  2  0
 14 15  1  0
 15 16  2  0
 16 17  1  0
 17 18  2  0
 11 19  1  0
 19 20  1  0
 20 21  2  0
 20 22  1  0
 22 23  1  0
 23 24  1  0
 24 25  1  0
 25 26  1  0
 26 27  1  0
 25 28  1  0
 28 29  1  0
 10 30  2  0
 30 31  1  0
 31 32  1  0
  7 33  2  0
 33 34  1  0
 34 35  2  0
 35  2  1  0
 35  5  1  0
 31  8  2  0
 18 13  1  0
 29 22  1  0
  1 36  1  0
  1 37  1  0
  3 38  1  0
  4 39  1  0
  6 40  1  0
  9 41  1  0
 11 42  1  1
 12 43  1  0
 12 44  1  0
 14 45  1  0
 15 46  1  0
 16 47  1  0
 17 48  1  0
 18 49  1  0
 19 50  1  0
 22 51  1  1
 23 52  1  0
 23 53  1  0
 24 54  1  0
 24 55  1  0
 25 56  1  6
 26 57  1  0
 26 58  1  0
 27 59  1  0
 27 60  1  0
 27 61  1  0
 28 62  1  0
 28 63  1  0
 29 64  1  0
 29 65  1  0
 33 66  1  0
 34 67  1  0
M  CHG  2   3   1  27   1
M  END
>  <meeko>  (9) 
{"is_sidechain": [false], "free_energy": -8.784, "intermolecular_energy": -13.086, "internal_energy": -1.081}

$$$$
