4cr9_ligand
     RDKit          3D

 25 26  0  0  0  0  0  0  0  0999 V2000
   53.7820   20.1930   11.5620 C   0  0  0  0  0  0  0  0  0  0  0  0
   52.7630   21.2600   11.8680 C   0  0  0  0  0  0  0  0  0  0  0  0
   53.2080   22.5480   12.1940 C   0  0  0  0  0  0  0  0  0  0  0  0
   52.2940   23.5600   12.4650 C   0  0  0  0  0  0  0  0  0  0  0  0
   52.7070   24.8240   12.8420 N   0  0  0  0  0  0  0  0  0  0  0  0
   50.9910   23.2680   12.4580 N   0  0  0  0  0  0  0  0  0  0  0  0
   50.4910   22.0570   12.1570 C   0  0  0  0  0  0  0  0  0  0  0  0
   49.1040   21.8580   12.1430 C   0  0  0  0  0  0  0  0  0  0  0  0
   48.5800   20.6050   11.8220 C   0  0  0  0  0  0  0  0  0  0  0  0
   49.4230   19.5280   11.5540 C   0  0  0  0  0  0  0  0  0  0  0  0
   48.8940   18.3230   11.1000 N   0  0  0  0  0  0  0  0  0  0  0  0
   50.8060   19.7450   11.5240 C   0  0  0  0  0  0  0  0  0  0  0  0
   51.3740   21.0000   11.8440 C   0  0  0  0  0  0  0  0  0  0  0  0
   54.1754   19.7811   12.5030 H   0  0  0  0  0  0  0  0  0  0  0  0
   53.3077   19.3892   10.9798 H   0  0  0  0  0  0  0  0  0  0  0  0
   54.6068   20.6298   10.9798 H   0  0  0  0  0  0  0  0  0  0  0  0
   54.2866   22.7597   12.2358 H   0  0  0  0  0  0  0  0  0  0  0  0
   52.8920   24.9400   13.8380 H   0  0  0  0  0  0  0  0  0  0  0  0
   53.3560   25.3530   12.2720 H   0  0  0  0  0  0  0  0  0  0  0  0
   50.3470   24.0090   12.7050 H   0  0  0  0  0  0  0  0  0  0  0  0
   48.4272   22.6906   12.3854 H   0  0  0  0  0  0  0  0  0  0  0  0
   47.4896   20.4659   11.7800 H   0  0  0  0  0  0  0  0  0  0  0  0
   49.1140   17.5040   11.6620 H   0  0  0  0  0  0  0  0  0  0  0  0
   49.0020   18.1370   10.1060 H   0  0  0  0  0  0  0  0  0  0  0  0
   51.4705   18.9146   11.2432 H   0  0  0  0  0  0  0  0  0  0  0  0
  1  2  1  0
  2  3  2  0
  3  4  1  0
  4  5  1  0
  4  6  2  0
  6  7  1  0
  7  8  2  0
  8  9  1  0
  9 10  2  0
 10 11  1  0
 10 12  1  0
 12 13  2  0
 13  2  1  0
 13  7  1  0
  1 14  1  0
  1 15  1  0
  1 16  1  0
  3 17  1  0
  5 18  1  0
  5 19  1  0
  6 20  1  0
  8 21  1  0
  9 22  1  0
 11 23  1  0
 11 24  1  0
 12 25  1  0
M  CHG  1   6   1
M  END
>  <meeko>  (1) 
{"is_sidechain": [false], "free_energy": -6.903, "intermolecular_energy": -7.307, "internal_energy": 0.0}

$$$$
4cr9_ligand
     RDKit          3D

 25 26  0  0  0  0  0  0  0  0999 V2000
   49.2250   22.9630   11.7730 C   0  0  0  0  0  0  0  0  0  0  0  0
   49.8160   21.5780   11.7180 C   0  0  0  0  0  0  0  0  0  0  0  0
   48.9580   20.4790   11.5780 C   0  0  0  0  0  0  0  0  0  0  0  0
   49.4730   19.1900   11.5070 C   0  0  0  0  0  0  0  0  0  0  0  0
   48.6460   18.0860   11.4220 N   0  0  0  0  0  0  0  0  0  0  0  0
   50.7920   19.0160   11.6270 N   0  0  0  0  0  0  0  0  0  0  0  0
   51.6750   20.0210   11.7660 C   0  0  0  0  0  0  0  0  0  0  0  0
   53.0440   19.7380   11.8500 C   0  0  0  0  0  0  0  0  0  0  0  0
   53.9650   20.7780   11.9850 C   0  0  0  0  0  0  0  0  0  0  0  0
   53.5370   22.1010   12.0820 C   0  0  0  0  0  0  0  0  0  0  0  0
   54.4660   23.1380   12.0770 N   0  0  0  0  0  0  0  0  0  0  0  0
   52.1710   22.3800   11.9520 C   0  0  0  0  0  0  0  0  0  0  0  0
   51.2090   21.3530   11.8130 C   0  0  0  0  0  0  0  0  0  0  0  0
   49.0960   23.2652   12.8228 H   0  0  0  0  0  0  0  0  0  0  0  0
   49.8998   23.6699   11.2682 H   0  0  0  0  0  0  0  0  0  0  0  0
   48.2477   22.9649   11.2682 H   0  0  0  0  0  0  0  0  0  0  0  0
   47.8708   20.6373   11.5240 H   0  0  0  0  0  0  0  0  0  0  0  0
   49.1230   17.1980   11.2720 H   0  0  0  0  0  0  0  0  0  0  0  0
   47.8450   17.9850   12.0330 H   0  0  0  0  0  0  0  0  0  0  0  0
   51.1380   18.0650   11.6200 H   0  0  0  0  0  0  0  0  0  0  0  0
   53.3935   18.6958   11.8096 H   0  0  0  0  0  0  0  0  0  0  0  0
   55.0409   20.5510   12.0152 H   0  0  0  0  0  0  0  0  0  0  0  0
   55.3810   22.9110   11.6930 H   0  0  0  0  0  0  0  0  0  0  0  0
   54.5420   23.6700   12.9400 H   0  0  0  0  0  0  0  0  0  0  0  0
   51.8367   23.4280   11.9582 H   0  0  0  0  0  0  0  0  0  0  0  0
  1  2  1  0
  2  3  2  0
  3  4  1  0
  4  5  1  0
  4  6  2  0
  6  7  1  0
  7  8  2  0
  8  9  1  0
  9 10  2  0
 10 11  1  0
 10 12  1  0
 12 13  2  0
 13  2  1  0
 13  7  1  0
  1 14  1  0
  1 15  1  0
  1 16  1  0
  3 17  1  0
  5 18  1  0
  5 19  1  0
  6 20  1  0
  8 21  1  0
  9 22  1  0
 11 23  1  0
 11 24  1  0
 12 25  1  0
M  CHG  1   6   1
M  END
>  <meeko>  (2) 
{"is_sidechain": [false], "free_energy": -6.564, "intermolecular_energy": -6.948, "internal_energy": 0.0}

$$$$
4cr9_ligand
     RDKit          3D

 25 26  0  0  0  0  0  0  0  0999 V2000
   54.1000   22.7850   12.1250 C   0  0  0  0  0  0  0  0  0  0  0  0
   53.3530   21.4780   12.1740 C   0  0  0  0  0  0  0  0  0  0  0  0
   54.0720   20.2920   12.3750 C   0  0  0  0  0  0  0  0  0  0  0  0
   53.4110   19.0710   12.4420 C   0  0  0  0  0  0  0  0  0  0  0  0
   54.1020   17.8830   12.5860 N   0  0  0  0  0  0  0  0  0  0  0  0
   52.0880   19.0450   12.2600 N   0  0  0  0  0  0  0  0  0  0  0  0
   51.3330   20.1400   12.0610 C   0  0  0  0  0  0  0  0  0  0  0  0
   49.9460   20.0130   11.9140 C   0  0  0  0  0  0  0  0  0  0  0  0
   49.1560   21.1460   11.7160 C   0  0  0  0  0  0  0  0  0  0  0  0
   49.7370   22.4100   11.6180 C   0  0  0  0  0  0  0  0  0  0  0  0
   48.9330   23.5460   11.5600 N   0  0  0  0  0  0  0  0  0  0  0  0
   51.1180   22.5350   11.8110 C   0  0  0  0  0  0  0  0  0  0  0  0
   51.9490   21.4100   12.0140 C   0  0  0  0  0  0  0  0  0  0  0  0
   54.2986   23.1325   13.1496 H   0  0  0  0  0  0  0  0  0  0  0  0
   55.0532   22.6429   11.5948 H   0  0  0  0  0  0  0  0  0  0  0  0
   53.4937   23.5342   11.5948 H   0  0  0  0  0  0  0  0  0  0  0  0
   55.1664   20.3275   12.4804 H   0  0  0  0  0  0  0  0  0  0  0  0
   53.5300   17.0780   12.8420 H   0  0  0  0  0  0  0  0  0  0  0  0
   54.8450   17.6300   11.9470 H   0  0  0  0  0  0  0  0  0  0  0  0
   51.6360   18.1400   12.2660 H   0  0  0  0  0  0  0  0  0  0  0  0
   49.4785   19.0181   11.9547 H   0  0  0  0  0  0  0  0  0  0  0  0
   48.0639   21.0411   11.6364 H   0  0  0  0  0  0  0  0  0  0  0  0
   49.2820   24.3610   12.0580 H   0  0  0  0  0  0  0  0  0  0  0  0
   47.9420   23.3970   11.7320 H   0  0  0  0  0  0  0  0  0  0  0  0
   51.5694   23.5381   11.8045 H   0  0  0  0  0  0  0  0  0  0  0  0
  1  2  1  0
  2  3  2  0
  3  4  1  0
  4  5  1  0
  4  6  2  0
  6  7  1  0
  7  8  2  0
  8  9  1  0
  9 10  2  0
 10 11  1  0
 10 12  1  0
 12 13  2  0
 13  2  1  0
 13  7  1  0
  1 14  1  0
  1 15  1  0
  1 16  1  0
  3 17  1  0
  5 18  1  0
  5 19  1  0
  6 20  1  0
  8 21  1  0
  9 22  1  0
 11 23  1  0
 11 24  1  0
 12 25  1  0
M  CHG  1   6   1
M  END
>  <meeko>  (3) 
{"is_sidechain": [false], "free_energy": -5.572, "intermolecular_energy": -5.898, "internal_energy": 0.0}

$$$$
4cr9_ligand
     RDKit          3D

 25 26  0  0  0  0  0  0  0  0999 V2000
   48.7000   19.0670   11.5540 C   0  0  0  0  0  0  0  0  0  0  0  0
   49.3900   20.3660   11.8790 C   0  0  0  0  0  0  0  0  0  0  0  0
   48.6300   21.5410   11.9440 C   0  0  0  0  0  0  0  0  0  0  0  0
   49.2340   22.7530   12.2570 C   0  0  0  0  0  0  0  0  0  0  0  0
   48.5160   23.9340   12.2750 N   0  0  0  0  0  0  0  0  0  0  0  0
   50.5560   22.7840   12.4440 N   0  0  0  0  0  0  0  0  0  0  0  0
   51.3500   21.6990   12.3960 C   0  0  0  0  0  0  0  0  0  0  0  0
   52.7230   21.8290   12.6400 C   0  0  0  0  0  0  0  0  0  0  0  0
   53.5490   20.7050   12.6010 C   0  0  0  0  0  0  0  0  0  0  0  0
   53.0320   19.4520   12.2770 C   0  0  0  0  0  0  0  0  0  0  0  0
   53.8350   18.3180   12.3760 N   0  0  0  0  0  0  0  0  0  0  0  0
   51.6520   19.3210   12.0790 C   0  0  0  0  0  0  0  0  0  0  0  0
   50.7840   20.4370   12.1110 C   0  0  0  0  0  0  0  0  0  0  0  0
   48.4271   18.5532   12.4876 H   0  0  0  0  0  0  0  0  0  0  0  0
   47.7913   19.2709   10.9686 H   0  0  0  0  0  0  0  0  0  0  0  0
   49.3777   18.4283   10.9686 H   0  0  0  0  0  0  0  0  0  0  0  0
   47.5486   21.5042   11.7461 H   0  0  0  0  0  0  0  0  0  0  0  0
   48.6000   24.4780   13.1330 H   0  0  0  0  0  0  0  0  0  0  0  0
   48.4650   24.5260   11.4550 H   0  0  0  0  0  0  0  0  0  0  0  0
   50.9790   23.6850   12.6240 H   0  0  0  0  0  0  0  0  0  0  0  0
   53.1505   22.8178   12.8625 H   0  0  0  0  0  0  0  0  0  0  0  0
   54.6202   20.8091   12.8285 H   0  0  0  0  0  0  0  0  0  0  0  0
   54.0600   17.8570   11.4970 H   0  0  0  0  0  0  0  0  0  0  0  0
   53.5700   17.6490   13.0940 H   0  0  0  0  0  0  0  0  0  0  0  0
   51.2312   18.3218   11.8933 H   0  0  0  0  0  0  0  0  0  0  0  0
  1  2  1  0
  2  3  2  0
  3  4  1  0
  4  5  1  0
  4  6  2  0
  6  7  1  0
  7  8  2  0
  8  9  1  0
  9 10  2  0
 10 11  1  0
 10 12  1  0
 12 13  2  0
 13  2  1  0
 13  7  1  0
  1 14  1  0
  1 15  1  0
  1 16  1  0
  3 17  1  0
  5 18  1  0
  5 19  1  0
  6 20  1  0
  8 21  1  0
  9 22  1  0
 11 23  1  0
 11 24  1  0
 12 25  1  0
M  CHG  1   6   1
M  END
>  <meeko>  (4) 
{"is_sidechain": [false], "free_energy": -5.501, "intermolecular_energy": -5.823, "internal_energy": 0.0}

$$$$
4cr9_ligand
     RDKit          3D

 25 26  0  0  0  0  0  0  0  0999 V2000
   52.4960   23.8840   15.4130 C   0  0  0  0  0  0  0  0  0  0  0  0
   52.5020   22.4590   14.9210 C   0  0  0  0  0  0  0  0  0  0  0  0
   53.2710   21.5090   15.6060 C   0  0  0  0  0  0  0  0  0  0  0  0
   53.2840   20.1830   15.1880 C   0  0  0  0  0  0  0  0  0  0  0  0
   54.0750   19.2370   15.8130 N   0  0  0  0  0  0  0  0  0  0  0  0
   52.5950   19.8460   14.0950 N   0  0  0  0  0  0  0  0  0  0  0  0
   51.8380   20.7020   13.3870 C   0  0  0  0  0  0  0  0  0  0  0  0
   51.1230   20.2440   12.2730 C   0  0  0  0  0  0  0  0  0  0  0  0
   50.3290   21.1270   11.5400 C   0  0  0  0  0  0  0  0  0  0  0  0
   50.2700   22.4790   11.8770 C   0  0  0  0  0  0  0  0  0  0  0  0
   49.3700   23.3210   11.2280 N   0  0  0  0  0  0  0  0  0  0  0  0
   50.9500   22.9200   13.0180 C   0  0  0  0  0  0  0  0  0  0  0  0
   51.7630   22.0560   13.7850 C   0  0  0  0  0  0  0  0  0  0  0  0
   52.4960   23.8921   16.5130 H   0  0  0  0  0  0  0  0  0  0  0  0
   53.3920   24.4036   15.0425 H   0  0  0  0  0  0  0  0  0  0  0  0
   51.5957   24.3960   15.0425 H   0  0  0  0  0  0  0  0  0  0  0  0
   53.8673   21.8137   16.4787 H   0  0  0  0  0  0  0  0  0  0  0  0
   54.5020   19.5400   16.6880 H   0  0  0  0  0  0  0  0  0  0  0  0
   53.7980   18.2640   15.8450 H   0  0  0  0  0  0  0  0  0  0  0  0
   52.6580   18.8850   13.7840 H   0  0  0  0  0  0  0  0  0  0  0  0
   51.1875   19.1869   11.9756 H   0  0  0  0  0  0  0  0  0  0  0  0
   49.7434   20.7527   10.6874 H   0  0  0  0  0  0  0  0  0  0  0  0
   48.9340   24.0340   11.8090 H   0  0  0  0  0  0  0  0  0  0  0  0
   48.6940   22.8650   10.6210 H   0  0  0  0  0  0  0  0  0  0  0  0
   50.8484   23.9709   13.3268 H   0  0  0  0  0  0  0  0  0  0  0  0
  1  2  1  0
  2  3  2  0
  3  4  1  0
  4  5  1  0
  4  6  2  0
  6  7  1  0
  7  8  2  0
  8  9  1  0
  9 10  2  0
 10 11  1  0
 10 12  1  0
 12 13  2  0
 13  2  1  0
 13  7  1  0
  1 14  1  0
  1 15  1  0
  1 16  1  0
  3 17  1  0
  5 18  1  0
  5 19  1  0
  6 20  1  0
  8 21  1  0
  9 22  1  0
 11 23  1  0
 11 24  1  0
 12 25  1  0
M  CHG  1   6   1
M  END
>  <meeko>  (5) 
{"is_sidechain": [false], "free_energy": -5.264, "intermolecular_energy": -5.572, "internal_energy": 0.0}

$$$$
4cr9_ligand
     RDKit          3D

 25 26  0  0  0  0  0  0  0  0999 V2000
   53.3420   18.6970   12.1480 C   0  0  0  0  0  0  0  0  0  0  0  0
   52.3310   19.8030   11.9890 C   0  0  0  0  0  0  0  0  0  0  0  0
   50.9850   19.4690   11.7880 C   0  0  0  0  0  0  0  0  0  0  0  0
   50.0260   20.4660   11.6540 C   0  0  0  0  0  0  0  0  0  0  0  0
   48.7010   20.1640   11.4010 N   0  0  0  0  0  0  0  0  0  0  0  0
   50.4180   21.7420   11.6700 N   0  0  0  0  0  0  0  0  0  0  0  0
   51.6890   22.1380   11.8570 C   0  0  0  0  0  0  0  0  0  0  0  0
   51.9960   23.5040   11.8910 C   0  0  0  0  0  0  0  0  0  0  0  0
   53.3130   23.9200   12.0940 C   0  0  0  0  0  0  0  0  0  0  0  0
   54.3430   22.9900   12.2200 C   0  0  0  0  0  0  0  0  0  0  0  0
   55.6270   23.4090   12.5590 N   0  0  0  0  0  0  0  0  0  0  0  0
   54.0230   21.6270   12.2300 C   0  0  0  0  0  0  0  0  0  0  0  0
   52.7010   21.1670   12.0280 C   0  0  0  0  0  0  0  0  0  0  0  0
   53.5142   18.5086   13.2180 H   0  0  0  0  0  0  0  0  0  0  0  0
   52.9620   17.7815   11.6710 H   0  0  0  0  0  0  0  0  0  0  0  0
   54.2878   18.9935   11.6710 H   0  0  0  0  0  0  0  0  0  0  0  0
   50.6857   18.4118   11.7360 H   0  0  0  0  0  0  0  0  0  0  0  0
   48.5340   19.6330   10.5470 H   0  0  0  0  0  0  0  0  0  0  0  0
   48.0780   19.8830   12.1480 H   0  0  0  0  0  0  0  0  0  0  0  0
   49.7080   22.4490   11.5240 H   0  0  0  0  0  0  0  0  0  0  0  0
   51.1986   24.2499   11.7576 H   0  0  0  0  0  0  0  0  0  0  0  0
   53.5403   24.9945   12.1552 H   0  0  0  0  0  0  0  0  0  0  0  0
   56.1350   23.9100   11.8340 H   0  0  0  0  0  0  0  0  0  0  0  0
   56.2120   22.7170   13.0200 H   0  0  0  0  0  0  0  0  0  0  0  0
   54.8236   20.8921   12.4000 H   0  0  0  0  0  0  0  0  0  0  0  0
  1  2  1  0
  2  3  2  0
  3  4  1  0
  4  5  1  0
  4  6  2  0
  6  7  1  0
  7  8  2  0
  8  9  1  0
  9 10  2  0
 10 11  1  0
 10 12  1  0
 12 13  2  0
 13  2  1  0
 13  7  1  0
  1 14  1  0
  1 15  1  0
  1 16  1  0
  3 17  1  0
  5 18  1  0
  5 19  1  0
  6 20  1  0
  8 21  1  0
  9 22  1  0
 11 23  1  0
 11 24  1  0
 12 25  1  0
M  CHG  1   6   1
M  END
>  <meeko>  (6) 
{"is_sidechain": [false], "free_energy": -5.179, "intermolecular_energy": -5.481, "internal_energy": 0.0}

$$$$
4cr9_ligand
     RDKit          3D

 25 26  0  0  0  0  0  0  0  0999 V2000
   51.8790   19.3680   12.1700 C   0  0  0  0  0  0  0  0  0  0  0  0
   51.5000   20.7840   12.5180 C   0  0  0  0  0  0  0  0  0  0  0  0
   50.5240   21.4330   11.7500 C   0  0  0  0  0  0  0  0  0  0  0  0
   50.1400   22.7340   12.0560 C   0  0  0  0  0  0  0  0  0  0  0  0
   49.2190   23.4150   11.2820 N   0  0  0  0  0  0  0  0  0  0  0  0
   50.7540   23.3670   13.0580 N   0  0  0  0  0  0  0  0  0  0  0  0
   51.6980   22.8100   13.8360 C   0  0  0  0  0  0  0  0  0  0  0  0
   52.2600   23.5470   14.8870 C   0  0  0  0  0  0  0  0  0  0  0  0
   53.2340   22.9700   15.7030 C   0  0  0  0  0  0  0  0  0  0  0  0
   53.6920   21.6760   15.4590 C   0  0  0  0  0  0  0  0  0  0  0  0
   54.5600   21.0610   16.3590 N   0  0  0  0  0  0  0  0  0  0  0  0
   53.0950   20.9300   14.4360 C   0  0  0  0  0  0  0  0  0  0  0  0
   52.1050   21.4800   13.5900 C   0  0  0  0  0  0  0  0  0  0  0  0
   52.0332   18.7920   13.0944 H   0  0  0  0  0  0  0  0  0  0  0  0
   51.0727   18.9069   11.5808 H   0  0  0  0  0  0  0  0  0  0  0  0
   52.8079   19.3713   11.5808 H   0  0  0  0  0  0  0  0  0  0  0  0
   50.0593   20.9107   10.9008 H   0  0  0  0  0  0  0  0  0  0  0  0
   48.2810   23.4730   11.6770 H   0  0  0  0  0  0  0  0  0  0  0  0
   49.4750   24.2630   10.7900 H   0  0  0  0  0  0  0  0  0  0  0  0
   50.4900   24.3290   13.2310 H   0  0  0  0  0  0  0  0  0  0  0  0
   51.9331   24.5814   15.0690 H   0  0  0  0  0  0  0  0  0  0  0  0
   53.6448   23.5423   16.5478 H   0  0  0  0  0  0  0  0  0  0  0  0
   55.4110   20.6750   15.9580 H   0  0  0  0  0  0  0  0  0  0  0  0
   54.1310   20.4200   17.0210 H   0  0  0  0  0  0  0  0  0  0  0  0
   53.4053   19.8854   14.2860 H   0  0  0  0  0  0  0  0  0  0  0  0
  1  2  1  0
  2  3  2  0
  3  4  1  0
  4  5  1  0
  4  6  2  0
  6  7  1  0
  7  8  2  0
  8  9  1  0
  9 10  2  0
 10 11  1  0
 10 12  1  0
 12 13  2  0
 13  2  1  0
 13  7  1  0
  1 14  1  0
  1 15  1  0
  1 16  1  0
  3 17  1  0
  5 18  1  0
  5 19  1  0
  6 20  1  0
  8 21  1  0
  9 22  1  0
 11 23  1  0
 11 24  1  0
 12 25  1  0
M  CHG  1   6   1
M  END
>  <meeko>  (7) 
{"is_sidechain": [false], "free_energy": -5.13, "intermolecular_energy": -5.43, "internal_energy": 0.0}

$$$$
4cr9_ligand
     RDKit          3D

 25 26  0  0  0  0  0  0  0  0999 V2000
   51.3510   23.2050   12.7680 C   0  0  0  0  0  0  0  0  0  0  0  0
   51.4910   21.7480   12.4110 C   0  0  0  0  0  0  0  0  0  0  0  0
   52.7740   21.1940   12.3150 C   0  0  0  0  0  0  0  0  0  0  0  0
   52.9370   19.8490   12.0030 C   0  0  0  0  0  0  0  0  0  0  0  0
   54.1920   19.2900   11.8500 N   0  0  0  0  0  0  0  0  0  0  0  0
   51.8530   19.1110   11.7490 N   0  0  0  0  0  0  0  0  0  0  0  0
   50.5930   19.5740   11.8190 C   0  0  0  0  0  0  0  0  0  0  0  0
   49.5180   18.7120   11.5670 C   0  0  0  0  0  0  0  0  0  0  0  0
   48.2080   19.1850   11.6480 C   0  0  0  0  0  0  0  0  0  0  0  0
   47.9510   20.5250   11.9360 C   0  0  0  0  0  0  0  0  0  0  0  0
   46.6440   20.9550   12.1510 N   0  0  0  0  0  0  0  0  0  0  0  0
   49.0270   21.3700   12.2330 C   0  0  0  0  0  0  0  0  0  0  0  0
   50.3680   20.9260   12.1610 C   0  0  0  0  0  0  0  0  0  0  0  0
   51.3404   23.3150   13.8624 H   0  0  0  0  0  0  0  0  0  0  0  0
   52.1992   23.7678   12.3511 H   0  0  0  0  0  0  0  0  0  0  0  0
   50.4112   23.5960   12.3511 H   0  0  0  0  0  0  0  0  0  0  0  0
   53.6573   21.8265   12.4874 H   0  0  0  0  0  0  0  0  0  0  0  0
   54.8860   19.5920   12.5330 H   0  0  0  0  0  0  0  0  0  0  0  0
   54.3030   18.3140   11.6040 H   0  0  0  0  0  0  0  0  0  0  0  0
   52.0000   18.1470   11.4780 H   0  0  0  0  0  0  0  0  0  0  0  0
   49.7070   17.6605   11.3048 H   0  0  0  0  0  0  0  0  0  0  0  0
   47.3687   18.4934   11.4829 H   0  0  0  0  0  0  0  0  0  0  0  0
   45.9310   20.5070   11.5810 H   0  0  0  0  0  0  0  0  0  0  0  0
   46.5110   21.9610   12.1980 H   0  0  0  0  0  0  0  0  0  0  0  0
   48.8237   22.4092   12.5309 H   0  0  0  0  0  0  0  0  0  0  0  0
  1  2  1  0
  2  3  2  0
  3  4  1  0
  4  5  1  0
  4  6  2  0
  6  7  1  0
  7  8  2  0
  8  9  1  0
  9 10  2  0
 10 11  1  0
 10 12  1  0
 12 13  2  0
 13  2  1  0
 13  7  1  0
  1 14  1  0
  1 15  1  0
  1 16  1  0
  3 17  1  0
  5 18  1  0
  5 19  1  0
  6 20  1  0
  8 21  1  0
  9 22  1  0
 11 23  1  0
 11 24  1  0
 12 25  1  0
M  CHG  1   6   1
M  END
>  <meeko>  (8) 
{"is_sidechain": [false], "free_energy": -5.092, "intermolecular_energy": -5.39, "internal_energy": 0.0}

$$$$
4cr9_ligand
     RDKit          3D

 25 26  0  0  0  0  0  0  0  0999 V2000
   52.0760   22.9620   14.8540 C   0  0  0  0  0  0  0  0  0  0  0  0
   51.7140   22.0770   13.6910 C   0  0  0  0  0  0  0  0  0  0  0  0
   50.6100   22.4170   12.8970 C   0  0  0  0  0  0  0  0  0  0  0  0
   50.2600   21.6300   11.8060 C   0  0  0  0  0  0  0  0  0  0  0  0
   49.1450   21.9140   11.0390 N   0  0  0  0  0  0  0  0  0  0  0  0
   50.9600   20.5200   11.5620 N   0  0  0  0  0  0  0  0  0  0  0  0
   52.0280   20.1290   12.2800 C   0  0  0  0  0  0  0  0  0  0  0  0
   52.7190   18.9640   11.9230 C   0  0  0  0  0  0  0  0  0  0  0  0
   53.8330   18.5590   12.6600 C   0  0  0  0  0  0  0  0  0  0  0  0
   54.2460   19.2770   13.7810 C   0  0  0  0  0  0  0  0  0  0  0  0
   55.4360   18.9460   14.4240 N   0  0  0  0  0  0  0  0  0  0  0  0
   53.5790   20.4650   14.1040 C   0  0  0  0  0  0  0  0  0  0  0  0
   52.4470   20.9080   13.3810 C   0  0  0  0  0  0  0  0  0  0  0  0
   51.8609   22.4361   15.7959 H   0  0  0  0  0  0  0  0  0  0  0  0
   53.1471   23.2082   14.8079 H   0  0  0  0  0  0  0  0  0  0  0  0
   51.4845   23.8883   14.8079 H   0  0  0  0  0  0  0  0  0  0  0  0
   50.0173   23.3116   13.1386 H   0  0  0  0  0  0  0  0  0  0  0  0
   48.4000   21.2200   11.0860 H   0  0  0  0  0  0  0  0  0  0  0  0
   48.7810   22.8570   10.9770 H   0  0  0  0  0  0  0  0  0  0  0  0
   50.6570   19.9390   10.7910 H   0  0  0  0  0  0  0  0  0  0  0  0
   52.3835   18.3680   11.0614 H   0  0  0  0  0  0  0  0  0  0  0  0
   54.3916   17.6626   12.3525 H   0  0  0  0  0  0  0  0  0  0  0  0
   55.3930   18.1440   15.0480 H   0  0  0  0  0  0  0  0  0  0  0  0
   55.9440   19.7200   14.8420 H   0  0  0  0  0  0  0  0  0  0  0  0
   53.9462   21.0717   14.9449 H   0  0  0  0  0  0  0  0  0  0  0  0
  1  2  1  0
  2  3  2  0
  3  4  1  0
  4  5  1  0
  4  6  2  0
  6  7  1  0
  7  8  2  0
  8  9  1  0
  9 10  2  0
 10 11  1  0
 10 12  1  0
 12 13  2  0
 13  2  1  0
 13  7  1  0
  1 14  1  0
  1 15  1  0
  1 16  1  0
  3 17  1  0
  5 18  1  0
  5 19  1  0
  6 20  1  0
  8 21  1  0
  9 22  1  0
 11 23  1  0
 11 24  1  0
 12 25  1  0
M  CHG  1   6   1
M  END
>  <meeko>  (9) 
{"is_sidechain": [false], "free_energy": -4.789, "intermolecular_energy": -5.069, "internal_energy": 0.0}

$$$$
