2p4y_ligand
     RDKit          3D

 61 65  0  0  0  0  0  0  0  0999 V2000
    8.5570    1.5820   17.1800 C   0  0  0  0  0  0  0  0  0  0  0  0
    8.4250    1.5640   15.7640 O   0  0  0  0  0  0  0  0  0  0  0  0
    9.2900    2.3530   15.0500 C   0  0  0  0  0  0  0  0  0  0  0  0
   10.6310    1.9510   15.1300 C   0  0  0  0  0  0  0  0  0  0  0  0
   11.6500    2.6470   14.4610 C   0  0  0  0  0  0  0  0  0  0  0  0
   11.2970    3.7750   13.7020 C   0  0  0  0  0  0  0  0  0  0  0  0
   11.9410    4.7460   12.8940 C   0  0  0  0  0  0  0  0  0  0  0  0
   13.3800    4.7920   12.6350 C   0  0  0  0  0  0  0  0  0  0  0  0
   14.0220    4.8460   11.4090 C   0  0  0  0  0  0  0  0  0  0  0  0
   13.4520    4.8340   10.0310 C   0  0  0  0  0  0  0  0  0  0  0  0
   15.3860    4.8950   11.6660 N   0  0  0  0  0  0  0  0  0  0  0  0
   16.4340    4.9990   10.6420 C   0  0  0  0  0  0  0  0  0  0  0  0
   16.8350    6.4070   10.2690 C   0  0  0  0  0  0  0  0  0  0  0  0
   15.9750    7.4480   10.6710 C   0  0  0  0  0  0  0  0  0  0  0  0
   16.2320    8.7720   10.3240 C   0  0  0  0  0  0  0  0  0  0  0  0
   15.4050    9.7850   10.7190 O   0  0  0  0  0  0  0  0  0  0  0  0
   15.2000   10.7660    9.6660 C   0  0  2  0  0  0  0  0  0  0  0  0
   14.8150   12.0720   10.3480 C   0  0  0  0  0  0  0  0  0  0  0  0
   14.0770   10.3100    8.6930 C   0  0  0  0  0  0  0  0  0  0  0  0
   14.2960   10.5750    7.4710 O   0  0  0  0  0  0  0  0  0  0  0  0
   13.0660    9.7490    9.2060 O   0  0  0  0  0  0  0  0  0  0  0  0
   17.3780    9.1000    9.6130 C   0  0  0  0  0  0  0  0  0  0  0  0
   18.2350    8.0850    9.1900 C   0  0  0  0  0  0  0  0  0  0  0  0
   17.9580    6.7450    9.4990 C   0  0  0  0  0  0  0  0  0  0  0  0
   19.0370    5.5610    8.8560 Cl  0  0  0  0  0  0  0  0  0  0  0  0
   15.6060    4.9400   13.0360 C   0  0  0  0  0  0  0  0  0  0  0  0
   16.7910    5.0650   13.7860 C   0  0  0  0  0  0  0  0  0  0  0  0
   16.7250    5.0480   15.1870 C   0  0  0  0  0  0  0  0  0  0  0  0
   17.9410    5.1680   15.8010 O   0  0  0  0  0  0  0  0  0  0  0  0
   18.4310    4.0570   16.5240 C   0  0  0  0  0  0  0  0  0  0  0  0
   19.7820    4.1020   16.5420 F   0  0  0  0  0  0  0  0  0  0  0  0
   18.0630    2.8910   15.9470 F   0  0  0  0  0  0  0  0  0  0  0  0
   18.0000    4.0750   17.8060 F   0  0  0  0  0  0  0  0  0  0  0  0
   15.4930    4.9190   15.8220 C   0  0  0  0  0  0  0  0  0  0  0  0
   14.3140    4.8140   15.0730 C   0  0  0  0  0  0  0  0  0  0  0  0
   14.3630    4.8290   13.6620 C   0  0  0  0  0  0  0  0  0  0  0  0
   11.0710    5.6120   12.3590 N   0  0  0  0  0  0  0  0  0  0  0  0
    9.8280    5.2320   12.8410 O   0  0  0  0  0  0  0  0  0  0  0  0
    9.9640    4.1370   13.6380 C   0  0  0  0  0  0  0  0  0  0  0  0
    8.9270    3.4690   14.2900 C   0  0  0  0  0  0  0  0  0  0  0  0
    7.5680    1.4471   17.6422 H   0  0  0  0  0  0  0  0  0  0  0  0
    9.2239    0.7665   17.4965 H   0  0  0  0  0  0  0  0  0  0  0  0
    8.9812    2.5463   17.4965 H   0  0  0  0  0  0  0  0  0  0  0  0
   10.8910    1.0680   15.7322 H   0  0  0  0  0  0  0  0  0  0  0  0
   12.6973    2.3178   14.5293 H   0  0  0  0  0  0  0  0  0  0  0  0
   12.3538    4.8109   10.0887 H   0  0  0  0  0  0  0  0  0  0  0  0
   13.7720    5.7391    9.4939 H   0  0  0  0  0  0  0  0  0  0  0  0
   13.8098    3.9432    9.4939 H   0  0  0  0  0  0  0  0  0  0  0  0
   17.3280    4.4791   11.0167 H   0  0  0  0  0  0  0  0  0  0  0  0
   16.0133    4.5509    9.7297 H   0  0  0  0  0  0  0  0  0  0  0  0
   15.0837    7.2105   11.2703 H   0  0  0  0  0  0  0  0  0  0  0  0
   16.1147   10.8873    9.0672 H   0  0  0  0  0  0  0  0  0  0  0  0
   14.8536   11.9409   11.4395 H   0  0  0  0  0  0  0  0  0  0  0  0
   15.5181   12.8632   10.0486 H   0  0  0  0  0  0  0  0  0  0  0  0
   13.7951   12.3553   10.0486 H   0  0  0  0  0  0  0  0  0  0  0  0
   17.6080   10.1513    9.3853 H   0  0  0  0  0  0  0  0  0  0  0  0
   19.1349    8.3367    8.6097 H   0  0  0  0  0  0  0  0  0  0  0  0
   17.7602    5.1750   13.2776 H   0  0  0  0  0  0  0  0  0  0  0  0
   15.4449    4.8994   16.9208 H   0  0  0  0  0  0  0  0  0  0  0  0
   13.3457    4.7194   15.5863 H   0  0  0  0  0  0  0  0  0  0  0  0
    7.8816    3.8020   14.2105 H   0  0  0  0  0  0  0  0  0  0  0  0
  1  2  1  0
  2  3  1  0
  3  4  2  0
  4  5  1  0
  5  6  2  0
  6  7  1  0
  7  8  1  0
  8  9  2  0
  9 10  1  0
  9 11  1  0
 11 12  1  0
 12 13  1  0
 13 14  2  0
 14 15  1  0
 15 16  1  0
 16 17  1  0
 17 18  1  0
 17 19  1  0
 19 20  2  0
 19 21  1  0
 15 22  2  0
 22 23  1  0
 23 24  2  0
 24 25  1  0
 11 26  1  0
 26 27  2  0
 27 28  1  0
 28 29  1  0
 29 30  1  0
 30 31  1  0
 30 32  1  0
 30 33  1  0
 28 34  2  0
 34 35  1  0
 35 36  2  0
  7 37  2  0
 37 38  1  0
 38 39  1  0
 39 40  2  0
 40  3  1  0
 39  6  1  0
 36  8  1  0
 24 13  1  0
 36 26  1  0
  1 41  1  0
  1 42  1  0
  1 43  1  0
  4 44  1  0
  5 45  1  0
 10 46  1  0
 10 47  1  0
 10 48  1  0
 12 49  1  0
 12 50  1  0
 14 51  1  0
 17 52  1  6
 18 53  1  0
 18 54  1  0
 18 55  1  0
 22 56  1  0
 23 57  1  0
 27 58  1  0
 34 59  1  0
 35 60  1  0
 40 61  1  0
M  CHG  1  21  -1
M  END
>  <meeko>  (1) 
{"is_sidechain": [false], "free_energy": -11.351, "intermolecular_energy": -17.323, "internal_energy": -2.086}

$$$$
2p4y_ligand
     RDKit          3D

 61 65  0  0  0  0  0  0  0  0999 V2000
   15.7690   12.2530    9.5600 C   0  0  0  0  0  0  0  0  0  0  0  0
   16.5360   11.3100    8.8200 O   0  0  0  0  0  0  0  0  0  0  0  0
   16.5930   10.0330    9.3150 C   0  0  0  0  0  0  0  0  0  0  0  0
   15.6690    9.7720   10.3360 C   0  0  0  0  0  0  0  0  0  0  0  0
   15.5910    8.5150   10.9560 C   0  0  0  0  0  0  0  0  0  0  0  0
   16.4740    7.5090   10.5320 C   0  0  0  0  0  0  0  0  0  0  0  0
   16.7570    6.1540   10.8410 C   0  0  0  0  0  0  0  0  0  0  0  0
   16.0650    5.3710   11.8650 C   0  0  0  0  0  0  0  0  0  0  0  0
   14.8220    4.7650   11.7770 C   0  0  0  0  0  0  0  0  0  0  0  0
   13.8370    4.7640   10.6570 C   0  0  0  0  0  0  0  0  0  0  0  0
   14.5970    4.1230   12.9880 N   0  0  0  0  0  0  0  0  0  0  0  0
   13.4080    3.3210   13.3080 C   0  0  0  0  0  0  0  0  0  0  0  0
   12.1400    4.1100   13.5350 C   0  0  0  0  0  0  0  0  0  0  0  0
   11.2170    4.1650   12.4720 C   0  0  0  0  0  0  0  0  0  0  0  0
   10.0480    4.9150   12.5690 C   0  0  0  0  0  0  0  0  0  0  0  0
    9.1470    4.9640   11.5430 O   0  0  0  0  0  0  0  0  0  0  0  0
    9.0890    6.2790   10.9280 C   0  0  2  0  0  0  0  0  0  0  0  0
    7.6930    6.4310   10.3390 C   0  0  0  0  0  0  0  0  0  0  0  0
   10.1660    6.4200    9.8150 C   0  0  0  0  0  0  0  0  0  0  0  0
   10.5610    7.6080    9.6090 O   0  0  0  0  0  0  0  0  0  0  0  0
   10.5210    5.3600    9.2230 O   0  0  0  0  0  0  0  0  0  0  0  0
    9.7410    5.5860   13.7440 C   0  0  0  0  0  0  0  0  0  0  0  0
   10.6470    5.5590   14.8040 C   0  0  0  0  0  0  0  0  0  0  0  0
   11.8470    4.8420   14.6960 C   0  0  0  0  0  0  0  0  0  0  0  0
   12.9350    4.9450   16.0320 Cl  0  0  0  0  0  0  0  0  0  0  0  0
   15.7070    4.2620   13.8090 C   0  0  0  0  0  0  0  0  0  0  0  0
   15.9920    3.7430   15.0860 C   0  0  0  0  0  0  0  0  0  0  0  0
   17.2020    4.0770   15.7120 C   0  0  0  0  0  0  0  0  0  0  0  0
   17.3580    3.5190   16.9510 O   0  0  0  0  0  0  0  0  0  0  0  0
   18.4330    3.9710   17.7510 C   0  0  0  0  0  0  0  0  0  0  0  0
   18.1500    3.7240   19.0500 F   0  0  0  0  0  0  0  0  0  0  0  0
   18.6240    5.3020   17.6150 F   0  0  0  0  0  0  0  0  0  0  0  0
   19.5800    3.3230   17.4460 F   0  0  0  0  0  0  0  0  0  0  0  0
   18.1110    4.9090   15.0650 C   0  0  0  0  0  0  0  0  0  0  0  0
   17.8330    5.4080   13.7860 C   0  0  0  0  0  0  0  0  0  0  0  0
   16.6200    5.0820   13.1420 C   0  0  0  0  0  0  0  0  0  0  0  0
   17.7220    5.6500   10.0610 N   0  0  0  0  0  0  0  0  0  0  0  0
   18.1110    6.6950    9.2350 O   0  0  0  0  0  0  0  0  0  0  0  0
   17.3660    7.7980    9.5140 C   0  0  0  0  0  0  0  0  0  0  0  0
   17.4700    9.0350    8.8780 C   0  0  0  0  0  0  0  0  0  0  0  0
   15.9117   12.0776   10.6365 H   0  0  0  0  0  0  0  0  0  0  0  0
   16.0980   13.2719    9.3077 H   0  0  0  0  0  0  0  0  0  0  0  0
   14.7045   12.1384    9.3077 H   0  0  0  0  0  0  0  0  0  0  0  0
   14.9876   10.5725   10.6597 H   0  0  0  0  0  0  0  0  0  0  0  0
   14.8575    8.3232   11.7530 H   0  0  0  0  0  0  0  0  0  0  0  0
   12.8161    4.7630   11.0666 H   0  0  0  0  0  0  0  0  0  0  0  0
   13.9833    5.6623   10.0392 H   0  0  0  0  0  0  0  0  0  0  0  0
   13.9851    3.8660   10.0392 H   0  0  0  0  0  0  0  0  0  0  0  0
   13.2315    2.6266   12.4733 H   0  0  0  0  0  0  0  0  0  0  0  0
   13.6279    2.8173   14.2608 H   0  0  0  0  0  0  0  0  0  0  0  0
   11.4238    3.6049   11.5481 H   0  0  0  0  0  0  0  0  0  0  0  0
    9.2911    7.0628   11.6729 H   0  0  0  0  0  0  0  0  0  0  0  0
    6.9581    6.5110   11.1535 H   0  0  0  0  0  0  0  0  0  0  0  0
    7.6535    7.3388    9.7190 H   0  0  0  0  0  0  0  0  0  0  0  0
    7.4590    5.5530    9.7190 H   0  0  0  0  0  0  0  0  0  0  0  0
    8.7920    6.1341   13.8386 H   0  0  0  0  0  0  0  0  0  0  0  0
   10.4184    6.1043   15.7316 H   0  0  0  0  0  0  0  0  0  0  0  0
   15.2717    3.0809   15.5889 H   0  0  0  0  0  0  0  0  0  0  0  0
   19.0551    5.1768   15.5619 H   0  0  0  0  0  0  0  0  0  0  0  0
   18.5635    6.0571   13.2810 H   0  0  0  0  0  0  0  0  0  0  0  0
   18.2016    9.2157    8.0767 H   0  0  0  0  0  0  0  0  0  0  0  0
  1  2  1  0
  2  3  1  0
  3  4  2  0
  4  5  1  0
  5  6  2  0
  6  7  1  0
  7  8  1  0
  8  9  2  0
  9 10  1  0
  9 11  1  0
 11 12  1  0
 12 13  1  0
 13 14  2  0
 14 15  1  0
 15 16  1  0
 16 17  1  0
 17 18  1  0
 17 19  1  0
 19 20  2  0
 19 21  1  0
 15 22  2  0
 22 23  1  0
 23 24  2  0
 24 25  1  0
 11 26  1  0
 26 27  2  0
 27 28  1  0
 28 29  1  0
 29 30  1  0
 30 31  1  0
 30 32  1  0
 30 33  1  0
 28 34  2  0
 34 35  1  0
 35 36  2  0
  7 37  2  0
 37 38  1  0
 38 39  1  0
 39 40  2  0
 40  3  1  0
 39  6  1  0
 36  8  1  0
 24 13  1  0
 36 26  1  0
  1 41  1  0
  1 42  1  0
  1 43  1  0
  4 44  1  0
  5 45  1  0
 10 46  1  0
 10 47  1  0
 10 48  1  0
 12 49  1  0
 12 50  1  0
 14 51  1  0
 17 52  1  1
 18 53  1  0
 18 54  1  0
 18 55  1  0
 22 56  1  0
 23 57  1  0
 27 58  1  0
 34 59  1  0
 35 60  1  0
 40 61  1  0
M  CHG  1  21  -1
M  END
>  <meeko>  (2) 
{"is_sidechain": [false], "free_energy": -9.586, "intermolecular_energy": -15.009, "internal_energy": -1.706}

$$$$
2p4y_ligand
     RDKit          3D

 61 65  0  0  0  0  0  0  0  0999 V2000
   19.2610   13.2230    7.5990 C   0  0  0  0  0  0  0  0  0  0  0  0
   19.0400   11.8750    7.2000 O   0  0  0  0  0  0  0  0  0  0  0  0
   17.9930   11.2170    7.7920 C   0  0  0  0  0  0  0  0  0  0  0  0
   18.2350    9.8580    8.0360 C   0  0  0  0  0  0  0  0  0  0  0  0
   17.2700    9.0340    8.6360 C   0  0  0  0  0  0  0  0  0  0  0  0
   16.0360    9.6040    8.9890 C   0  0  0  0  0  0  0  0  0  0  0  0
   14.8170    9.1940    9.5870 C   0  0  0  0  0  0  0  0  0  0  0  0
   14.5290    7.8350   10.0440 C   0  0  0  0  0  0  0  0  0  0  0  0
   15.3800    6.9590   10.6980 C   0  0  0  0  0  0  0  0  0  0  0  0
   16.8100    7.1270   11.0860 C   0  0  0  0  0  0  0  0  0  0  0  0
   14.6570    5.7980   10.9440 N   0  0  0  0  0  0  0  0  0  0  0  0
   15.1710    4.6210   11.6570 C   0  0  0  0  0  0  0  0  0  0  0  0
   14.9030    4.5980   13.1430 C   0  0  0  0  0  0  0  0  0  0  0  0
   13.5560    4.5740   13.5530 C   0  0  0  0  0  0  0  0  0  0  0  0
   13.2100    4.6100   14.9020 C   0  0  0  0  0  0  0  0  0  0  0  0
   11.9050    4.5780   15.3040 O   0  0  0  0  0  0  0  0  0  0  0  0
   11.1360    3.5770   14.5840 C   0  0  2  0  0  0  0  0  0  0  0  0
    9.6650    3.9120   14.7980 C   0  0  0  0  0  0  0  0  0  0  0  0
   11.4500    2.1490   15.1120 C   0  0  0  0  0  0  0  0  0  0  0  0
   11.6550    1.2830   14.2060 O   0  0  0  0  0  0  0  0  0  0  0  0
   11.4510    1.9880   16.3670 O   0  0  0  0  0  0  0  0  0  0  0  0
   14.1970    4.6170   15.8770 C   0  0  0  0  0  0  0  0  0  0  0  0
   15.5380    4.6580   15.4960 C   0  0  0  0  0  0  0  0  0  0  0  0
   15.8900    4.6670   14.1380 C   0  0  0  0  0  0  0  0  0  0  0  0
   17.5720    4.8050   13.7750 Cl  0  0  0  0  0  0  0  0  0  0  0  0
   13.3480    5.9580   10.5120 C   0  0  0  0  0  0  0  0  0  0  0  0
   12.2280    5.1090   10.6000 C   0  0  0  0  0  0  0  0  0  0  0  0
   11.0090    5.5170   10.0390 C   0  0  0  0  0  0  0  0  0  0  0  0
   10.0010    4.6040   10.1800 O   0  0  0  0  0  0  0  0  0  0  0  0
    8.9400    4.9180   11.0610 C   0  0  0  0  0  0  0  0  0  0  0  0
    8.4390    3.7720   11.5750 F   0  0  0  0  0  0  0  0  0  0  0  0
    7.9370    5.5560   10.4180 F   0  0  0  0  0  0  0  0  0  0  0  0
    9.3660    5.6820   12.0920 F   0  0  0  0  0  0  0  0  0  0  0  0
   10.9140    6.7550    9.4110 C   0  0  0  0  0  0  0  0  0  0  0  0
   12.0250    7.6050    9.3430 C   0  0  0  0  0  0  0  0  0  0  0  0
   13.2590    7.2110    9.9020 C   0  0  0  0  0  0  0  0  0  0  0  0
   13.9550   10.2110    9.7200 N   0  0  0  0  0  0  0  0  0  0  0  0
   14.5970   11.3130    9.1750 O   0  0  0  0  0  0  0  0  0  0  0  0
   15.8360   10.9510    8.7430 C   0  0  0  0  0  0  0  0  0  0  0  0
   16.7720   11.7970    8.1480 C   0  0  0  0  0  0  0  0  0  0  0  0
   19.2709   13.2834    8.6973 H   0  0  0  0  0  0  0  0  0  0  0  0
   20.2278   13.5685    7.2041 H   0  0  0  0  0  0  0  0  0  0  0  0
   18.4552   13.8591    7.2041 H   0  0  0  0  0  0  0  0  0  0  0  0
   19.2056    9.4265    7.7501 H   0  0  0  0  0  0  0  0  0  0  0  0
   17.4749    7.9699    8.8247 H   0  0  0  0  0  0  0  0  0  0  0  0
   16.8936    7.1368   12.1828 H   0  0  0  0  0  0  0  0  0  0  0  0
   17.4004    6.2920   10.6807 H   0  0  0  0  0  0  0  0  0  0  0  0
   17.1908    8.0761   10.6807 H   0  0  0  0  0  0  0  0  0  0  0  0
   14.7080    3.7267   11.2144 H   0  0  0  0  0  0  0  0  0  0  0  0
   16.2649    4.6521   11.5459 H   0  0  0  0  0  0  0  0  0  0  0  0
   12.7617    4.5259   12.7935 H   0  0  0  0  0  0  0  0  0  0  0  0
   11.3928    3.5879   13.5144 H   0  0  0  0  0  0  0  0  0  0  0  0
    9.4530    3.9603   15.8763 H   0  0  0  0  0  0  0  0  0  0  0  0
    9.4395    4.8845   14.3361 H   0  0  0  0  0  0  0  0  0  0  0  0
    9.0406    3.1331   14.3361 H   0  0  0  0  0  0  0  0  0  0  0  0
   13.9240    4.5904   16.9423 H   0  0  0  0  0  0  0  0  0  0  0  0
   16.3243    4.6834   16.2648 H   0  0  0  0  0  0  0  0  0  0  0  0
   12.3084    4.1346   11.1042 H   0  0  0  0  0  0  0  0  0  0  0  0
    9.9589    7.0685    8.9645 H   0  0  0  0  0  0  0  0  0  0  0  0
   11.9350    8.5848    8.8512 H   0  0  0  0  0  0  0  0  0  0  0  0
   16.5610   12.8616    7.9689 H   0  0  0  0  0  0  0  0  0  0  0  0
  1  2  1  0
  2  3  1  0
  3  4  2  0
  4  5  1  0
  5  6  2  0
  6  7  1  0
  7  8  1  0
  8  9  2  0
  9 10  1  0
  9 11  1  0
 11 12  1  0
 12 13  1  0
 13 14  2  0
 14 15  1  0
 15 16  1  0
 16 17  1  0
 17 18  1  0
 17 19  1  0
 19 20  2  0
 19 21  1  0
 15 22  2  0
 22 23  1  0
 23 24  2  0
 24 25  1  0
 11 26  1  0
 26 27  2  0
 27 28  1  0
 28 29  1  0
 29 30  1  0
 30 31  1  0
 30 32  1  0
 30 33  1  0
 28 34  2  0
 34 35  1  0
 35 36  2  0
  7 37  2  0
 37 38  1  0
 38 39  1  0
 39 40  2  0
 40  3  1  0
 39  6  1  0
 36  8  1  0
 24 13  1  0
 36 26  1  0
  1 41  1  0
  1 42  1  0
  1 43  1  0
  4 44  1  0
  5 45  1  0
 10 46  1  0
 10 47  1  0
 10 48  1  0
 12 49  1  0
 12 50  1  0
 14 51  1  0
 17 52  1  6
 18 53  1  0
 18 54  1  0
 18 55  1  0
 22 56  1  0
 23 57  1  0
 27 58  1  0
 34 59  1  0
 35 60  1  0
 40 61  1  0
M  CHG  1  21  -1
M  END
>  <meeko>  (3) 
{"is_sidechain": [false], "free_energy": -9.477, "intermolecular_energy": -14.937, "internal_energy": -1.612}

$$$$
2p4y_ligand
     RDKit          3D

 61 65  0  0  0  0  0  0  0  0999 V2000
   18.4640   10.8580    9.0810 C   0  0  0  0  0  0  0  0  0  0  0  0
   18.8170    9.5410    8.6720 O   0  0  0  0  0  0  0  0  0  0  0  0
   18.0590    8.5130    9.1720 C   0  0  0  0  0  0  0  0  0  0  0  0
   16.9080    8.9290    9.8540 C   0  0  0  0  0  0  0  0  0  0  0  0
   16.0200    8.0080   10.4300 C   0  0  0  0  0  0  0  0  0  0  0  0
   16.3130    6.6390   10.3130 C   0  0  0  0  0  0  0  0  0  0  0  0
   15.7460    5.4010   10.7080 C   0  0  0  0  0  0  0  0  0  0  0  0
   14.5050    5.2590   11.4710 C   0  0  0  0  0  0  0  0  0  0  0  0
   14.3550    5.2090   12.8470 C   0  0  0  0  0  0  0  0  0  0  0  0
   15.3860    5.2470   13.9240 C   0  0  0  0  0  0  0  0  0  0  0  0
   12.9940    5.0870   13.1020 N   0  0  0  0  0  0  0  0  0  0  0  0
   12.3890    5.0380   14.4400 C   0  0  0  0  0  0  0  0  0  0  0  0
   11.6550    3.7600   14.7690 C   0  0  0  0  0  0  0  0  0  0  0  0
   10.2490    3.8230   14.8330 C   0  0  0  0  0  0  0  0  0  0  0  0
    9.4910    2.7100   15.1860 C   0  0  0  0  0  0  0  0  0  0  0  0
    8.1270    2.7650   15.2410 O   0  0  0  0  0  0  0  0  0  0  0  0
    7.5080    2.1970   14.0550 C   0  0  2  0  0  0  0  0  0  0  0  0
    8.2350    0.8900   13.7610 C   0  0  0  0  0  0  0  0  0  0  0  0
    7.6270    3.1680   12.8470 C   0  0  0  0  0  0  0  0  0  0  0  0
    8.1920    2.6720   11.8240 O   0  0  0  0  0  0  0  0  0  0  0  0
    7.1750    4.3380   13.0060 O   0  0  0  0  0  0  0  0  0  0  0  0
   10.1080    1.4920   15.4340 C   0  0  0  0  0  0  0  0  0  0  0  0
   11.5000    1.4090   15.3920 C   0  0  0  0  0  0  0  0  0  0  0  0
   12.2700    2.5380   15.0810 C   0  0  0  0  0  0  0  0  0  0  0  0
   13.9850    2.3470   15.1410 Cl  0  0  0  0  0  0  0  0  0  0  0  0
   12.2860    5.1260   11.9090 C   0  0  0  0  0  0  0  0  0  0  0  0
   10.9030    5.1100   11.6460 C   0  0  0  0  0  0  0  0  0  0  0  0
   10.4540    5.1260   10.3170 C   0  0  0  0  0  0  0  0  0  0  0  0
    9.0930    5.0990   10.1910 O   0  0  0  0  0  0  0  0  0  0  0  0
    8.3970    6.3280   10.2490 C   0  0  0  0  0  0  0  0  0  0  0  0
    8.0940    6.6040   11.5380 F   0  0  0  0  0  0  0  0  0  0  0  0
    7.2380    6.2720    9.5550 F   0  0  0  0  0  0  0  0  0  0  0  0
    9.1520    7.3440    9.7740 F   0  0  0  0  0  0  0  0  0  0  0  0
   11.3750    5.1660    9.2740 C   0  0  0  0  0  0  0  0  0  0  0  0
   12.7500    5.2010    9.5400 C   0  0  0  0  0  0  0  0  0  0  0  0
   13.2180    5.1850   10.8710 C   0  0  0  0  0  0  0  0  0  0  0  0
   16.4640    4.3570   10.2740 N   0  0  0  0  0  0  0  0  0  0  0  0
   17.5460    4.9070    9.6030 O   0  0  0  0  0  0  0  0  0  0  0  0
   17.4530    6.2650    9.6240 C   0  0  0  0  0  0  0  0  0  0  0  0
   18.3560    7.1530    9.0410 C   0  0  0  0  0  0  0  0  0  0  0  0
   18.4502   10.9094   10.1797 H   0  0  0  0  0  0  0  0  0  0  0  0
   19.2020   11.5737    8.6897 H   0  0  0  0  0  0  0  0  0  0  0  0
   17.4670   11.1086    8.6897 H   0  0  0  0  0  0  0  0  0  0  0  0
   16.6952   10.0048    9.9400 H   0  0  0  0  0  0  0  0  0  0  0  0
   15.1180    8.3489   10.9593 H   0  0  0  0  0  0  0  0  0  0  0  0
   14.8911    5.2288   14.9062 H   0  0  0  0  0  0  0  0  0  0  0  0
   16.0468    4.3726   13.8301 H   0  0  0  0  0  0  0  0  0  0  0  0
   15.9806    6.1677   13.8301 H   0  0  0  0  0  0  0  0  0  0  0  0
   13.1913    5.1697   15.1809 H   0  0  0  0  0  0  0  0  0  0  0  0
   11.6337    5.8374   14.4622 H   0  0  0  0  0  0  0  0  0  0  0  0
    9.7403    4.7700   14.5995 H   0  0  0  0  0  0  0  0  0  0  0  0
    6.4349    2.0239   14.2237 H   0  0  0  0  0  0  0  0  0  0  0  0
    8.5071    0.4008   14.7079 H   0  0  0  0  0  0  0  0  0  0  0  0
    7.5764    0.2264   13.1815 H   0  0  0  0  0  0  0  0  0  0  0  0
    9.1462    1.0996   13.1815 H   0  0  0  0  0  0  0  0  0  0  0  0
    9.5052    0.6004   15.6615 H   0  0  0  0  0  0  0  0  0  0  0  0
   11.9967    0.4508   15.6045 H   0  0  0  0  0  0  0  0  0  0  0  0
   10.1808    5.0852   12.4753 H   0  0  0  0  0  0  0  0  0  0  0  0
   11.0204    5.1702    8.2327 H   0  0  0  0  0  0  0  0  0  0  0  0
   13.4679    5.2411    8.7076 H   0  0  0  0  0  0  0  0  0  0  0  0
   19.2522    6.8031    8.5077 H   0  0  0  0  0  0  0  0  0  0  0  0
  1  2  1  0
  2  3  1  0
  3  4  2  0
  4  5  1  0
  5  6  2  0
  6  7  1  0
  7  8  1  0
  8  9  2  0
  9 10  1  0
  9 11  1  0
 11 12  1  0
 12 13  1  0
 13 14  2  0
 14 15  1  0
 15 16  1  0
 16 17  1  0
 17 18  1  0
 17 19  1  0
 19 20  2  0
 19 21  1  0
 15 22  2  0
 22 23  1  0
 23 24  2  0
 24 25  1  0
 11 26  1  0
 26 27  2  0
 27 28  1  0
 28 29  1  0
 29 30  1  0
 30 31  1  0
 30 32  1  0
 30 33  1  0
 28 34  2  0
 34 35  1  0
 35 36  2  0
  7 37  2  0
 37 38  1  0
 38 39  1  0
 39 40  2  0
 40  3  1  0
 39  6  1  0
 36  8  1  0
 24 13  1  0
 36 26  1  0
  1 41  1  0
  1 42  1  0
  1 43  1  0
  4 44  1  0
  5 45  1  0
 10 46  1  0
 10 47  1  0
 10 48  1  0
 12 49  1  0
 12 50  1  0
 14 51  1  0
 17 52  1  1
 18 53  1  0
 18 54  1  0
 18 55  1  0
 22 56  1  0
 23 57  1  0
 27 58  1  0
 34 59  1  0
 35 60  1  0
 40 61  1  0
M  CHG  1  21  -1
M  END
>  <meeko>  (4) 
{"is_sidechain": [false], "free_energy": -9.281, "intermolecular_energy": -14.903, "internal_energy": -1.347}

$$$$
2p4y_ligand
     RDKit          3D

 61 65  0  0  0  0  0  0  0  0999 V2000
    9.3660    0.3710   18.1830 C   0  0  0  0  0  0  0  0  0  0  0  0
    8.4400    1.0960   17.3820 O   0  0  0  0  0  0  0  0  0  0  0  0
    8.9650    1.9410   16.4390 C   0  0  0  0  0  0  0  0  0  0  0  0
   10.3290    1.7400   16.1840 C   0  0  0  0  0  0  0  0  0  0  0  0
   11.0260    2.5190   15.2480 C   0  0  0  0  0  0  0  0  0  0  0  0
   10.3230    3.5240   14.5630 C   0  0  0  0  0  0  0  0  0  0  0  0
   10.5840    4.5110   13.5790 C   0  0  0  0  0  0  0  0  0  0  0  0
   11.8870    4.7400   12.9540 C   0  0  0  0  0  0  0  0  0  0  0  0
   12.1660    4.9160   11.6090 C   0  0  0  0  0  0  0  0  0  0  0  0
   11.2510    4.8850   10.4310 C   0  0  0  0  0  0  0  0  0  0  0  0
   13.5360    5.1200   11.5010 N   0  0  0  0  0  0  0  0  0  0  0  0
   14.2520    5.3870   10.2470 C   0  0  0  0  0  0  0  0  0  0  0  0
   14.5210    6.8440    9.9550 C   0  0  0  0  0  0  0  0  0  0  0  0
   15.8520    7.2900   10.0810 C   0  0  0  0  0  0  0  0  0  0  0  0
   16.1860    8.6280    9.8880 C   0  0  0  0  0  0  0  0  0  0  0  0
   17.4770    9.0620   10.0010 O   0  0  0  0  0  0  0  0  0  0  0  0
   18.0860    9.3110    8.7050 C   0  0  2  0  0  0  0  0  0  0  0  0
   19.1580    8.2470    8.5100 C   0  0  0  0  0  0  0  0  0  0  0  0
   18.7130   10.7320    8.6500 C   0  0  0  0  0  0  0  0  0  0  0  0
   18.3490   11.5080    9.5870 O   0  0  0  0  0  0  0  0  0  0  0  0
   19.4940   10.9770    7.6860 O   0  0  0  0  0  0  0  0  0  0  0  0
   15.2150    9.5460    9.5140 C   0  0  0  0  0  0  0  0  0  0  0  0
   13.8890    9.1310    9.3990 C   0  0  0  0  0  0  0  0  0  0  0  0
   13.5390    7.7940    9.6350 C   0  0  0  0  0  0  0  0  0  0  0  0
   11.8590    7.4050    9.5490 Cl  0  0  0  0  0  0  0  0  0  0  0  0
   14.1100    5.1410   12.7650 C   0  0  0  0  0  0  0  0  0  0  0  0
   15.4320    5.3800   13.1840 C   0  0  0  0  0  0  0  0  0  0  0  0
   15.7480    5.3050   14.5480 C   0  0  0  0  0  0  0  0  0  0  0  0
   17.0640    5.5480   14.8270 O   0  0  0  0  0  0  0  0  0  0  0  0
   17.8890    4.4450   15.1450 C   0  0  0  0  0  0  0  0  0  0  0  0
   19.1270    4.8940   15.4520 F   0  0  0  0  0  0  0  0  0  0  0  0
   18.0050    3.5980   14.0980 F   0  0  0  0  0  0  0  0  0  0  0  0
   17.4170    3.7680   16.2160 F   0  0  0  0  0  0  0  0  0  0  0  0
   14.7530    5.0050   15.4740 C   0  0  0  0  0  0  0  0  0  0  0  0
   13.4340    4.7860   15.0560 C   0  0  0  0  0  0  0  0  0  0  0  0
   13.1000    4.8570   13.6870 C   0  0  0  0  0  0  0  0  0  0  0  0
    9.4830    5.2010   13.2540 N   0  0  0  0  0  0  0  0  0  0  0  0
    8.4760    4.6880   14.0570 O   0  0  0  0  0  0  0  0  0  0  0  0
    8.9760    3.6880   14.8320 C   0  0  0  0  0  0  0  0  0  0  0  0
    8.2530    2.9320   15.7560 C   0  0  0  0  0  0  0  0  0  0  0  0
    9.1449    0.5441   19.2466 H   0  0  0  0  0  0  0  0  0  0  0  0
    9.2808   -0.7030   17.9608 H   0  0  0  0  0  0  0  0  0  0  0  0
   10.3881    0.7114   17.9608 H   0  0  0  0  0  0  0  0  0  0  0  0
   10.8663    0.9517   16.7316 H   0  0  0  0  0  0  0  0  0  0  0  0
   12.0953    2.3472   15.0555 H   0  0  0  0  0  0  0  0  0  0  0  0
   10.2077    4.8497   10.7779 H   0  0  0  0  0  0  0  0  0  0  0  0
   11.4049    5.7889    9.8233 H   0  0  0  0  0  0  0  0  0  0  0  0
   11.4657    3.9936    9.8233 H   0  0  0  0  0  0  0  0  0  0  0  0
   15.2192    4.8649   10.2901 H   0  0  0  0  0  0  0  0  0  0  0  0
   13.5947    5.0314    9.4398 H   0  0  0  0  0  0  0  0  0  0  0  0
   16.6415    6.5679   10.3365 H   0  0  0  0  0  0  0  0  0  0  0  0
   17.3311    9.2624    7.9064 H   0  0  0  0  0  0  0  0  0  0  0  0
   19.5103    7.8973    9.4916 H   0  0  0  0  0  0  0  0  0  0  0  0
   18.7363    7.4001    7.9488 H   0  0  0  0  0  0  0  0  0  0  0  0
   20.0017    8.6751    7.9488 H   0  0  0  0  0  0  0  0  0  0  0  0
   15.4890   10.5916    9.3101 H   0  0  0  0  0  0  0  0  0  0  0  0
   13.1116    9.8579    9.1210 H   0  0  0  0  0  0  0  0  0  0  0  0
   16.2115    5.6238   12.4471 H   0  0  0  0  0  0  0  0  0  0  0  0
   15.0045    4.9393   16.5429 H   0  0  0  0  0  0  0  0  0  0  0  0
   12.6551    4.5576   15.7985 H   0  0  0  0  0  0  0  0  0  0  0  0
    7.1821    3.1061   15.9370 H   0  0  0  0  0  0  0  0  0  0  0  0
  1  2  1  0
  2  3  1  0
  3  4  2  0
  4  5  1  0
  5  6  2  0
  6  7  1  0
  7  8  1  0
  8  9  2  0
  9 10  1  0
  9 11  1  0
 11 12  1  0
 12 13  1  0
 13 14  2  0
 14 15  1  0
 15 16  1  0
 16 17  1  0
 17 18  1  0
 17 19  1  0
 19 20  2  0
 19 21  1  0
 15 22  2  0
 22 23  1  0
 23 24  2  0
 24 25  1  0
 11 26  1  0
 26 27  2  0
 27 28  1  0
 28 29  1  0
 29 30  1  0
 30 31  1  0
 30 32  1  0
 30 33  1  0
 28 34  2  0
 34 35  1  0
 35 36  2  0
  7 37  2  0
 37 38  1  0
 38 39  1  0
 39 40  2  0
 40  3  1  0
 39  6  1  0
 36  8  1  0
 24 13  1  0
 36 26  1  0
  1 41  1  0
  1 42  1  0
  1 43  1  0
  4 44  1  0
  5 45  1  0
 10 46  1  0
 10 47  1  0
 10 48  1  0
 12 49  1  0
 12 50  1  0
 14 51  1  0
 17 52  1  6
 18 53  1  0
 18 54  1  0
 18 55  1  0
 22 56  1  0
 23 57  1  0
 27 58  1  0
 34 59  1  0
 35 60  1  0
 40 61  1  0
M  CHG  1  21  -1
M  END
>  <meeko>  (5) 
{"is_sidechain": [false], "free_energy": -9.043, "intermolecular_energy": -14.943, "internal_energy": -0.943}

$$$$
2p4y_ligand
     RDKit          3D

 61 65  0  0  0  0  0  0  0  0999 V2000
   19.1110   12.3810    7.4650 C   0  0  0  0  0  0  0  0  0  0  0  0
   19.1190   10.9940    7.7840 O   0  0  0  0  0  0  0  0  0  0  0  0
   17.9410   10.4550    8.2330 C   0  0  0  0  0  0  0  0  0  0  0  0
   18.0620    9.1540    8.7410 C   0  0  0  0  0  0  0  0  0  0  0  0
   16.9550    8.4520    9.2420 C   0  0  0  0  0  0  0  0  0  0  0  0
   15.7010    9.0840    9.2190 C   0  0  0  0  0  0  0  0  0  0  0  0
   14.3650    8.7920    9.5940 C   0  0  0  0  0  0  0  0  0  0  0  0
   13.9250    7.5310   10.1910 C   0  0  0  0  0  0  0  0  0  0  0  0
   12.7590    6.8300    9.9320 C   0  0  0  0  0  0  0  0  0  0  0  0
   11.6250    7.1630    9.0220 C   0  0  0  0  0  0  0  0  0  0  0  0
   12.7880    5.6870   10.7220 N   0  0  0  0  0  0  0  0  0  0  0  0
   11.7570    4.6410   10.7290 C   0  0  0  0  0  0  0  0  0  0  0  0
   10.6250    4.8570   11.7050 C   0  0  0  0  0  0  0  0  0  0  0  0
   10.7780    4.3160   12.9970 C   0  0  0  0  0  0  0  0  0  0  0  0
    9.7630    4.4150   13.9460 C   0  0  0  0  0  0  0  0  0  0  0  0
    9.9110    3.8990   15.2020 O   0  0  0  0  0  0  0  0  0  0  0  0
    9.6880    2.4640   15.2340 C   0  0  2  0  0  0  0  0  0  0  0  0
    8.4920    2.2220   16.1460 C   0  0  0  0  0  0  0  0  0  0  0  0
   10.9410    1.7190   15.7730 C   0  0  0  0  0  0  0  0  0  0  0  0
   11.8080    1.4340   14.8900 O   0  0  0  0  0  0  0  0  0  0  0  0
   10.9650    1.4570   17.0110 O   0  0  0  0  0  0  0  0  0  0  0  0
    8.5930    5.0990   13.6510 C   0  0  0  0  0  0  0  0  0  0  0  0
    8.4120    5.6290   12.3740 C   0  0  0  0  0  0  0  0  0  0  0  0
    9.4120    5.4930   11.4010 C   0  0  0  0  0  0  0  0  0  0  0  0
    9.0530    6.1100    9.8280 Cl  0  0  0  0  0  0  0  0  0  0  0  0
   13.9850    5.6300   11.4230 C   0  0  0  0  0  0  0  0  0  0  0  0
   14.5130    4.6510   12.2870 C   0  0  0  0  0  0  0  0  0  0  0  0
   15.7560    4.8690   12.8970 C   0  0  0  0  0  0  0  0  0  0  0  0
   16.1560    3.8520   13.7190 O   0  0  0  0  0  0  0  0  0  0  0  0
   15.6160    3.8040   15.0250 C   0  0  0  0  0  0  0  0  0  0  0  0
   16.5690    3.3740   15.8820 F   0  0  0  0  0  0  0  0  0  0  0  0
   14.5760    2.9440   15.0970 F   0  0  0  0  0  0  0  0  0  0  0  0
   15.2110    5.0270   15.4360 F   0  0  0  0  0  0  0  0  0  0  0  0
   16.4610    6.0410   12.6370 C   0  0  0  0  0  0  0  0  0  0  0  0
   15.9420    7.0040   11.7620 C   0  0  0  0  0  0  0  0  0  0  0  0
   14.6920    6.8010   11.1400 C   0  0  0  0  0  0  0  0  0  0  0  0
   13.5420    9.8240    9.3680 N   0  0  0  0  0  0  0  0  0  0  0  0
   14.3350   10.8120    8.8040 O   0  0  0  0  0  0  0  0  0  0  0  0
   15.6200   10.3720    8.7190 C   0  0  0  0  0  0  0  0  0  0  0  0
   16.6990   11.0970    8.2140 C   0  0  0  0  0  0  0  0  0  0  0  0
   19.1076   12.9708    8.3935 H   0  0  0  0  0  0  0  0  0  0  0  0
   20.0077   12.6273    6.8775 H   0  0  0  0  0  0  0  0  0  0  0  0
   18.2115   12.6169    6.8775 H   0  0  0  0  0  0  0  0  0  0  0  0
   19.0502    8.6709    8.7470 H   0  0  0  0  0  0  0  0  0  0  0  0
   17.0665    7.4335    9.6422 H   0  0  0  0  0  0  0  0  0  0  0  0
   10.7392    7.4231    9.6200 H   0  0  0  0  0  0  0  0  0  0  0  0
   11.9028    8.0175    8.3874 H   0  0  0  0  0  0  0  0  0  0  0  0
   11.3967    6.2940    8.3874 H   0  0  0  0  0  0  0  0  0  0  0  0
   11.3273    4.5806    9.7182 H   0  0  0  0  0  0  0  0  0  0  0  0
   12.2625    3.7179   11.0490 H   0  0  0  0  0  0  0  0  0  0  0  0
   11.7162    3.8061   13.2611 H   0  0  0  0  0  0  0  0  0  0  0  0
    9.4964    2.0804   14.2210 H   0  0  0  0  0  0  0  0  0  0  0  0
    8.8127    2.2869   17.1962 H   0  0  0  0  0  0  0  0  0  0  0  0
    7.7217    2.9825   15.9502 H   0  0  0  0  0  0  0  0  0  0  0  0
    8.0780    1.2219   15.9502 H   0  0  0  0  0  0  0  0  0  0  0  0
    7.8143    5.2223   14.4181 H   0  0  0  0  0  0  0  0  0  0  0  0
    7.4788    6.1571   12.1286 H   0  0  0  0  0  0  0  0  0  0  0  0
   13.9547    3.7233   12.4814 H   0  0  0  0  0  0  0  0  0  0  0  0
   17.4331    6.2122   13.1224 H   0  0  0  0  0  0  0  0  0  0  0  0
   16.5117    7.9228   11.5589 H   0  0  0  0  0  0  0  0  0  0  0  0
   16.5795   12.1179    7.8222 H   0  0  0  0  0  0  0  0  0  0  0  0
  1  2  1  0
  2  3  1  0
  3  4  2  0
  4  5  1  0
  5  6  2  0
  6  7  1  0
  7  8  1  0
  8  9  2  0
  9 10  1  0
  9 11  1  0
 11 12  1  0
 12 13  1  0
 13 14  2  0
 14 15  1  0
 15 16  1  0
 16 17  1  0
 17 18  1  0
 17 19  1  0
 19 20  2  0
 19 21  1  0
 15 22  2  0
 22 23  1  0
 23 24  2  0
 24 25  1  0
 11 26  1  0
 26 27  2  0
 27 28  1  0
 28 29  1  0
 29 30  1  0
 30 31  1  0
 30 32  1  0
 30 33  1  0
 28 34  2  0
 34 35  1  0
 35 36  2  0
  7 37  2  0
 37 38  1  0
 38 39  1  0
 39 40  2  0
 40  3  1  0
 39  6  1  0
 36  8  1  0
 24 13  1  0
 36 26  1  0
  1 41  1  0
  1 42  1  0
  1 43  1  0
  4 44  1  0
  5 45  1  0
 10 46  1  0
 10 47  1  0
 10 48  1  0
 12 49  1  0
 12 50  1  0
 14 51  1  0
 17 52  1  6
 18 53  1  0
 18 54  1  0
 18 55  1  0
 22 56  1  0
 23 57  1  0
 27 58  1  0
 34 59  1  0
 35 60  1  0
 40 61  1  0
M  CHG  1  21  -1
M  END
>  <meeko>  (6) 
{"is_sidechain": [false], "free_energy": -8.996, "intermolecular_energy": -14.574, "internal_energy": -1.241}

$$$$
2p4y_ligand
     RDKit          3D

 61 65  0  0  0  0  0  0  0  0999 V2000
   19.1990   13.0380    7.7740 C   0  0  0  0  0  0  0  0  0  0  0  0
   19.0550   11.6550    7.4700 O   0  0  0  0  0  0  0  0  0  0  0  0
   17.9540   11.0190    7.9850 C   0  0  0  0  0  0  0  0  0  0  0  0
   18.1620    9.6650    8.2830 C   0  0  0  0  0  0  0  0  0  0  0  0
   17.1420    8.8630    8.8170 C   0  0  0  0  0  0  0  0  0  0  0  0
   15.8860    9.4500    9.0460 C   0  0  0  0  0  0  0  0  0  0  0  0
   14.6170    9.0630    9.5450 C   0  0  0  0  0  0  0  0  0  0  0  0
   14.2780    7.7170   10.0080 C   0  0  0  0  0  0  0  0  0  0  0  0
   15.1000    6.8080   10.6530 C   0  0  0  0  0  0  0  0  0  0  0  0
   16.5420    6.9160   11.0200 C   0  0  0  0  0  0  0  0  0  0  0  0
   14.3330    5.6790   10.9110 N   0  0  0  0  0  0  0  0  0  0  0  0
   14.8070    4.4820   11.6190 C   0  0  0  0  0  0  0  0  0  0  0  0
   14.6710    4.5240   13.1220 C   0  0  0  0  0  0  0  0  0  0  0  0
   15.8040    4.9230   13.8590 C   0  0  0  0  0  0  0  0  0  0  0  0
   15.7910    4.9380   15.2520 C   0  0  0  0  0  0  0  0  0  0  0  0
   16.8840    5.3320   15.9700 O   0  0  0  0  0  0  0  0  0  0  0  0
   18.0010    4.4150   15.8140 C   0  0  2  0  0  0  0  0  0  0  0  0
   17.5240    3.0520   16.2990 C   0  0  0  0  0  0  0  0  0  0  0  0
   19.2270    4.8870   16.6430 C   0  0  0  0  0  0  0  0  0  0  0  0
   19.1220    6.0580   17.1240 O   0  0  0  0  0  0  0  0  0  0  0  0
   20.1990    4.0830   16.7390 O   0  0  0  0  0  0  0  0  0  0  0  0
   14.6350    4.6070   15.9450 C   0  0  0  0  0  0  0  0  0  0  0  0
   13.5070    4.1930   15.2380 C   0  0  0  0  0  0  0  0  0  0  0  0
   13.5290    4.1340   13.8370 C   0  0  0  0  0  0  0  0  0  0  0  0
   12.1080    3.5280   13.0640 Cl  0  0  0  0  0  0  0  0  0  0  0  0
   13.0250    5.8930   10.4970 C   0  0  0  0  0  0  0  0  0  0  0  0
   11.8720    5.0920   10.6020 C   0  0  0  0  0  0  0  0  0  0  0  0
   10.6640    5.5490   10.0570 C   0  0  0  0  0  0  0  0  0  0  0  0
    9.6200    4.6800   10.2150 O   0  0  0  0  0  0  0  0  0  0  0  0
    8.7570    4.8730   11.3170 C   0  0  0  0  0  0  0  0  0  0  0  0
    8.5340    3.6810   11.9170 F   0  0  0  0  0  0  0  0  0  0  0  0
    7.5620    5.3690   10.9270 F   0  0  0  0  0  0  0  0  0  0  0  0
    9.3060    5.7010   12.2340 F   0  0  0  0  0  0  0  0  0  0  0  0
   10.6120    6.7900    9.4280 C   0  0  0  0  0  0  0  0  0  0  0  0
   11.7570    7.5920    9.3430 C   0  0  0  0  0  0  0  0  0  0  0  0
   12.9810    7.1470    9.8850 C   0  0  0  0  0  0  0  0  0  0  0  0
   13.7550   10.0880    9.5770 N   0  0  0  0  0  0  0  0  0  0  0  0
   14.4520   11.1710    9.0620 O   0  0  0  0  0  0  0  0  0  0  0  0
   15.7200   10.7910    8.7500 C   0  0  0  0  0  0  0  0  0  0  0  0
   16.7120   11.6160    8.2180 C   0  0  0  0  0  0  0  0  0  0  0  0
   19.2132   13.1740    8.8655 H   0  0  0  0  0  0  0  0  0  0  0  0
   20.1409   13.4114    7.3457 H   0  0  0  0  0  0  0  0  0  0  0  0
   18.3542   13.5975    7.3457 H   0  0  0  0  0  0  0  0  0  0  0  0
   19.1500    9.2200    8.0934 H   0  0  0  0  0  0  0  0  0  0  0  0
   17.3208    7.8030    9.0502 H   0  0  0  0  0  0  0  0  0  0  0  0
   16.6420    6.9235   12.1154 H   0  0  0  0  0  0  0  0  0  0  0  0
   17.0907    6.0564   10.6076 H   0  0  0  0  0  0  0  0  0  0  0  0
   16.9565    7.8477   10.6076 H   0  0  0  0  0  0  0  0  0  0  0  0
   14.2327    3.6194   11.2500 H   0  0  0  0  0  0  0  0  0  0  0  0
   15.8855    4.4147   11.4134 H   0  0  0  0  0  0  0  0  0  0  0  0
   16.7156    5.2283   13.3244 H   0  0  0  0  0  0  0  0  0  0  0  0
   18.3214    4.3712   14.7626 H   0  0  0  0  0  0  0  0  0  0  0  0
   17.5183    3.0356   17.3989 H   0  0  0  0  0  0  0  0  0  0  0  0
   16.5069    2.8648   15.9242 H   0  0  0  0  0  0  0  0  0  0  0  0
   18.2024    2.2714   15.9242 H   0  0  0  0  0  0  0  0  0  0  0  0
   14.6090    4.6708   17.0428 H   0  0  0  0  0  0  0  0  0  0  0  0
   12.5939    3.9108   15.7826 H   0  0  0  0  0  0  0  0  0  0  0  0
   11.9186    4.1160   11.1073 H   0  0  0  0  0  0  0  0  0  0  0  0
    9.6647    7.1432    8.9946 H   0  0  0  0  0  0  0  0  0  0  0  0
   11.7016    8.5742    8.8509 H   0  0  0  0  0  0  0  0  0  0  0  0
   16.5267   12.6770    7.9945 H   0  0  0  0  0  0  0  0  0  0  0  0
  1  2  1  0
  2  3  1  0
  3  4  2  0
  4  5  1  0
  5  6  2  0
  6  7  1  0
  7  8  1  0
  8  9  2  0
  9 10  1  0
  9 11  1  0
 11 12  1  0
 12 13  1  0
 13 14  2  0
 14 15  1  0
 15 16  1  0
 16 17  1  0
 17 18  1  0
 17 19  1  0
 19 20  2  0
 19 21  1  0
 15 22  2  0
 22 23  1  0
 23 24  2  0
 24 25  1  0
 11 26  1  0
 26 27  2  0
 27 28  1  0
 28 29  1  0
 29 30  1  0
 30 31  1  0
 30 32  1  0
 30 33  1  0
 28 34  2  0
 34 35  1  0
 35 36  2  0
  7 37  2  0
 37 38  1  0
 38 39  1  0
 39 40  2  0
 40  3  1  0
 39  6  1  0
 36  8  1  0
 24 13  1  0
 36 26  1  0
  1 41  1  0
  1 42  1  0
  1 43  1  0
  4 44  1  0
  5 45  1  0
 10 46  1  0
 10 47  1  0
 10 48  1  0
 12 49  1  0
 12 50  1  0
 14 51  1  0
 17 52  1  6
 18 53  1  0
 18 54  1  0
 18 55  1  0
 22 56  1  0
 23 57  1  0
 27 58  1  0
 34 59  1  0
 35 60  1  0
 40 61  1  0
M  CHG  1  21  -1
M  END
>  <meeko>  (7) 
{"is_sidechain": [false], "free_energy": -8.849, "intermolecular_energy": -14.992, "internal_energy": -0.598}

$$$$
2p4y_ligand
     RDKit          3D

 61 65  0  0  0  0  0  0  0  0999 V2000
   19.9850    3.8160   17.6980 C   0  0  0  0  0  0  0  0  0  0  0  0
   19.6820    3.3560   16.3860 O   0  0  0  0  0  0  0  0  0  0  0  0
   18.4770    3.7420   15.8570 C   0  0  0  0  0  0  0  0  0  0  0  0
   18.4600    3.8070   14.4570 C   0  0  0  0  0  0  0  0  0  0  0  0
   17.3080    4.1850   13.7510 C   0  0  0  0  0  0  0  0  0  0  0  0
   16.1540    4.5070   14.4850 C   0  0  0  0  0  0  0  0  0  0  0  0
   14.8220    4.9220   14.2290 C   0  0  0  0  0  0  0  0  0  0  0  0
   14.2630    5.1510   12.8970 C   0  0  0  0  0  0  0  0  0  0  0  0
   13.1930    4.5020   12.3010 C   0  0  0  0  0  0  0  0  0  0  0  0
   12.3470    3.3860   12.8130 C   0  0  0  0  0  0  0  0  0  0  0  0
   13.0210    5.0730   11.0460 N   0  0  0  0  0  0  0  0  0  0  0  0
   11.9670    4.7050   10.0910 C   0  0  0  0  0  0  0  0  0  0  0  0
   10.5580    5.0200   10.5320 C   0  0  0  0  0  0  0  0  0  0  0  0
    9.8490    3.9990   11.1970 C   0  0  0  0  0  0  0  0  0  0  0  0
    8.5240    4.1770   11.5890 C   0  0  0  0  0  0  0  0  0  0  0  0
    7.8360    3.1930   12.2410 O   0  0  0  0  0  0  0  0  0  0  0  0
    8.7170    2.3190   12.9970 C   0  0  2  0  0  0  0  0  0  0  0  0
    8.3060    0.8890   12.6710 C   0  0  0  0  0  0  0  0  0  0  0  0
    8.5890    2.5860   14.5230 C   0  0  0  0  0  0  0  0  0  0  0  0
    8.8220    3.7850   14.8710 O   0  0  0  0  0  0  0  0  0  0  0  0
    8.2920    1.5990   15.2550 O   0  0  0  0  0  0  0  0  0  0  0  0
    7.8890    5.3930   11.3790 C   0  0  0  0  0  0  0  0  0  0  0  0
    8.5650    6.4120   10.7090 C   0  0  0  0  0  0  0  0  0  0  0  0
    9.8830    6.2220   10.2710 C   0  0  0  0  0  0  0  0  0  0  0  0
   10.5980    7.5160    9.3780 Cl  0  0  0  0  0  0  0  0  0  0  0  0
   13.9240    6.1130   10.8730 C   0  0  0  0  0  0  0  0  0  0  0  0
   14.0980    7.0290    9.8190 C   0  0  0  0  0  0  0  0  0  0  0  0
   15.1310    7.9750    9.8910 C   0  0  0  0  0  0  0  0  0  0  0  0
   15.2040    8.8010    8.8040 O   0  0  0  0  0  0  0  0  0  0  0  0
   14.8620   10.1610    8.9810 C   0  0  0  0  0  0  0  0  0  0  0  0
   15.9530   10.8410    9.4010 F   0  0  0  0  0  0  0  0  0  0  0  0
   13.8970   10.3100    9.9160 F   0  0  0  0  0  0  0  0  0  0  0  0
   14.4480   10.7200    7.8210 F   0  0  0  0  0  0  0  0  0  0  0  0
   15.9660    8.0060   11.0050 C   0  0  0  0  0  0  0  0  0  0  0  0
   15.7770    7.1060   12.0610 C   0  0  0  0  0  0  0  0  0  0  0  0
   14.7430    6.1470   12.0030 C   0  0  0  0  0  0  0  0  0  0  0  0
   14.1110    5.0520   15.3560 N   0  0  0  0  0  0  0  0  0  0  0  0
   14.9900    4.7500   16.3850 O   0  0  0  0  0  0  0  0  0  0  0  0
   16.2040    4.4220   15.8650 C   0  0  0  0  0  0  0  0  0  0  0  0
   17.3320    4.0510   16.5970 C   0  0  0  0  0  0  0  0  0  0  0  0
   19.5371    3.1360   18.4375 H   0  0  0  0  0  0  0  0  0  0  0  0
   21.0761    3.8398   17.8353 H   0  0  0  0  0  0  0  0  0  0  0  0
   19.5760    4.8279   17.8353 H   0  0  0  0  0  0  0  0  0  0  0  0
   19.3731    3.5553   13.8976 H   0  0  0  0  0  0  0  0  0  0  0  0
   17.3082    4.2281   12.6518 H   0  0  0  0  0  0  0  0  0  0  0  0
   12.3541    3.3954   13.9129 H   0  0  0  0  0  0  0  0  0  0  0  0
   11.3157    3.5122   12.4519 H   0  0  0  0  0  0  0  0  0  0  0  0
   12.7471    2.4271   12.4519 H   0  0  0  0  0  0  0  0  0  0  0  0
   12.1572    5.2435    9.1509 H   0  0  0  0  0  0  0  0  0  0  0  0
   12.0166    3.6108    9.9901 H   0  0  0  0  0  0  0  0  0  0  0  0
   10.3513    3.0439   11.4104 H   0  0  0  0  0  0  0  0  0  0  0  0
    9.7675    2.5005   12.7258 H   0  0  0  0  0  0  0  0  0  0  0  0
    8.1458    0.3314   13.6056 H   0  0  0  0  0  0  0  0  0  0  0  0
    7.3745    0.8995   12.0860 H   0  0  0  0  0  0  0  0  0  0  0  0
    9.1009    0.4033   12.0860 H   0  0  0  0  0  0  0  0  0  0  0  0
    6.8614    5.5516   11.7380 H   0  0  0  0  0  0  0  0  0  0  0  0
    8.0606    7.3716   10.5228 H   0  0  0  0  0  0  0  0  0  0  0  0
   13.4294    7.0033    8.9459 H   0  0  0  0  0  0  0  0  0  0  0  0
   16.7806    8.7434   11.0558 H   0  0  0  0  0  0  0  0  0  0  0  0
   16.4374    7.1466   12.9398 H   0  0  0  0  0  0  0  0  0  0  0  0
   17.3211    4.0042   17.6959 H   0  0  0  0  0  0  0  0  0  0  0  0
  1  2  1  0
  2  3  1  0
  3  4  2  0
  4  5  1  0
  5  6  2  0
  6  7  1  0
  7  8  1  0
  8  9  2  0
  9 10  1  0
  9 11  1  0
 11 12  1  0
 12 13  1  0
 13 14  2  0
 14 15  1  0
 15 16  1  0
 16 17  1  0
 17 18  1  0
 17 19  1  0
 19 20  2  0
 19 21  1  0
 15 22  2  0
 22 23  1  0
 23 24  2  0
 24 25  1  0
 11 26  1  0
 26 27  2  0
 27 28  1  0
 28 29  1  0
 29 30  1  0
 30 31  1  0
 30 32  1  0
 30 33  1  0
 28 34  2  0
 34 35  1  0
 35 36  2  0
  7 37  2  0
 37 38  1  0
 38 39  1  0
 39 40  2  0
 40  3  1  0
 39  6  1  0
 36  8  1  0
 24 13  1  0
 36 26  1  0
  1 41  1  0
  1 42  1  0
  1 43  1  0
  4 44  1  0
  5 45  1  0
 10 46  1  0
 10 47  1  0
 10 48  1  0
 12 49  1  0
 12 50  1  0
 14 51  1  0
 17 52  1  6
 18 53  1  0
 18 54  1  0
 18 55  1  0
 22 56  1  0
 23 57  1  0
 27 58  1  0
 34 59  1  0
 35 60  1  0
 40 61  1  0
M  CHG  1  21  -1
M  END
>  <meeko>  (8) 
{"is_sidechain": [false], "free_energy": -8.716, "intermolecular_energy": -13.599, "internal_energy": -1.788}

$$$$
2p4y_ligand
     RDKit          3D

 61 65  0  0  0  0  0  0  0  0999 V2000
   18.7550   10.4910    8.6290 C   0  0  0  0  0  0  0  0  0  0  0  0
   17.9060    9.4910    8.0780 O   0  0  0  0  0  0  0  0  0  0  0  0
   17.5490    8.4570    8.9050 C   0  0  0  0  0  0  0  0  0  0  0  0
   16.9460    8.8620   10.1040 C   0  0  0  0  0  0  0  0  0  0  0  0
   16.5200    7.9340   11.0650 C   0  0  0  0  0  0  0  0  0  0  0  0
   16.7160    6.5680   10.8030 C   0  0  0  0  0  0  0  0  0  0  0  0
   16.4650    5.3250   11.4380 C   0  0  0  0  0  0  0  0  0  0  0  0
   15.8350    5.1720   12.7500 C   0  0  0  0  0  0  0  0  0  0  0  0
   14.4880    5.2560   13.0610 C   0  0  0  0  0  0  0  0  0  0  0  0
   13.3210    5.5560   12.1830 C   0  0  0  0  0  0  0  0  0  0  0  0
   14.3710    5.0220   14.4260 N   0  0  0  0  0  0  0  0  0  0  0  0
   13.1050    4.9810   15.1690 C   0  0  0  0  0  0  0  0  0  0  0  0
   11.9860    4.2240   14.4940 C   0  0  0  0  0  0  0  0  0  0  0  0
   10.8620    4.9690   14.0830 C   0  0  0  0  0  0  0  0  0  0  0  0
    9.7570    4.3490   13.5050 C   0  0  0  0  0  0  0  0  0  0  0  0
    8.6700    5.0680   13.0970 O   0  0  0  0  0  0  0  0  0  0  0  0
    8.4900    5.0170   11.6560 C   0  0  2  0  0  0  0  0  0  0  0  0
    9.8800    5.0680   11.0340 C   0  0  0  0  0  0  0  0  0  0  0  0
    7.6290    6.2120   11.1610 C   0  0  0  0  0  0  0  0  0  0  0  0
    7.2140    6.1070    9.9650 O   0  0  0  0  0  0  0  0  0  0  0  0
    7.4460    7.1640   11.9740 O   0  0  0  0  0  0  0  0  0  0  0  0
    9.7630    2.9800   13.2730 C   0  0  0  0  0  0  0  0  0  0  0  0
   10.8570    2.2200   13.6870 C   0  0  0  0  0  0  0  0  0  0  0  0
   11.9530    2.8340   14.3100 C   0  0  0  0  0  0  0  0  0  0  0  0
   13.2160    1.7920   14.8590 Cl  0  0  0  0  0  0  0  0  0  0  0  0
   15.6180    4.7280   14.9620 C   0  0  0  0  0  0  0  0  0  0  0  0
   16.0090    4.3580   16.2620 C   0  0  0  0  0  0  0  0  0  0  0  0
   17.3670    4.1480   16.5400 C   0  0  0  0  0  0  0  0  0  0  0  0
   17.6210    3.8010   17.8380 O   0  0  0  0  0  0  0  0  0  0  0  0
   18.8230    4.2590   18.4240 C   0  0  0  0  0  0  0  0  0  0  0  0
   18.7050    4.2100   19.7700 F   0  0  0  0  0  0  0  0  0  0  0  0
   19.0850    5.5390   18.0780 F   0  0  0  0  0  0  0  0  0  0  0  0
   19.8710    3.4800   18.0730 F   0  0  0  0  0  0  0  0  0  0  0  0
   18.3130    4.2980   15.5300 C   0  0  0  0  0  0  0  0  0  0  0  0
   17.9190    4.6480   14.2320 C   0  0  0  0  0  0  0  0  0  0  0  0
   16.5560    4.8630   13.9360 C   0  0  0  0  0  0  0  0  0  0  0  0
   16.8430    4.2870   10.6800 N   0  0  0  0  0  0  0  0  0  0  0  0
   17.3850    4.8470    9.5330 O   0  0  0  0  0  0  0  0  0  0  0  0
   17.3050    6.2030    9.6060 C   0  0  0  0  0  0  0  0  0  0  0  0
   17.7410    7.0990    8.6290 C   0  0  0  0  0  0  0  0  0  0  0  0
   18.7139   10.4425    9.7272 H   0  0  0  0  0  0  0  0  0  0  0  0
   19.7884   10.3205    8.2929 H   0  0  0  0  0  0  0  0  0  0  0  0
   18.4191   11.4831    8.2929 H   0  0  0  0  0  0  0  0  0  0  0  0
   16.8033    9.9357   10.2959 H   0  0  0  0  0  0  0  0  0  0  0  0
   16.0448    8.2670   11.9995 H   0  0  0  0  0  0  0  0  0  0  0  0
   12.4425    5.7818   12.8052 H   0  0  0  0  0  0  0  0  0  0  0  0
   13.5534    6.4236   11.5480 H   0  0  0  0  0  0  0  0  0  0  0  0
   13.1061    4.6839   11.5480 H   0  0  0  0  0  0  0  0  0  0  0  0
   13.2974    4.5068   16.1427 H   0  0  0  0  0  0  0  0  0  0  0  0
   12.7637    6.0238   15.2471 H   0  0  0  0  0  0  0  0  0  0  0  0
   10.8577    6.0603   14.2214 H   0  0  0  0  0  0  0  0  0  0  0  0
    7.9609    4.0975   11.3652 H   0  0  0  0  0  0  0  0  0  0  0  0
   10.6376    5.0958   11.8311 H   0  0  0  0  0  0  0  0  0  0  0  0
   10.0359    4.1750   10.4109 H   0  0  0  0  0  0  0  0  0  0  0  0
    9.9700    5.9701   10.4109 H   0  0  0  0  0  0  0  0  0  0  0  0
    8.9127    2.4991   12.7673 H   0  0  0  0  0  0  0  0  0  0  0  0
   10.8600    1.1322   13.5237 H   0  0  0  0  0  0  0  0  0  0  0  0
   15.2554    4.2345   17.0537 H   0  0  0  0  0  0  0  0  0  0  0  0
   19.3786    4.1404   15.7528 H   0  0  0  0  0  0  0  0  0  0  0  0
   18.6751    4.7557   13.4403 H   0  0  0  0  0  0  0  0  0  0  0  0
   18.2093    6.7567    7.6944 H   0  0  0  0  0  0  0  0  0  0  0  0
  1  2  1  0
  2  3  1  0
  3  4  2  0
  4  5  1  0
  5  6  2  0
  6  7  1  0
  7  8  1  0
  8  9  2  0
  9 10  1  0
  9 11  1  0
 11 12  1  0
 12 13  1  0
 13 14  2  0
 14 15  1  0
 15 16  1  0
 16 17  1  0
 17 18  1  0
 17 19  1  0
 19 20  2  0
 19 21  1  0
 15 22  2  0
 22 23  1  0
 23 24  2  0
 24 25  1  0
 11 26  1  0
 26 27  2  0
 27 28  1  0
 28 29  1  0
 29 30  1  0
 30 31  1  0
 30 32  1  0
 30 33  1  0
 28 34  2  0
 34 35  1  0
 35 36  2  0
  7 37  2  0
 37 38  1  0
 38 39  1  0
 39 40  2  0
 40  3  1  0
 39  6  1  0
 36  8  1  0
 24 13  1  0
 36 26  1  0
  1 41  1  0
  1 42  1  0
  1 43  1  0
  4 44  1  0
  5 45  1  0
 10 46  1  0
 10 47  1  0
 10 48  1  0
 12 49  1  0
 12 50  1  0
 14 51  1  0
 17 52  1  1
 18 53  1  0
 18 54  1  0
 18 55  1  0
 22 56  1  0
 23 57  1  0
 27 58  1  0
 34 59  1  0
 35 60  1  0
 40 61  1  0
M  CHG  1  21  -1
M  END
>  <meeko>  (9) 
{"is_sidechain": [false], "free_energy": -8.595, "intermolecular_energy": -14.498, "internal_energy": -0.704}

$$$$
