3kr8_ligand
     RDKit          3D

 32 34  0  0  0  0  0  0  0  0999 V2000
   37.4370  -10.5260  -14.8570 O   0  0  0  0  0  0  0  0  0  0  0  0
   38.1470  -11.2060  -14.1240 C   0  0  0  0  0  0  0  0  0  0  0  0
   38.2570  -10.9420  -12.7930 N   0  0  0  0  0  0  0  0  0  0  0  0
   39.0400  -11.6940  -11.9570 C   0  0  0  0  0  0  0  0  0  0  0  0
   39.0560  -11.3130  -10.5190 C   0  0  0  0  0  0  0  0  0  0  0  0
   38.7430  -10.0160  -10.0920 C   0  0  0  0  0  0  0  0  0  0  0  0
   38.7720   -9.7010   -8.7290 C   0  0  0  0  0  0  0  0  0  0  0  0
   39.1280  -10.6680   -7.7760 C   0  0  0  0  0  0  0  0  0  0  0  0
   39.1390  -10.3280   -6.3040 C   0  0  0  0  0  0  0  0  0  0  0  0
   39.6800   -9.1010   -6.0630 F   0  0  0  0  0  0  0  0  0  0  0  0
   39.8640  -11.2100   -5.5600 F   0  0  0  0  0  0  0  0  0  0  0  0
   37.8960  -10.3070   -5.7490 F   0  0  0  0  0  0  0  0  0  0  0  0
   39.4460  -11.9630   -8.2120 C   0  0  0  0  0  0  0  0  0  0  0  0
   39.4170  -12.2800   -9.5730 C   0  0  0  0  0  0  0  0  0  0  0  0
   39.7290  -12.7040  -12.3800 N   0  0  0  0  0  0  0  0  0  0  0  0
   39.6790  -13.0180  -13.7200 C   0  0  0  0  0  0  0  0  0  0  0  0
   38.9390  -12.3520  -14.6250 C   0  0  0  0  0  0  0  0  0  0  0  0
   38.8010  -12.6260  -16.0910 C   0  0  0  0  0  0  0  0  0  0  0  0
   39.4370  -14.2470  -16.6070 S   0  0  0  0  0  0  0  0  0  0  0  0
   40.9260  -14.2700  -15.5770 C   0  0  0  0  0  0  0  0  0  0  0  0
   40.5610  -14.1890  -14.1010 C   0  0  0  0  0  0  0  0  0  0  0  0
   37.6760  -10.1910  -12.4560 H   0  0  0  0  0  0  0  0  0  0  0  0
   38.4742   -9.2447  -10.8288 H   0  0  0  0  0  0  0  0  0  0  0  0
   38.5128   -8.6837   -8.4005 H   0  0  0  0  0  0  0  0  0  0  0  0
   39.7202  -12.7345   -7.4774 H   0  0  0  0  0  0  0  0  0  0  0  0
   39.6795  -13.2959   -9.9031 H   0  0  0  0  0  0  0  0  0  0  0  0
   37.7339  -12.5746  -16.3528 H   0  0  0  0  0  0  0  0  0  0  0  0
   39.4042  -11.8685  -16.6129 H   0  0  0  0  0  0  0  0  0  0  0  0
   41.4784  -15.2032  -15.7616 H   0  0  0  0  0  0  0  0  0  0  0  0
   41.5482  -13.4005  -15.8356 H   0  0  0  0  0  0  0  0  0  0  0  0
   40.0337  -15.1153  -13.8291 H   0  0  0  0  0  0  0  0  0  0  0  0
   41.5077  -14.0483  -13.5589 H   0  0  0  0  0  0  0  0  0  0  0  0
  1  2  2  0
  2  3  1  0
  3  4  1  0
  4  5  1  0
  5  6  2  0
  6  7  1  0
  7  8  2  0
  8  9  1  0
  9 10  1  0
  9 11  1  0
  9 12  1  0
  8 13  1  0
 13 14  2  0
  4 15  2  0
 15 16  1  0
 16 17  2  0
 17 18  1  0
 18 19  1  0
 19 20  1  0
 20 21  1  0
 17  2  1  0
 14  5  1  0
 21 16  1  0
  3 22  1  0
  6 23  1  0
  7 24  1  0
 13 25  1  0
 14 26  1  0
 18 27  1  0
 18 28  1  0
 20 29  1  0
 20 30  1  0
 21 31  1  0
 21 32  1  0
M  END
>  <meeko>  (1) 
{"is_sidechain": [false], "free_energy": -11.514, "intermolecular_energy": -12.86, "internal_energy": -0.399}

$$$$
3kr8_ligand
     RDKit          3D

 32 34  0  0  0  0  0  0  0  0999 V2000
   38.3200   -7.9730   -9.4200 O   0  0  0  0  0  0  0  0  0  0  0  0
   38.6980   -9.1390   -9.4480 C   0  0  0  0  0  0  0  0  0  0  0  0
   38.7750   -9.8350  -10.6160 N   0  0  0  0  0  0  0  0  0  0  0  0
   39.2010  -11.1360  -10.6690 C   0  0  0  0  0  0  0  0  0  0  0  0
   39.2590  -11.7750  -12.0120 C   0  0  0  0  0  0  0  0  0  0  0  0
   40.0430  -12.9080  -12.2590 C   0  0  0  0  0  0  0  0  0  0  0  0
   40.0690  -13.4760  -13.5380 C   0  0  0  0  0  0  0  0  0  0  0  0
   39.3270  -12.9140  -14.5890 C   0  0  0  0  0  0  0  0  0  0  0  0
   39.3430  -13.5440  -15.9620 C   0  0  0  0  0  0  0  0  0  0  0  0
   39.7870  -14.8310  -15.9330 F   0  0  0  0  0  0  0  0  0  0  0  0
   40.1560  -12.8880  -16.8370 F   0  0  0  0  0  0  0  0  0  0  0  0
   38.1160  -13.5810  -16.5500 F   0  0  0  0  0  0  0  0  0  0  0  0
   38.5490  -11.7760  -14.3340 C   0  0  0  0  0  0  0  0  0  0  0  0
   38.5210  -11.2070  -13.0570 C   0  0  0  0  0  0  0  0  0  0  0  0
   39.5550  -11.7910   -9.6110 N   0  0  0  0  0  0  0  0  0  0  0  0
   39.4860  -11.1540   -8.3910 C   0  0  0  0  0  0  0  0  0  0  0  0
   39.0900   -9.8780   -8.2260 C   0  0  0  0  0  0  0  0  0  0  0  0
   39.0000   -9.0930   -6.9540 C   0  0  0  0  0  0  0  0  0  0  0  0
   39.8540   -9.8590   -5.5470 S   0  0  0  0  0  0  0  0  0  0  0  0
   39.3720  -11.5750   -5.8650 C   0  0  0  0  0  0  0  0  0  0  0  0
   39.8820  -12.0340   -7.2250 C   0  0  0  0  0  0  0  0  0  0  0  0
   38.5540   -9.3060  -11.4450 H   0  0  0  0  0  0  0  0  0  0  0  0
   40.6387  -13.3520  -11.4479 H   0  0  0  0  0  0  0  0  0  0  0  0
   40.6780  -14.3734  -13.7219 H   0  0  0  0  0  0  0  0  0  0  0  0
   37.9561  -11.3273  -15.1446 H   0  0  0  0  0  0  0  0  0  0  0  0
   37.9153  -10.3075  -12.8725 H   0  0  0  0  0  0  0  0  0  0  0  0
   39.4427   -8.1012   -7.1283 H   0  0  0  0  0  0  0  0  0  0  0  0
   37.9339   -9.0421   -6.6879 H   0  0  0  0  0  0  0  0  0  0  0  0
   39.7980  -12.2206   -5.0829 H   0  0  0  0  0  0  0  0  0  0  0  0
   38.2740  -11.6411   -5.8582 H   0  0  0  0  0  0  0  0  0  0  0  0
   40.9806  -12.0691   -7.1826 H   0  0  0  0  0  0  0  0  0  0  0  0
   39.4185  -13.0142   -7.4105 H   0  0  0  0  0  0  0  0  0  0  0  0
  1  2  2  0
  2  3  1  0
  3  4  1  0
  4  5  1  0
  5  6  2  0
  6  7  1  0
  7  8  2  0
  8  9  1  0
  9 10  1  0
  9 11  1  0
  9 12  1  0
  8 13  1  0
 13 14  2  0
  4 15  2  0
 15 16  1  0
 16 17  2  0
 17 18  1  0
 18 19  1  0
 19 20  1  0
 20 21  1  0
 17  2  1  0
 14  5  1  0
 21 16  1  0
  3 22  1  0
  6 23  1  0
  7 24  1  0
 13 25  1  0
 14 26  1  0
 18 27  1  0
 18 28  1  0
 20 29  1  0
 20 30  1  0
 21 31  1  0
 21 32  1  0
M  END
>  <meeko>  (2) 
{"is_sidechain": [false], "free_energy": -10.606, "intermolecular_energy": -11.846, "internal_energy": -0.399}

$$$$
3kr8_ligand
     RDKit          3D

 32 34  0  0  0  0  0  0  0  0999 V2000
   41.3000  -15.0680  -13.2420 O   0  0  0  0  0  0  0  0  0  0  0  0
   40.5730  -14.0820  -13.2780 C   0  0  0  0  0  0  0  0  0  0  0  0
   40.3110  -13.3490  -12.1600 N   0  0  0  0  0  0  0  0  0  0  0  0
   39.5070  -12.2410  -12.1800 C   0  0  0  0  0  0  0  0  0  0  0  0
   39.3190  -11.5170  -10.8940 C   0  0  0  0  0  0  0  0  0  0  0  0
   39.0540  -10.1430  -10.8480 C   0  0  0  0  0  0  0  0  0  0  0  0
   38.8850   -9.5020   -9.6160 C   0  0  0  0  0  0  0  0  0  0  0  0
   38.9930  -10.2180   -8.4130 C   0  0  0  0  0  0  0  0  0  0  0  0
   38.7900   -9.5260   -7.0860 C   0  0  0  0  0  0  0  0  0  0  0  0
   39.8160   -9.7590   -6.2210 F   0  0  0  0  0  0  0  0  0  0  0  0
   37.6590   -9.9310   -6.4430 F   0  0  0  0  0  0  0  0  0  0  0  0
   38.6910   -8.1730   -7.1950 F   0  0  0  0  0  0  0  0  0  0  0  0
   39.2640  -11.5930   -8.4670 C   0  0  0  0  0  0  0  0  0  0  0  0
   39.4330  -12.2350   -9.6970 C   0  0  0  0  0  0  0  0  0  0  0  0
   38.9400  -11.8180  -13.2640 N   0  0  0  0  0  0  0  0  0  0  0  0
   39.1470  -12.5210  -14.4300 C   0  0  0  0  0  0  0  0  0  0  0  0
   39.9230  -13.6170  -14.5240 C   0  0  0  0  0  0  0  0  0  0  0  0
   40.2260  -14.4350  -15.7410 C   0  0  0  0  0  0  0  0  0  0  0  0
   39.7670  -13.6380  -17.3060 S   0  0  0  0  0  0  0  0  0  0  0  0
   38.1880  -12.9300  -16.7720 C   0  0  0  0  0  0  0  0  0  0  0  0
   38.3970  -11.9570  -15.6180 C   0  0  0  0  0  0  0  0  0  0  0  0
   40.7990  -13.6460  -11.3300 H   0  0  0  0  0  0  0  0  0  0  0  0
   38.9786   -9.5667  -11.7819 H   0  0  0  0  0  0  0  0  0  0  0  0
   38.6650   -8.4246   -9.5895 H   0  0  0  0  0  0  0  0  0  0  0  0
   39.3442  -12.1706   -7.5343 H   0  0  0  0  0  0  0  0  0  0  0  0
   39.6571  -13.3116   -9.7250 H   0  0  0  0  0  0  0  0  0  0  0  0
   41.3071  -14.6368  -15.7607 H   0  0  0  0  0  0  0  0  0  0  0  0
   39.6228  -15.3517  -15.6641 H   0  0  0  0  0  0  0  0  0  0  0  0
   37.7280  -12.3955  -17.6162 H   0  0  0  0  0  0  0  0  0  0  0  0
   37.5315  -13.7450  -16.4331 H   0  0  0  0  0  0  0  0  0  0  0  0
   38.9618  -11.0932  -15.9987 H   0  0  0  0  0  0  0  0  0  0  0  0
   37.3931  -11.6970  -15.2511 H   0  0  0  0  0  0  0  0  0  0  0  0
  1  2  2  0
  2  3  1  0
  3  4  1  0
  4  5  1  0
  5  6  2  0
  6  7  1  0
  7  8  2  0
  8  9  1  0
  9 10  1  0
  9 11  1  0
  9 12  1  0
  8 13  1  0
 13 14  2  0
  4 15  2  0
 15 16  1  0
 16 17  2  0
 17 18  1  0
 18 19  1  0
 19 20  1  0
 20 21  1  0
 17  2  1  0
 14  5  1  0
 21 16  1  0
  3 22  1  0
  6 23  1  0
  7 24  1  0
 13 25  1  0
 14 26  1  0
 18 27  1  0
 18 28  1  0
 20 29  1  0
 20 30  1  0
 21 31  1  0
 21 32  1  0
M  END
>  <meeko>  (3) 
{"is_sidechain": [false], "free_energy": -9.425, "intermolecular_energy": -10.532, "internal_energy": -0.394}

$$$$
3kr8_ligand
     RDKit          3D

 32 34  0  0  0  0  0  0  0  0999 V2000
   40.7080   -9.6580   -3.9170 O   0  0  0  0  0  0  0  0  0  0  0  0
   39.7790  -10.2280   -4.4770 C   0  0  0  0  0  0  0  0  0  0  0  0
   39.7440  -10.3750   -5.8310 N   0  0  0  0  0  0  0  0  0  0  0  0
   38.7190  -11.0140   -6.4740 C   0  0  0  0  0  0  0  0  0  0  0  0
   38.8120  -11.1240   -7.9560 C   0  0  0  0  0  0  0  0  0  0  0  0
   38.3470  -10.1120   -8.8040 C   0  0  0  0  0  0  0  0  0  0  0  0
   38.4540  -10.2580  -10.1920 C   0  0  0  0  0  0  0  0  0  0  0  0
   39.0110  -11.4190  -10.7520 C   0  0  0  0  0  0  0  0  0  0  0  0
   39.1420  -11.5620  -12.2500 C   0  0  0  0  0  0  0  0  0  0  0  0
   39.6640  -12.7680  -12.6080 F   0  0  0  0  0  0  0  0  0  0  0  0
   39.9580  -10.6220  -12.8030 F   0  0  0  0  0  0  0  0  0  0  0  0
   37.9550  -11.4570  -12.9060 F   0  0  0  0  0  0  0  0  0  0  0  0
   39.4690  -12.4300   -9.8950 C   0  0  0  0  0  0  0  0  0  0  0  0
   39.3630  -12.2870   -8.5080 C   0  0  0  0  0  0  0  0  0  0  0  0
   37.7120  -11.5200   -5.8380 N   0  0  0  0  0  0  0  0  0  0  0  0
   37.6720  -11.3940   -4.4670 C   0  0  0  0  0  0  0  0  0  0  0  0
   38.6290  -10.7930   -3.7350 C   0  0  0  0  0  0  0  0  0  0  0  0
   38.6890  -10.6240   -2.2490 C   0  0  0  0  0  0  0  0  0  0  0  0
   37.5060  -11.6560   -1.3350 S   0  0  0  0  0  0  0  0  0  0  0  0
   36.0920  -11.4620   -2.4490 C   0  0  0  0  0  0  0  0  0  0  0  0
   36.4270  -11.9850   -3.8400 C   0  0  0  0  0  0  0  0  0  0  0  0
   40.5560  -10.0310   -6.3190 H   0  0  0  0  0  0  0  0  0  0  0  0
   37.8975   -9.2021   -8.3797 H   0  0  0  0  0  0  0  0  0  0  0  0
   38.0974   -9.4535  -10.8521 H   0  0  0  0  0  0  0  0  0  0  0  0
   39.9151  -13.3426  -10.3170 H   0  0  0  0  0  0  0  0  0  0  0  0
   39.7145  -13.0927   -7.8468 H   0  0  0  0  0  0  0  0  0  0  0  0
   39.7040  -10.8824   -1.9129 H   0  0  0  0  0  0  0  0  0  0  0  0
   38.4245   -9.5772   -2.0385 H   0  0  0  0  0  0  0  0  0  0  0  0
   35.2363  -12.0250   -2.0479 H   0  0  0  0  0  0  0  0  0  0  0  0
   35.8442  -10.3928   -2.5232 H   0  0  0  0  0  0  0  0  0  0  0  0
   36.5650  -13.0741   -3.7702 H   0  0  0  0  0  0  0  0  0  0  0  0
   35.5886  -11.6896   -4.4879 H   0  0  0  0  0  0  0  0  0  0  0  0
  1  2  2  0
  2  3  1  0
  3  4  1  0
  4  5  1  0
  5  6  2  0
  6  7  1  0
  7  8  2  0
  8  9  1  0
  9 10  1  0
  9 11  1  0
  9 12  1  0
  8 13  1  0
 13 14  2  0
  4 15  2  0
 15 16  1  0
 16 17  2  0
 17 18  1  0
 18 19  1  0
 19 20  1  0
 20 21  1  0
 17  2  1  0
 14  5  1  0
 21 16  1  0
  3 22  1  0
  6 23  1  0
  7 24  1  0
 13 25  1  0
 14 26  1  0
 18 27  1  0
 18 28  1  0
 20 29  1  0
 20 30  1  0
 21 31  1  0
 21 32  1  0
M  END
>  <meeko>  (4) 
{"is_sidechain": [false], "free_energy": -8.987, "intermolecular_energy": -10.08, "internal_energy": -0.357}

$$$$
3kr8_ligand
     RDKit          3D

 32 34  0  0  0  0  0  0  0  0999 V2000
   36.1800  -12.2840   -4.1540 O   0  0  0  0  0  0  0  0  0  0  0  0
   37.1850  -11.7690   -4.6320 C   0  0  0  0  0  0  0  0  0  0  0  0
   37.4210  -11.7760   -5.9730 N   0  0  0  0  0  0  0  0  0  0  0  0
   38.5340  -11.2000   -6.5260 C   0  0  0  0  0  0  0  0  0  0  0  0
   38.6610  -11.2590   -8.0080 C   0  0  0  0  0  0  0  0  0  0  0  0
   38.1110  -10.2760   -8.8390 C   0  0  0  0  0  0  0  0  0  0  0  0
   38.2540  -10.3730  -10.2280 C   0  0  0  0  0  0  0  0  0  0  0  0
   38.9330  -11.4560  -10.8070 C   0  0  0  0  0  0  0  0  0  0  0  0
   39.1030  -11.5450  -12.3050 C   0  0  0  0  0  0  0  0  0  0  0  0
   39.6600  -12.7260  -12.6910 F   0  0  0  0  0  0  0  0  0  0  0  0
   39.9090  -10.5680  -12.8070 F   0  0  0  0  0  0  0  0  0  0  0  0
   37.9280  -11.4430  -12.9850 F   0  0  0  0  0  0  0  0  0  0  0  0
   39.4770  -12.4390   -9.9670 C   0  0  0  0  0  0  0  0  0  0  0  0
   39.3360  -12.3460   -8.5800 C   0  0  0  0  0  0  0  0  0  0  0  0
   39.4370  -10.6130   -5.8100 N   0  0  0  0  0  0  0  0  0  0  0  0
   39.2720  -10.5820   -4.4430 C   0  0  0  0  0  0  0  0  0  0  0  0
   38.2150  -11.1090   -3.7970 C   0  0  0  0  0  0  0  0  0  0  0  0
   37.9340  -11.1100   -2.3260 C   0  0  0  0  0  0  0  0  0  0  0  0
   38.9720   -9.9670   -1.3710 S   0  0  0  0  0  0  0  0  0  0  0  0
   40.5350  -10.2680   -2.2340 C   0  0  0  0  0  0  0  0  0  0  0  0
   40.4120   -9.9090   -3.7090 C   0  0  0  0  0  0  0  0  0  0  0  0
   36.6900  -12.1830   -6.5340 H   0  0  0  0  0  0  0  0  0  0  0  0
   37.5662   -9.4270   -8.4003 H   0  0  0  0  0  0  0  0  0  0  0  0
   37.8288   -9.5905  -10.8738 H   0  0  0  0  0  0  0  0  0  0  0  0
   40.0193  -13.2904  -10.4040 H   0  0  0  0  0  0  0  0  0  0  0  0
   39.7570  -13.1301   -7.9335 H   0  0  0  0  0  0  0  0  0  0  0  0
   36.8814  -10.8283   -2.1754 H   0  0  0  0  0  0  0  0  0  0  0  0
   38.1597  -12.1229   -1.9611 H   0  0  0  0  0  0  0  0  0  0  0  0
   41.3243   -9.6530   -1.7771 H   0  0  0  0  0  0  0  0  0  0  0  0
   40.7866  -11.3355   -2.1491 H   0  0  0  0  0  0  0  0  0  0  0  0
   40.2696   -8.8208   -3.7837 H   0  0  0  0  0  0  0  0  0  0  0  0
   41.3360  -10.2650   -4.1880 H   0  0  0  0  0  0  0  0  0  0  0  0
  1  2  2  0
  2  3  1  0
  3  4  1  0
  4  5  1  0
  5  6  2  0
  6  7  1  0
  7  8  2  0
  8  9  1  0
  9 10  1  0
  9 11  1  0
  9 12  1  0
  8 13  1  0
 13 14  2  0
  4 15  2  0
 15 16  1  0
 16 17  2  0
 17 18  1  0
 18 19  1  0
 19 20  1  0
 20 21  1  0
 17  2  1  0
 14  5  1  0
 21 16  1  0
  3 22  1  0
  6 23  1  0
  7 24  1  0
 13 25  1  0
 14 26  1  0
 18 27  1  0
 18 28  1  0
 20 29  1  0
 20 30  1  0
 21 31  1  0
 21 32  1  0
M  END
>  <meeko>  (5) 
{"is_sidechain": [false], "free_energy": -8.905, "intermolecular_energy": -9.989, "internal_energy": -0.357}

$$$$
