2xys_ligand
     RDKit          3D

 48 54  0  0  0  0  0  0  0  0999 V2000
  -50.3420   14.7910   36.0270 O   0  0  0  0  0  0  0  0  0  0  0  0
  -50.9100   14.0890   35.1930 C   0  0  0  0  0  0  0  0  0  0  0  0
  -50.7770   12.5590   35.2650 C   0  0  0  0  0  0  0  0  0  0  0  0
  -51.8420   11.7040   34.5290 C   0  0  2  0  0  0  0  0  0  0  0  0
  -51.1690   11.0340   33.4540 O   0  0  0  0  0  0  0  0  0  0  0  0
  -51.9030    9.9740   32.8580 C   0  0  0  0  0  0  0  0  0  0  0  0
  -52.7090   10.5340   31.7200 C   0  0  0  0  0  0  0  0  0  0  0  0
  -53.7200   11.4120   31.8590 C   0  0  0  0  0  0  0  0  0  0  0  0
  -54.4820   11.9390   30.6700 C   0  0  0  0  0  0  0  0  0  0  0  0
  -54.7190   13.4350   30.7050 N   0  0  2  0  0  0  0  0  0  0  0  0
  -53.7760   14.2730   29.8930 C   0  0  0  0  0  0  0  0  0  0  0  0
  -52.6370   14.5990   30.8350 C   0  0  0  0  0  0  0  0  0  0  0  0
  -53.2290   14.5580   32.2670 C   0  0  2  0  0  0  0  0  0  0  0  0
  -53.1070   15.9110   32.9370 C   0  0  0  0  0  0  0  0  0  0  0  0
  -53.7370   17.1020   32.5930 C   0  0  0  0  0  0  0  0  0  0  0  0
  -53.4560   18.2470   33.3410 C   0  0  0  0  0  0  0  0  0  0  0  0
  -52.5520   18.1980   34.4100 C   0  0  0  0  0  0  0  0  0  0  0  0
  -51.9140   17.0030   34.7490 C   0  0  0  0  0  0  0  0  0  0  0  0
  -52.1960   15.8730   34.0030 C   0  0  0  0  0  0  0  0  0  0  0  0
  -51.7030   14.5760   34.1700 N   0  0  0  0  0  0  0  0  0  0  0  0
  -52.3220   13.6930   33.1970 C   0  0  1  0  0  0  0  0  0  0  0  0
  -52.9890   12.5860   34.0130 C   0  0  1  0  0  0  0  0  0  0  0  0
  -54.1310   11.9300   33.2280 C   0  0  1  0  0  0  0  0  0  0  0  0
  -55.1940   13.0270   33.0840 C   0  0  0  0  0  0  0  0  0  0  0  0
  -54.6890   14.0630   32.0940 C   0  0  2  0  0  0  0  0  0  0  0  0
  -49.7959   12.2949   34.8434 H   0  0  0  0  0  0  0  0  0  0  0  0
  -50.9169   12.3190   36.3293 H   0  0  0  0  0  0  0  0  0  0  0  0
  -52.2979   10.9703   35.2101 H   0  0  0  0  0  0  0  0  0  0  0  0
  -51.2092    9.2086   32.4801 H   0  0  0  0  0  0  0  0  0  0  0  0
  -52.5698    9.5124   33.6012 H   0  0  0  0  0  0  0  0  0  0  0  0
  -52.4551   10.2033   30.7021 H   0  0  0  0  0  0  0  0  0  0  0  0
  -53.9120   11.7001   29.7601 H   0  0  0  0  0  0  0  0  0  0  0  0
  -55.4716   11.4591   30.6875 H   0  0  0  0  0  0  0  0  0  0  0  0
  -55.6590   13.5720   30.3080 H   0  0  0  0  0  0  0  0  0  0  0  0
  -53.4092   13.7098   29.0222 H   0  0  0  0  0  0  0  0  0  0  0  0
  -54.2604   15.1786   29.4991 H   0  0  0  0  0  0  0  0  0  0  0  0
  -51.8342   13.8539   30.7336 H   0  0  0  0  0  0  0  0  0  0  0  0
  -52.2032   15.5846   30.6106 H   0  0  0  0  0  0  0  0  0  0  0  0
  -54.4418   17.1412   31.7494 H   0  0  0  0  0  0  0  0  0  0  0  0
  -53.9494   19.1971   33.0883 H   0  0  0  0  0  0  0  0  0  0  0  0
  -52.3426   19.1100   34.9882 H   0  0  0  0  0  0  0  0  0  0  0  0
  -51.2046   16.9614   35.5887 H   0  0  0  0  0  0  0  0  0  0  0  0
  -51.6405   13.1883   32.4964 H   0  0  0  0  0  0  0  0  0  0  0  0
  -53.5372   12.9335   34.9011 H   0  0  0  0  0  0  0  0  0  0  0  0
  -54.4892   11.0387   33.7640 H   0  0  0  0  0  0  0  0  0  0  0  0
  -56.1324   12.5877   32.7146 H   0  0  0  0  0  0  0  0  0  0  0  0
  -55.3819   13.4991   34.0596 H   0  0  0  0  0  0  0  0  0  0  0  0
  -55.3473   14.9287   32.2593 H   0  0  0  0  0  0  0  0  0  0  0  0
  1  2  2  0
  2  3  1  0
  3  4  1  0
  4  5  1  0
  5  6  1  0
  6  7  1  0
  7  8  2  0
  8  9  1  0
  9 10  1  0
 10 11  1  0
 11 12  1  0
 13 12  1  6
 13 14  1  0
 14 15  2  0
 15 16  1  0
 16 17  2  0
 17 18  1  0
 18 19  2  0
 19 20  1  0
 20 21  1  0
 21 22  1  0
 22 23  1  0
 23 24  1  0
 24 25  1  0
 20  2  1  0
 22  4  1  0
 23  8  1  0
 25 10  1  0
 21 13  1  0
 25 13  1  0
 19 14  1  0
  3 26  1  0
  3 27  1  0
  4 28  1  1
  6 29  1  0
  6 30  1  0
  7 31  1  0
  9 32  1  0
  9 33  1  0
 10 34  1  6
 11 35  1  0
 11 36  1  0
 12 37  1  0
 12 38  1  0
 15 39  1  0
 16 40  1  0
 17 41  1  0
 18 42  1  0
 21 43  1  6
 22 44  1  1
 23 45  1  1
 24 46  1  0
 24 47  1  0
 25 48  1  6
M  CHG  1  10   1
M  END
>  <meeko>  (1) 
{"is_sidechain": [false], "free_energy": -9.703, "intermolecular_energy": -10.837, "internal_energy": 0.436}

$$$$
2xys_ligand
     RDKit          3D

 48 54  0  0  0  0  0  0  0  0999 V2000
  -49.6390   12.6870   35.7210 O   0  0  0  0  0  0  0  0  0  0  0  0
  -50.4510   13.3850   35.1180 C   0  0  0  0  0  0  0  0  0  0  0  0
  -50.3840   14.9150   35.2420 C   0  0  0  0  0  0  0  0  0  0  0  0
  -51.0790   15.7630   34.1440 C   0  0  2  0  0  0  0  0  0  0  0  0
  -52.1790   16.4360   34.7710 O   0  0  0  0  0  0  0  0  0  0  0  0
  -52.7480   17.4900   34.0070 C   0  0  0  0  0  0  0  0  0  0  0  0
  -53.8530   16.9250   33.1620 C   0  0  0  0  0  0  0  0  0  0  0  0
  -53.6760   16.0400   32.1630 C   0  0  0  0  0  0  0  0  0  0  0  0
  -54.8340   15.5070   31.3610 C   0  0  0  0  0  0  0  0  0  0  0  0
  -54.7900   14.0100   31.1350 N   0  0  2  0  0  0  0  0  0  0  0  0
  -55.6370   13.1780   32.0530 C   0  0  0  0  0  0  0  0  0  0  0  0
  -54.7390   12.8610   33.2290 C   0  0  0  0  0  0  0  0  0  0  0  0
  -53.2850   12.8980   32.6920 C   0  0  2  0  0  0  0  0  0  0  0  0
  -52.6210   11.5460   32.8490 C   0  0  0  0  0  0  0  0  0  0  0  0
  -52.9400   10.3510   32.2140 C   0  0  0  0  0  0  0  0  0  0  0  0
  -52.2030    9.2080   32.5320 C   0  0  0  0  0  0  0  0  0  0  0  0
  -51.1690    9.2640   33.4760 C   0  0  0  0  0  0  0  0  0  0  0  0
  -50.8550   10.4630   34.1180 C   0  0  0  0  0  0  0  0  0  0  0  0
  -51.5900   11.5910   33.8000 C   0  0  0  0  0  0  0  0  0  0  0  0
  -51.4420   12.8920   34.2890 N   0  0  0  0  0  0  0  0  0  0  0  0
  -52.3910   13.7700   33.6280 C   0  0  1  0  0  0  0  0  0  0  0  0
  -51.5500   14.8730   32.9850 C   0  0  1  0  0  0  0  0  0  0  0  0
  -52.2910   15.5200   31.8090 C   0  0  1  0  0  0  0  0  0  0  0  0
  -52.3940   14.4160   30.7490 C   0  0  0  0  0  0  0  0  0  0  0  0
  -53.4030   13.3820   31.2230 C   0  0  2  0  0  0  0  0  0  0  0  0
  -50.8423   15.1861   36.2045 H   0  0  0  0  0  0  0  0  0  0  0  0
  -49.3151   15.1537   35.1399 H   0  0  0  0  0  0  0  0  0  0  0  0
  -50.3818   16.4946   33.7096 H   0  0  0  0  0  0  0  0  0  0  0  0
  -53.1528   18.2596   34.6807 H   0  0  0  0  0  0  0  0  0  0  0  0
  -51.9800   17.9470   33.3657 H   0  0  0  0  0  0  0  0  0  0  0  0
  -54.8798   17.2577   33.3742 H   0  0  0  0  0  0  0  0  0  0  0  0
  -55.7649   15.7490   31.8948 H   0  0  0  0  0  0  0  0  0  0  0  0
  -54.7789   15.9802   30.3695 H   0  0  0  0  0  0  0  0  0  0  0  0
  -55.1510   13.8660   30.1820 H   0  0  0  0  0  0  0  0  0  0  0  0
  -56.5213   13.7432   32.3824 H   0  0  0  0  0  0  0  0  0  0  0  0
  -56.0118   12.2685   31.5606 H   0  0  0  0  0  0  0  0  0  0  0  0
  -54.8710   13.6121   34.0218 H   0  0  0  0  0  0  0  0  0  0  0  0
  -54.9796   11.8784   33.6610 H   0  0  0  0  0  0  0  0  0  0  0  0
  -53.7553   10.3067   31.4770 H   0  0  0  0  0  0  0  0  0  0  0  0
  -52.4366    8.2542   32.0364 H   0  0  0  0  0  0  0  0  0  0  0  0
  -50.5989    8.3538   33.7136 H   0  0  0  0  0  0  0  0  0  0  0  0
  -50.0430   10.5098   34.8586 H   0  0  0  0  0  0  0  0  0  0  0  0
  -53.1174   14.2789   34.2787 H   0  0  0  0  0  0  0  0  0  0  0  0
  -50.6411   14.5225   32.4741 H   0  0  0  0  0  0  0  0  0  0  0  0
  -51.7416   16.4090   31.4659 H   0  0  0  0  0  0  0  0  0  0  0  0
  -52.7274   14.8487   29.7942 H   0  0  0  0  0  0  0  0  0  0  0  0
  -51.4118   13.9431   30.6018 H   0  0  0  0  0  0  0  0  0  0  0  0
  -53.2134   12.5113   30.5781 H   0  0  0  0  0  0  0  0  0  0  0  0
  1  2  2  0
  2  3  1  0
  3  4  1  0
  4  5  1  0
  5  6  1  0
  6  7  1  0
  7  8  2  0
  8  9  1  0
  9 10  1  0
 10 11  1  0
 11 12  1  0
 13 12  1  1
 13 14  1  0
 14 15  2  0
 15 16  1  0
 16 17  2  0
 17 18  1  0
 18 19  2  0
 19 20  1  0
 20 21  1  0
 21 22  1  0
 22 23  1  0
 23 24  1  0
 24 25  1  0
 20  2  1  0
 22  4  1  0
 23  8  1  0
 25 10  1  0
 21 13  1  0
 25 13  1  0
 19 14  1  0
  3 26  1  0
  3 27  1  0
  4 28  1  6
  6 29  1  0
  6 30  1  0
  7 31  1  0
  9 32  1  0
  9 33  1  0
 10 34  1  6
 11 35  1  0
 11 36  1  0
 12 37  1  0
 12 38  1  0
 15 39  1  0
 16 40  1  0
 17 41  1  0
 18 42  1  0
 21 43  1  1
 22 44  1  6
 23 45  1  6
 24 46  1  0
 24 47  1  0
 25 48  1  6
M  CHG  1  10   1
M  END
>  <meeko>  (2) 
{"is_sidechain": [false], "free_energy": -9.257, "intermolecular_energy": -10.339, "internal_energy": 0.436}

$$$$
2xys_ligand
     RDKit          3D

 48 54  0  0  0  0  0  0  0  0999 V2000
  -50.7010   10.2680   34.4860 O   0  0  0  0  0  0  0  0  0  0  0  0
  -51.5430   10.8010   33.7670 C   0  0  0  0  0  0  0  0  0  0  0  0
  -52.5240    9.9320   32.9650 C   0  0  0  0  0  0  0  0  0  0  0  0
  -53.8320   10.5940   32.4580 C   0  0  2  0  0  0  0  0  0  0  0  0
  -53.7530   10.6330   31.0270 O   0  0  0  0  0  0  0  0  0  0  0  0
  -53.6850   11.9380   30.4690 C   0  0  0  0  0  0  0  0  0  0  0  0
  -55.0880   12.4090   30.1910 C   0  0  0  0  0  0  0  0  0  0  0  0
  -55.2010   13.2930   31.2000 C   0  0  0  0  0  0  0  0  0  0  0  0
  -55.2970   14.7760   30.9480 C   0  0  0  0  0  0  0  0  0  0  0  0
  -54.4210   15.6130   31.8580 N   0  0  2  0  0  0  0  0  0  0  0  0
  -53.1110   16.0640   31.2810 C   0  0  0  0  0  0  0  0  0  0  0  0
  -52.1340   14.9620   31.6280 C   0  0  0  0  0  0  0  0  0  0  0  0
  -52.6750   14.2860   32.9140 C   0  0  2  0  0  0  0  0  0  0  0  0
  -51.6840   14.4260   34.0510 C   0  0  0  0  0  0  0  0  0  0  0  0
  -51.2770   15.5850   34.7010 C   0  0  0  0  0  0  0  0  0  0  0  0
  -50.3230   15.4820   35.7160 C   0  0  0  0  0  0  0  0  0  0  0  0
  -49.7830   14.2370   36.0660 C   0  0  0  0  0  0  0  0  0  0  0  0
  -50.1880   13.0750   35.4070 C   0  0  0  0  0  0  0  0  0  0  0  0
  -51.1310   13.1850   34.4010 C   0  0  0  0  0  0  0  0  0  0  0  0
  -51.7000   12.1680   33.6290 N   0  0  0  0  0  0  0  0  0  0  0  0
  -52.6960   12.7360   32.7370 C   0  0  1  0  0  0  0  0  0  0  0  0
  -53.9980   12.0000   33.0530 C   0  0  1  0  0  0  0  0  0  0  0  0
  -55.2190   12.8350   32.6500 C   0  0  1  0  0  0  0  0  0  0  0  0
  -55.1970   14.0480   33.5900 C   0  0  0  0  0  0  0  0  0  0  0  0
  -54.0490   14.9560   33.1830 C   0  0  2  0  0  0  0  0  0  0  0  0
  -51.9838    9.5564   32.0835 H   0  0  0  0  0  0  0  0  0  0  0  0
  -52.8611    9.1658   33.6787 H   0  0  0  0  0  0  0  0  0  0  0  0
  -54.7140   10.0181   32.7748 H   0  0  0  0  0  0  0  0  0  0  0  0
  -53.1976   12.6213   31.1801 H   0  0  0  0  0  0  0  0  0  0  0  0
  -53.1002   11.9211   29.5375 H   0  0  0  0  0  0  0  0  0  0  0  0
  -55.8012   12.1197   29.4051 H   0  0  0  0  0  0  0  0  0  0  0  0
  -54.9995   14.9701   29.9069 H   0  0  0  0  0  0  0  0  0  0  0  0
  -56.3380   15.0671   31.1519 H   0  0  0  0  0  0  0  0  0  0  0  0
  -54.9680   16.4610   32.0590 H   0  0  0  0  0  0  0  0  0  0  0  0
  -53.1889   16.1831   30.1902 H   0  0  0  0  0  0  0  0  0  0  0  0
  -52.7955   17.0389   31.6811 H   0  0  0  0  0  0  0  0  0  0  0  0
  -52.0787   14.2306   30.8082 H   0  0  0  0  0  0  0  0  0  0  0  0
  -51.1211   15.3617   31.7836 H   0  0  0  0  0  0  0  0  0  0  0  0
  -51.6972   16.5626   34.4221 H   0  0  0  0  0  0  0  0  0  0  0  0
  -49.9922   16.3873   36.2460 H   0  0  0  0  0  0  0  0  0  0  0  0
  -49.0326   14.1749   36.8679 H   0  0  0  0  0  0  0  0  0  0  0  0
  -49.7677   12.0961   35.6809 H   0  0  0  0  0  0  0  0  0  0  0  0
  -52.5200   12.5965   31.6602 H   0  0  0  0  0  0  0  0  0  0  0  0
  -54.2024   11.8617   34.1250 H   0  0  0  0  0  0  0  0  0  0  0  0
  -56.1322   12.2279   32.7368 H   0  0  0  0  0  0  0  0  0  0  0  0
  -56.1480   14.5951   33.5113 H   0  0  0  0  0  0  0  0  0  0  0  0
  -55.0624   13.7152   34.6298 H   0  0  0  0  0  0  0  0  0  0  0  0
  -53.9213   15.6242   34.0474 H   0  0  0  0  0  0  0  0  0  0  0  0
  1  2  2  0
  2  3  1  0
  3  4  1  0
  4  5  1  0
  5  6  1  0
  6  7  1  0
  7  8  2  0
  8  9  1  0
  9 10  1  0
 10 11  1  0
 11 12  1  0
 13 12  1  6
 13 14  1  0
 14 15  2  0
 15 16  1  0
 16 17  2  0
 17 18  1  0
 18 19  2  0
 19 20  1  0
 20 21  1  0
 21 22  1  0
 22 23  1  0
 23 24  1  0
 24 25  1  0
 20  2  1  0
 22  4  1  0
 23  8  1  0
 25 10  1  0
 21 13  1  0
 25 13  1  0
 19 14  1  0
  3 26  1  0
  3 27  1  0
  4 28  1  6
  6 29  1  0
  6 30  1  0
  7 31  1  0
  9 32  1  0
  9 33  1  0
 10 34  1  1
 11 35  1  0
 11 36  1  0
 12 37  1  0
 12 38  1  0
 15 39  1  0
 16 40  1  0
 17 41  1  0
 18 42  1  0
 21 43  1  6
 22 44  1  1
 23 45  1  6
 24 46  1  0
 24 47  1  0
 25 48  1  1
M  CHG  1  10   1
M  END
>  <meeko>  (3) 
{"is_sidechain": [false], "free_energy": -7.494, "intermolecular_energy": -10.001, "internal_energy": 2.067}

$$$$
