3zdg_ligand
     RDKit          3D

 34 33  0  0  0  0  0  0  0  0999 V2000
  -97.9720   37.1550   28.3060 C   0  0  0  0  0  0  0  0  0  0  0  0
  -98.9180   37.3450   27.1160 C   0  0  2  0  0  0  0  0  0  0  0  0
  -98.9610   38.8160   26.6470 C   0  0  0  0  0  0  0  0  0  0  0  0
  -99.7250   39.1760   25.3720 C   0  0  0  0  0  0  0  0  0  0  0  0
 -101.1420   39.0080   25.4870 O   0  0  0  0  0  0  0  0  0  0  0  0
 -101.8820   39.3570   24.3980 C   0  0  0  0  0  0  0  0  0  0  0  0
 -101.3660   39.5530   23.2990 O   0  0  0  0  0  0  0  0  0  0  0  0
 -103.2360   39.3980   24.6510 N   0  0  0  0  0  0  0  0  0  0  0  0
 -104.1350   39.8940   23.6240 C   0  0  0  0  0  0  0  0  0  0  0  0
 -103.7870   39.2930   25.9950 C   0  0  0  0  0  0  0  0  0  0  0  0
 -100.3030   36.7730   27.4020 N   0  0  0  0  0  0  0  0  0  0  0  0
 -101.0260   37.4410   28.5450 C   0  0  0  0  0  0  0  0  0  0  0  0
 -100.3120   35.2810   27.6060 C   0  0  0  0  0  0  0  0  0  0  0  0
  -98.5354   37.2682   29.2440 H   0  0  0  0  0  0  0  0  0  0  0  0
  -97.5276   36.1497   28.2642 H   0  0  0  0  0  0  0  0  0  0  0  0
  -97.1738   37.9108   28.2642 H   0  0  0  0  0  0  0  0  0  0  0  0
  -98.5119   36.7665   26.2731 H   0  0  0  0  0  0  0  0  0  0  0  0
  -99.4090   39.3999   27.4645 H   0  0  0  0  0  0  0  0  0  0  0  0
  -97.9139   39.0378   26.3931 H   0  0  0  0  0  0  0  0  0  0  0  0
  -99.5181   40.2284   25.1279 H   0  0  0  0  0  0  0  0  0  0  0  0
  -99.3812   38.4889   24.5847 H   0  0  0  0  0  0  0  0  0  0  0  0
 -105.0042   40.3735   24.0979 H   0  0  0  0  0  0  0  0  0  0  0  0
 -103.6070   40.6285   22.9981 H   0  0  0  0  0  0  0  0  0  0  0  0
 -104.4748   39.0557   22.9981 H   0  0  0  0  0  0  0  0  0  0  0  0
 -102.9856   39.4457   26.7328 H   0  0  0  0  0  0  0  0  0  0  0  0
 -104.5639   40.0593   26.1337 H   0  0  0  0  0  0  0  0  0  0  0  0
 -104.2277   38.2947   26.1337 H   0  0  0  0  0  0  0  0  0  0  0  0
 -100.9020   36.9670   26.5700 H   0  0  0  0  0  0  0  0  0  0  0  0
 -100.6246   37.0701   29.4996 H   0  0  0  0  0  0  0  0  0  0  0  0
 -100.8808   38.5297   28.4845 H   0  0  0  0  0  0  0  0  0  0  0  0
 -102.0998   37.2103   28.4845 H   0  0  0  0  0  0  0  0  0  0  0  0
 -100.3133   35.0582   28.6832 H   0  0  0  0  0  0  0  0  0  0  0  0
 -101.2127   34.8529   27.1419 H   0  0  0  0  0  0  0  0  0  0  0  0
  -99.4165   34.8421   27.1419 H   0  0  0  0  0  0  0  0  0  0  0  0
  1  2  1  0
  2  3  1  0
  3  4  1  0
  4  5  1  0
  5  6  1  0
  6  7  2  0
  6  8  1  0
  8  9  1  0
  8 10  1  0
  2 11  1  0
 11 12  1  0
 11 13  1  0
  1 14  1  0
  1 15  1  0
  1 16  1  0
  2 17  1  6
  3 18  1  0
  3 19  1  0
  4 20  1  0
  4 21  1  0
  9 22  1  0
  9 23  1  0
  9 24  1  0
 10 25  1  0
 10 26  1  0
 10 27  1  0
 11 28  1  0
 12 29  1  0
 12 30  1  0
 12 31  1  0
 13 32  1  0
 13 33  1  0
 13 34  1  0
M  CHG  1  11   1
M  END
>  <meeko>  (1) 
{"is_sidechain": [false], "free_energy": -5.803, "intermolecular_energy": -7.499, "internal_energy": -0.452}

$$$$
3zdg_ligand
     RDKit          3D

 34 33  0  0  0  0  0  0  0  0999 V2000
  -97.9500   37.5330   27.5950 C   0  0  0  0  0  0  0  0  0  0  0  0
  -99.2280   37.4870   26.7520 C   0  0  2  0  0  0  0  0  0  0  0  0
  -99.5880   38.8770   26.1800 C   0  0  0  0  0  0  0  0  0  0  0  0
 -100.6880   38.9930   25.1240 C   0  0  0  0  0  0  0  0  0  0  0  0
 -101.7810   39.8260   25.5260 O   0  0  0  0  0  0  0  0  0  0  0  0
 -102.9110   39.1840   25.9330 C   0  0  0  0  0  0  0  0  0  0  0  0
 -102.9270   38.4740   26.9370 O   0  0  0  0  0  0  0  0  0  0  0  0
 -104.0100   39.4670   25.1510 N   0  0  0  0  0  0  0  0  0  0  0  0
 -105.2480   38.7440   25.3780 C   0  0  0  0  0  0  0  0  0  0  0  0
 -103.9130   40.2020   23.8970 C   0  0  0  0  0  0  0  0  0  0  0  0
 -100.3820   36.8420   27.5130 N   0  0  0  0  0  0  0  0  0  0  0  0
 -100.5650   37.3610   28.9180 C   0  0  0  0  0  0  0  0  0  0  0  0
 -100.3260   35.3380   27.5360 C   0  0  0  0  0  0  0  0  0  0  0  0
  -98.2145   37.5235   28.6627 H   0  0  0  0  0  0  0  0  0  0  0  0
  -97.3265   36.6567   27.3639 H   0  0  0  0  0  0  0  0  0  0  0  0
  -97.3912   38.4518   27.3639 H   0  0  0  0  0  0  0  0  0  0  0  0
  -99.0300   36.8401   25.8846 H   0  0  0  0  0  0  0  0  0  0  0  0
  -99.8932   39.5041   27.0306 H   0  0  0  0  0  0  0  0  0  0  0  0
  -98.6781   39.1788   25.6406 H   0  0  0  0  0  0  0  0  0  0  0  0
 -100.2481   39.4141   24.2080 H   0  0  0  0  0  0  0  0  0  0  0  0
 -101.0927   37.9824   24.9665 H   0  0  0  0  0  0  0  0  0  0  0  0
 -105.4207   38.6432   26.4597 H   0  0  0  0  0  0  0  0  0  0  0  0
 -106.0837   39.2960   24.9232 H   0  0  0  0  0  0  0  0  0  0  0  0
 -105.1778   37.7449   24.9232 H   0  0  0  0  0  0  0  0  0  0  0  0
 -103.7718   41.2721   24.1092 H   0  0  0  0  0  0  0  0  0  0  0  0
 -103.0566   39.8270   23.3175 H   0  0  0  0  0  0  0  0  0  0  0  0
 -104.8374   40.0620   23.3175 H   0  0  0  0  0  0  0  0  0  0  0  0
 -101.2670   37.1030   27.0250 H   0  0  0  0  0  0  0  0  0  0  0  0
 -100.2884   36.5764   29.6376 H   0  0  0  0  0  0  0  0  0  0  0  0
  -99.9230   38.2411   29.0703 H   0  0  0  0  0  0  0  0  0  0  0  0
 -101.6171   37.6438   29.0703 H   0  0  0  0  0  0  0  0  0  0  0  0
 -100.3129   34.9875   28.5786 H   0  0  0  0  0  0  0  0  0  0  0  0
 -101.2096   34.9303   27.0231 H   0  0  0  0  0  0  0  0  0  0  0  0
  -99.4145   34.9971   27.0231 H   0  0  0  0  0  0  0  0  0  0  0  0
  1  2  1  0
  2  3  1  0
  3  4  1  0
  4  5  1  0
  5  6  1  0
  6  7  2  0
  6  8  1  0
  8  9  1  0
  8 10  1  0
  2 11  1  0
 11 12  1  0
 11 13  1  0
  1 14  1  0
  1 15  1  0
  1 16  1  0
  2 17  1  6
  3 18  1  0
  3 19  1  0
  4 20  1  0
  4 21  1  0
  9 22  1  0
  9 23  1  0
  9 24  1  0
 10 25  1  0
 10 26  1  0
 10 27  1  0
 11 28  1  0
 12 29  1  0
 12 30  1  0
 12 31  1  0
 13 32  1  0
 13 33  1  0
 13 34  1  0
M  CHG  1  11   1
M  END
>  <meeko>  (2) 
{"is_sidechain": [false], "free_energy": -5.646, "intermolecular_energy": -7.285, "internal_energy": -0.463}

$$$$
3zdg_ligand
     RDKit          3D

 34 33  0  0  0  0  0  0  0  0999 V2000
 -100.2640   35.6120   27.8390 C   0  0  0  0  0  0  0  0  0  0  0  0
 -100.1480   37.0270   28.4150 C   0  0  2  0  0  0  0  0  0  0  0  0
 -101.5050   37.7650   28.4000 C   0  0  0  0  0  0  0  0  0  0  0  0
 -102.1740   38.0830   27.0620 C   0  0  0  0  0  0  0  0  0  0  0  0
 -101.7720   39.3380   26.5040 O   0  0  0  0  0  0  0  0  0  0  0  0
 -101.2690   39.3040   25.2390 C   0  0  0  0  0  0  0  0  0  0  0  0
 -100.0790   39.0820   25.0210 O   0  0  0  0  0  0  0  0  0  0  0  0
 -102.2300   39.4770   24.2670 N   0  0  0  0  0  0  0  0  0  0  0  0
 -101.8210   39.6080   22.8800 C   0  0  0  0  0  0  0  0  0  0  0  0
 -103.5970   39.8720   24.5760 C   0  0  0  0  0  0  0  0  0  0  0  0
  -99.0340   37.8200   27.7370 N   0  0  0  0  0  0  0  0  0  0  0  0
  -97.7220   37.0830   27.6360 C   0  0  0  0  0  0  0  0  0  0  0  0
  -98.8030   39.1780   28.3450 C   0  0  0  0  0  0  0  0  0  0  0  0
 -100.3236   34.8848   28.6622 H   0  0  0  0  0  0  0  0  0  0  0  0
 -101.1710   35.5410   27.2206 H   0  0  0  0  0  0  0  0  0  0  0  0
  -99.3807   35.3943   27.2206 H   0  0  0  0  0  0  0  0  0  0  0  0
  -99.8621   36.9330   29.4730 H   0  0  0  0  0  0  0  0  0  0  0  0
 -102.2120   37.1465   28.9723 H   0  0  0  0  0  0  0  0  0  0  0  0
 -101.2646   38.7566   28.8110 H   0  0  0  0  0  0  0  0  0  0  0  0
 -101.9181   37.2868   26.3474 H   0  0  0  0  0  0  0  0  0  0  0  0
 -103.2561   38.1453   27.2494 H   0  0  0  0  0  0  0  0  0  0  0  0
 -100.7742   39.9433   22.8365 H   0  0  0  0  0  0  0  0  0  0  0  0
 -101.9155   38.6346   22.3764 H   0  0  0  0  0  0  0  0  0  0  0  0
 -102.4634   40.3453   22.3764 H   0  0  0  0  0  0  0  0  0  0  0  0
 -103.7298   39.9104   25.6673 H   0  0  0  0  0  0  0  0  0  0  0  0
 -103.7976   40.8649   24.1471 H   0  0  0  0  0  0  0  0  0  0  0  0
 -104.2963   39.1392   24.1471 H   0  0  0  0  0  0  0  0  0  0  0  0
  -99.3180   37.9780   26.7460 H   0  0  0  0  0  0  0  0  0  0  0  0
  -97.3425   36.8698   28.6462 H   0  0  0  0  0  0  0  0  0  0  0  0
  -97.8732   36.1378   27.0941 H   0  0  0  0  0  0  0  0  0  0  0  0
  -96.9934   37.7039   27.0941 H   0  0  0  0  0  0  0  0  0  0  0  0
  -98.8170   39.0959   29.4418 H   0  0  0  0  0  0  0  0  0  0  0  0
  -97.8262   39.5645   28.0187 H   0  0  0  0  0  0  0  0  0  0  0  0
  -99.5971   39.8657   28.0187 H   0  0  0  0  0  0  0  0  0  0  0  0
  1  2  1  0
  2  3  1  0
  3  4  1  0
  4  5  1  0
  5  6  1  0
  6  7  2  0
  6  8  1  0
  8  9  1  0
  8 10  1  0
  2 11  1  0
 11 12  1  0
 11 13  1  0
  1 14  1  0
  1 15  1  0
  1 16  1  0
  2 17  1  1
  3 18  1  0
  3 19  1  0
  4 20  1  0
  4 21  1  0
  9 22  1  0
  9 23  1  0
  9 24  1  0
 10 25  1  0
 10 26  1  0
 10 27  1  0
 11 28  1  0
 12 29  1  0
 12 30  1  0
 12 31  1  0
 13 32  1  0
 13 33  1  0
 13 34  1  0
M  CHG  1  11   1
M  END
>  <meeko>  (3) 
{"is_sidechain": [false], "free_energy": -5.198, "intermolecular_energy": -6.603, "internal_energy": -0.567}

$$$$
3zdg_ligand
     RDKit          3D

 34 33  0  0  0  0  0  0  0  0999 V2000
  -99.2670   36.1040   27.1800 C   0  0  0  0  0  0  0  0  0  0  0  0
  -99.2920   37.0830   28.3580 C   0  0  2  0  0  0  0  0  0  0  0  0
 -100.7320   37.5220   28.7070 C   0  0  0  0  0  0  0  0  0  0  0  0
 -101.8040   37.5200   27.6160 C   0  0  0  0  0  0  0  0  0  0  0  0
 -101.8940   38.7560   26.9000 O   0  0  0  0  0  0  0  0  0  0  0  0
 -103.0630   38.9900   26.2420 C   0  0  0  0  0  0  0  0  0  0  0  0
 -104.1540   38.8720   26.7980 O   0  0  0  0  0  0  0  0  0  0  0  0
 -102.8820   39.4210   24.9460 N   0  0  0  0  0  0  0  0  0  0  0  0
 -104.0380   39.5700   24.0790 C   0  0  0  0  0  0  0  0  0  0  0  0
 -101.5820   39.4140   24.2910 C   0  0  0  0  0  0  0  0  0  0  0  0
  -98.3520   38.2630   28.1290 N   0  0  0  0  0  0  0  0  0  0  0  0
  -98.5330   39.3980   29.1060 C   0  0  0  0  0  0  0  0  0  0  0  0
  -98.3850   38.8000   26.7230 C   0  0  0  0  0  0  0  0  0  0  0  0
  -99.2407   35.0724   27.5610 H   0  0  0  0  0  0  0  0  0  0  0  0
 -100.1690   36.2454   26.5665 H   0  0  0  0  0  0  0  0  0  0  0  0
  -98.3733   36.2912   26.5665 H   0  0  0  0  0  0  0  0  0  0  0  0
  -98.9104   36.5500   29.2413 H   0  0  0  0  0  0  0  0  0  0  0  0
 -101.0862   36.8530   29.5051 H   0  0  0  0  0  0  0  0  0  0  0  0
 -100.6236   38.5867   28.9615 H   0  0  0  0  0  0  0  0  0  0  0  0
 -101.5696   36.7191   26.8994 H   0  0  0  0  0  0  0  0  0  0  0  0
 -102.7720   37.3644   28.1147 H   0  0  0  0  0  0  0  0  0  0  0  0
 -104.9437   39.6867   24.6923 H   0  0  0  0  0  0  0  0  0  0  0  0
 -103.9080   40.4588   23.4441 H   0  0  0  0  0  0  0  0  0  0  0  0
 -104.1377   38.6773   23.4441 H   0  0  0  0  0  0  0  0  0  0  0  0
 -100.7879   39.4097   25.0522 H   0  0  0  0  0  0  0  0  0  0  0  0
 -101.4927   38.5154   23.6629 H   0  0  0  0  0  0  0  0  0  0  0  0
 -101.4830   40.3116   23.6629 H   0  0  0  0  0  0  0  0  0  0  0  0
  -97.3790   37.9280   28.3010 H   0  0  0  0  0  0  0  0  0  0  0  0
  -98.4712   39.0106   30.1337 H   0  0  0  0  0  0  0  0  0  0  0  0
  -97.7429   40.1470   28.9484 H   0  0  0  0  0  0  0  0  0  0  0  0
  -99.5168   39.8641   28.9484 H   0  0  0  0  0  0  0  0  0  0  0  0
  -98.4525   39.8976   26.7512 H   0  0  0  0  0  0  0  0  0  0  0  0
  -97.4669   38.5025   26.1952 H   0  0  0  0  0  0  0  0  0  0  0  0
  -99.2598   38.3923   26.1952 H   0  0  0  0  0  0  0  0  0  0  0  0
  1  2  1  0
  2  3  1  0
  3  4  1  0
  4  5  1  0
  5  6  1  0
  6  7  2  0
  6  8  1  0
  8  9  1  0
  8 10  1  0
  2 11  1  0
 11 12  1  0
 11 13  1  0
  1 14  1  0
  1 15  1  0
  1 16  1  0
  2 17  1  1
  3 18  1  0
  3 19  1  0
  4 20  1  0
  4 21  1  0
  9 22  1  0
  9 23  1  0
  9 24  1  0
 10 25  1  0
 10 26  1  0
 10 27  1  0
 11 28  1  0
 12 29  1  0
 12 30  1  0
 12 31  1  0
 13 32  1  0
 13 33  1  0
 13 34  1  0
M  CHG  1  11   1
M  END
>  <meeko>  (4) 
{"is_sidechain": [false], "free_energy": -5.184, "intermolecular_energy": -6.805, "internal_energy": -0.346}

$$$$
3zdg_ligand
     RDKit          3D

 34 33  0  0  0  0  0  0  0  0999 V2000
 -103.7280   40.2930   23.5510 C   0  0  0  0  0  0  0  0  0  0  0  0
 -102.8580   39.7010   24.6640 C   0  0  2  0  0  0  0  0  0  0  0  0
 -101.4930   39.2140   24.1270 C   0  0  0  0  0  0  0  0  0  0  0  0
 -100.2510   39.3330   25.0130 C   0  0  0  0  0  0  0  0  0  0  0  0
  -99.8810   38.1040   25.6470 O   0  0  0  0  0  0  0  0  0  0  0  0
  -98.9250   38.1880   26.6130 C   0  0  0  0  0  0  0  0  0  0  0  0
  -98.1040   39.1030   26.6350 O   0  0  0  0  0  0  0  0  0  0  0  0
  -99.0240   37.1960   27.5640 N   0  0  0  0  0  0  0  0  0  0  0  0
  -97.9870   37.0730   28.5730 C   0  0  0  0  0  0  0  0  0  0  0  0
  -99.9240   36.0600   27.4230 C   0  0  0  0  0  0  0  0  0  0  0  0
 -103.6030   38.6260   25.4500 N   0  0  0  0  0  0  0  0  0  0  0  0
 -105.0940   38.8380   25.5280 C   0  0  0  0  0  0  0  0  0  0  0  0
 -103.0540   38.3990   26.8340 C   0  0  0  0  0  0  0  0  0  0  0  0
 -104.5593   40.8587   23.9971 H   0  0  0  0  0  0  0  0  0  0  0  0
 -103.1195   40.9653   22.9283 H   0  0  0  0  0  0  0  0  0  0  0  0
 -104.1300   39.4802   22.9283 H   0  0  0  0  0  0  0  0  0  0  0  0
 -102.6372   40.5088   25.3772 H   0  0  0  0  0  0  0  0  0  0  0  0
 -101.6082   38.1487   23.8783 H   0  0  0  0  0  0  0  0  0  0  0  0
 -101.2830   39.8996   23.2928 H   0  0  0  0  0  0  0  0  0  0  0  0
  -99.4097   39.6700   24.3895 H   0  0  0  0  0  0  0  0  0  0  0  0
 -100.4917   40.0493   25.8123 H   0  0  0  0  0  0  0  0  0  0  0  0
  -98.4408   37.1268   29.5736 H   0  0  0  0  0  0  0  0  0  0  0  0
  -97.4731   36.1076   28.4549 H   0  0  0  0  0  0  0  0  0  0  0  0
  -97.2616   37.8914   28.4549 H   0  0  0  0  0  0  0  0  0  0  0  0
 -100.2130   35.6952   28.4197 H   0  0  0  0  0  0  0  0  0  0  0  0
 -100.8234   36.3710   26.8714 H   0  0  0  0  0  0  0  0  0  0  0  0
  -99.4155   35.2556   26.8714 H   0  0  0  0  0  0  0  0  0  0  0  0
 -103.4970   37.7260   24.9320 H   0  0  0  0  0  0  0  0  0  0  0  0
 -105.4034   38.8820   26.5827 H   0  0  0  0  0  0  0  0  0  0  0  0
 -105.3567   39.7825   25.0291 H   0  0  0  0  0  0  0  0  0  0  0  0
 -105.6095   38.0041   25.0291 H   0  0  0  0  0  0  0  0  0  0  0  0
 -103.8010   38.7079   27.5800 H   0  0  0  0  0  0  0  0  0  0  0  0
 -102.8232   37.3317   26.9664 H   0  0  0  0  0  0  0  0  0  0  0  0
 -102.1368   38.9917   26.9664 H   0  0  0  0  0  0  0  0  0  0  0  0
  1  2  1  0
  2  3  1  0
  3  4  1  0
  4  5  1  0
  5  6  1  0
  6  7  2  0
  6  8  1  0
  8  9  1  0
  8 10  1  0
  2 11  1  0
 11 12  1  0
 11 13  1  0
  1 14  1  0
  1 15  1  0
  1 16  1  0
  2 17  1  1
  3 18  1  0
  3 19  1  0
  4 20  1  0
  4 21  1  0
  9 22  1  0
  9 23  1  0
  9 24  1  0
 10 25  1  0
 10 26  1  0
 10 27  1  0
 11 28  1  0
 12 29  1  0
 12 30  1  0
 12 31  1  0
 13 32  1  0
 13 33  1  0
 13 34  1  0
M  CHG  1  11   1
M  END
>  <meeko>  (5) 
{"is_sidechain": [false], "free_energy": -5.149, "intermolecular_energy": -6.94, "internal_energy": -0.165}

$$$$
3zdg_ligand
     RDKit          3D

 34 33  0  0  0  0  0  0  0  0999 V2000
 -100.6670   39.1590   24.9390 C   0  0  0  0  0  0  0  0  0  0  0  0
 -102.0410   39.7710   25.2300 C   0  0  2  0  0  0  0  0  0  0  0  0
 -102.5590   39.3750   26.6300 C   0  0  0  0  0  0  0  0  0  0  0  0
 -102.2320   37.9890   27.1890 C   0  0  0  0  0  0  0  0  0  0  0  0
 -101.3360   38.0190   28.3050 O   0  0  0  0  0  0  0  0  0  0  0  0
 -100.3140   37.1200   28.2830 C   0  0  0  0  0  0  0  0  0  0  0  0
 -100.5160   35.9080   28.3300 O   0  0  0  0  0  0  0  0  0  0  0  0
  -99.0750   37.7070   28.1400 N   0  0  0  0  0  0  0  0  0  0  0  0
  -97.8830   36.8840   28.2450 C   0  0  0  0  0  0  0  0  0  0  0  0
  -98.8740   39.1460   28.2250 C   0  0  0  0  0  0  0  0  0  0  0  0
 -103.0400   39.4650   24.1190 N   0  0  0  0  0  0  0  0  0  0  0  0
 -103.0420   40.4690   22.9930 C   0  0  0  0  0  0  0  0  0  0  0  0
 -104.4480   39.2600   24.6110 C   0  0  0  0  0  0  0  0  0  0  0  0
 -100.1582   38.9324   25.8876 H   0  0  0  0  0  0  0  0  0  0  0  0
 -100.7936   38.2322   24.3602 H   0  0  0  0  0  0  0  0  0  0  0  0
 -100.0627   39.8730   24.3602 H   0  0  0  0  0  0  0  0  0  0  0  0
 -101.9215   40.8644   25.2452 H   0  0  0  0  0  0  0  0  0  0  0  0
 -102.1544   40.1105   27.3409 H   0  0  0  0  0  0  0  0  0  0  0  0
 -103.6516   39.3523   26.5047 H   0  0  0  0  0  0  0  0  0  0  0  0
 -103.1704   37.5126   27.5089 H   0  0  0  0  0  0  0  0  0  0  0  0
 -101.7305   37.4273   26.3871 H   0  0  0  0  0  0  0  0  0  0  0  0
  -97.6438   36.7188   29.3059 H   0  0  0  0  0  0  0  0  0  0  0  0
  -98.0615   35.9158   27.7543 H   0  0  0  0  0  0  0  0  0  0  0  0
  -97.0409   37.3940   27.7543 H   0  0  0  0  0  0  0  0  0  0  0  0
  -98.8317   39.4485   29.2817 H   0  0  0  0  0  0  0  0  0  0  0  0
  -97.9297   39.4143   27.7288 H   0  0  0  0  0  0  0  0  0  0  0  0
  -99.7087   39.6628   27.7288 H   0  0  0  0  0  0  0  0  0  0  0  0
 -102.7460   38.5720   23.6670 H   0  0  0  0  0  0  0  0  0  0  0  0
 -103.0440   41.4871   23.4095 H   0  0  0  0  0  0  0  0  0  0  0  0
 -102.1436   40.3278   22.3742 H   0  0  0  0  0  0  0  0  0  0  0  0
 -103.9399   40.3242   22.3742 H   0  0  0  0  0  0  0  0  0  0  0  0
 -104.4555   39.2589   25.7110 H   0  0  0  0  0  0  0  0  0  0  0  0
 -105.0880   40.0744   24.2408 H   0  0  0  0  0  0  0  0  0  0  0  0
 -104.8292   38.2969   24.2408 H   0  0  0  0  0  0  0  0  0  0  0  0
  1  2  1  0
  2  3  1  0
  3  4  1  0
  4  5  1  0
  5  6  1  0
  6  7  2  0
  6  8  1  0
  8  9  1  0
  8 10  1  0
  2 11  1  0
 11 12  1  0
 11 13  1  0
  1 14  1  0
  1 15  1  0
  1 16  1  0
  2 17  1  1
  3 18  1  0
  3 19  1  0
  4 20  1  0
  4 21  1  0
  9 22  1  0
  9 23  1  0
  9 24  1  0
 10 25  1  0
 10 26  1  0
 10 27  1  0
 11 28  1  0
 12 29  1  0
 12 30  1  0
 12 31  1  0
 13 32  1  0
 13 33  1  0
 13 34  1  0
M  CHG  1  11   1
M  END
>  <meeko>  (6) 
{"is_sidechain": [false], "free_energy": -4.869, "intermolecular_energy": -6.403, "internal_energy": -0.341}

$$$$
3zdg_ligand
     RDKit          3D

 34 33  0  0  0  0  0  0  0  0999 V2000
 -104.8390   38.9440   25.0440 C   0  0  0  0  0  0  0  0  0  0  0  0
 -103.3240   39.0510   24.8440 C   0  0  2  0  0  0  0  0  0  0  0  0
 -102.5880   39.3230   26.1750 C   0  0  0  0  0  0  0  0  0  0  0  0
 -101.0760   39.5560   26.1630 C   0  0  0  0  0  0  0  0  0  0  0  0
 -100.3120   38.3490   26.0740 O   0  0  0  0  0  0  0  0  0  0  0  0
  -99.1730   38.2980   26.8190 C   0  0  0  0  0  0  0  0  0  0  0  0
  -98.2410   39.0780   26.6300 O   0  0  0  0  0  0  0  0  0  0  0  0
  -99.2160   37.3470   27.8150 N   0  0  0  0  0  0  0  0  0  0  0  0
  -98.0210   37.0820   28.5950 C   0  0  0  0  0  0  0  0  0  0  0  0
 -100.2820   36.3600   27.9130 C   0  0  0  0  0  0  0  0  0  0  0  0
 -102.9700   40.0570   23.7540 N   0  0  0  0  0  0  0  0  0  0  0  0
 -104.1390   40.4850   22.9020 C   0  0  0  0  0  0  0  0  0  0  0  0
 -101.8370   39.6130   22.8660 C   0  0  0  0  0  0  0  0  0  0  0  0
 -105.0666   38.9279   26.1201 H   0  0  0  0  0  0  0  0  0  0  0  0
 -105.3324   39.8095   24.5778 H   0  0  0  0  0  0  0  0  0  0  0  0
 -105.2059   38.0177   24.5778 H   0  0  0  0  0  0  0  0  0  0  0  0
 -102.9658   38.0730   24.4900 H   0  0  0  0  0  0  0  0  0  0  0  0
 -103.0469   40.2195   26.6175 H   0  0  0  0  0  0  0  0  0  0  0  0
 -102.7009   38.3807   26.7312 H   0  0  0  0  0  0  0  0  0  0  0  0
 -100.8283   40.1891   25.2982 H   0  0  0  0  0  0  0  0  0  0  0  0
 -100.8151   40.0337   27.1189 H   0  0  0  0  0  0  0  0  0  0  0  0
  -98.2632   37.1357   29.6667 H   0  0  0  0  0  0  0  0  0  0  0  0
  -97.6415   36.0779   28.3547 H   0  0  0  0  0  0  0  0  0  0  0  0
  -97.2526   37.8316   28.3547 H   0  0  0  0  0  0  0  0  0  0  0  0
 -100.4992   36.1589   28.9724 H   0  0  0  0  0  0  0  0  0  0  0  0
 -101.1862   36.7468   27.4203 H   0  0  0  0  0  0  0  0  0  0  0  0
  -99.9659   35.4287   27.4203 H   0  0  0  0  0  0  0  0  0  0  0  0
 -102.6580   40.9350   24.2240 H   0  0  0  0  0  0  0  0  0  0  0  0
 -104.9732   40.7904   23.5508 H   0  0  0  0  0  0  0  0  0  0  0  0
 -103.8393   41.3317   22.2670 H   0  0  0  0  0  0  0  0  0  0  0  0
 -104.4569   39.6449   22.2670 H   0  0  0  0  0  0  0  0  0  0  0  0
 -100.9920   39.2819   23.4876 H   0  0  0  0  0  0  0  0  0  0  0  0
 -102.1735   38.7802   22.2310 H   0  0  0  0  0  0  0  0  0  0  0  0
 -101.5181   40.4527   22.2310 H   0  0  0  0  0  0  0  0  0  0  0  0
  1  2  1  0
  2  3  1  0
  3  4  1  0
  4  5  1  0
  5  6  1  0
  6  7  2  0
  6  8  1  0
  8  9  1  0
  8 10  1  0
  2 11  1  0
 11 12  1  0
 11 13  1  0
  1 14  1  0
  1 15  1  0
  1 16  1  0
  2 17  1  6
  3 18  1  0
  3 19  1  0
  4 20  1  0
  4 21  1  0
  9 22  1  0
  9 23  1  0
  9 24  1  0
 10 25  1  0
 10 26  1  0
 10 27  1  0
 11 28  1  0
 12 29  1  0
 12 30  1  0
 12 31  1  0
 13 32  1  0
 13 33  1  0
 13 34  1  0
M  CHG  1  11   1
M  END
>  <meeko>  (7) 
{"is_sidechain": [false], "free_energy": -4.81, "intermolecular_energy": -6.554, "internal_energy": -0.114}

$$$$
3zdg_ligand
     RDKit          3D

 34 33  0  0  0  0  0  0  0  0999 V2000
  -99.0460   39.0510   26.8260 C   0  0  0  0  0  0  0  0  0  0  0  0
  -99.9820   37.8420   26.9140 C   0  0  2  0  0  0  0  0  0  0  0  0
 -101.3050   38.1930   27.6300 C   0  0  0  0  0  0  0  0  0  0  0  0
 -102.5790   38.3830   26.8050 C   0  0  0  0  0  0  0  0  0  0  0  0
 -102.4630   39.3950   25.7980 O   0  0  0  0  0  0  0  0  0  0  0  0
 -103.5490   39.5770   24.9980 C   0  0  0  0  0  0  0  0  0  0  0  0
 -104.6950   39.5550   25.4450 O   0  0  0  0  0  0  0  0  0  0  0  0
 -103.2200   39.8460   23.6870 N   0  0  0  0  0  0  0  0  0  0  0  0
 -104.2750   39.9210   22.6910 C   0  0  0  0  0  0  0  0  0  0  0  0
 -101.8610   39.7280   23.1790 C   0  0  0  0  0  0  0  0  0  0  0  0
  -99.2820   36.6300   27.5220 N   0  0  0  0  0  0  0  0  0  0  0  0
 -100.1980   35.6990   28.2770 C   0  0  0  0  0  0  0  0  0  0  0  0
  -98.1020   36.9850   28.3880 C   0  0  0  0  0  0  0  0  0  0  0  0
  -98.7854   39.3876   27.8403 H   0  0  0  0  0  0  0  0  0  0  0  0
  -98.1300   38.7671   26.2872 H   0  0  0  0  0  0  0  0  0  0  0  0
  -99.5503   39.8667   26.2872 H   0  0  0  0  0  0  0  0  0  0  0  0
 -100.2545   37.5580   25.8868 H   0  0  0  0  0  0  0  0  0  0  0  0
 -101.5056   37.3833   28.3471 H   0  0  0  0  0  0  0  0  0  0  0  0
 -101.1158   39.1927   28.0482 H   0  0  0  0  0  0  0  0  0  0  0  0
 -102.8208   37.4291   26.3135 H   0  0  0  0  0  0  0  0  0  0  0  0
 -103.3683   38.7070   27.4993 H   0  0  0  0  0  0  0  0  0  0  0  0
 -105.2505   39.9903   23.1946 H   0  0  0  0  0  0  0  0  0  0  0  0
 -104.1230   40.8106   22.0621 H   0  0  0  0  0  0  0  0  0  0  0  0
 -104.2504   39.0188   22.0621 H   0  0  0  0  0  0  0  0  0  0  0  0
 -101.1581   39.6670   24.0229 H   0  0  0  0  0  0  0  0  0  0  0  0
 -101.7767   38.8192   22.5651 H   0  0  0  0  0  0  0  0  0  0  0  0
 -101.6213   40.6087   22.5651 H   0  0  0  0  0  0  0  0  0  0  0  0
  -98.9160   36.0500   26.7360 H   0  0  0  0  0  0  0  0  0  0  0  0
 -100.0566   35.8427   29.3584 H   0  0  0  0  0  0  0  0  0  0  0  0
 -101.2429   35.9176   28.0116 H   0  0  0  0  0  0  0  0  0  0  0  0
  -99.9624   34.6578   28.0116 H   0  0  0  0  0  0  0  0  0  0  0  0
  -98.3858   36.8996   29.4473 H   0  0  0  0  0  0  0  0  0  0  0  0
  -97.2705   36.2973   28.1746 H   0  0  0  0  0  0  0  0  0  0  0  0
  -97.7880   38.0174   28.1746 H   0  0  0  0  0  0  0  0  0  0  0  0
  1  2  1  0
  2  3  1  0
  3  4  1  0
  4  5  1  0
  5  6  1  0
  6  7  2  0
  6  8  1  0
  8  9  1  0
  8 10  1  0
  2 11  1  0
 11 12  1  0
 11 13  1  0
  1 14  1  0
  1 15  1  0
  1 16  1  0
  2 17  1  6
  3 18  1  0
  3 19  1  0
  4 20  1  0
  4 21  1  0
  9 22  1  0
  9 23  1  0
  9 24  1  0
 10 25  1  0
 10 26  1  0
 10 27  1  0
 11 28  1  0
 12 29  1  0
 12 30  1  0
 12 31  1  0
 13 32  1  0
 13 33  1  0
 13 34  1  0
M  CHG  1  11   1
M  END
>  <meeko>  (8) 
{"is_sidechain": [false], "free_energy": -4.661, "intermolecular_energy": -6.234, "internal_energy": -0.242}

$$$$
3zdg_ligand
     RDKit          3D

 34 33  0  0  0  0  0  0  0  0999 V2000
 -100.8050   37.3810   27.8020 C   0  0  0  0  0  0  0  0  0  0  0  0
  -99.8420   38.4990   27.3910 C   0  0  2  0  0  0  0  0  0  0  0  0
  -99.7040   38.6010   25.8550 C   0  0  0  0  0  0  0  0  0  0  0  0
 -100.6610   39.5020   25.0730 C   0  0  0  0  0  0  0  0  0  0  0  0
 -101.5610   38.7810   24.2240 O   0  0  0  0  0  0  0  0  0  0  0  0
 -102.1170   39.4840   23.1980 C   0  0  0  0  0  0  0  0  0  0  0  0
 -101.4740   39.7790   22.1920 O   0  0  0  0  0  0  0  0  0  0  0  0
 -103.4540   39.7570   23.3880 N   0  0  0  0  0  0  0  0  0  0  0  0
 -104.1420   40.6220   22.4460 C   0  0  0  0  0  0  0  0  0  0  0  0
 -104.1340   39.5080   24.6510 C   0  0  0  0  0  0  0  0  0  0  0  0
  -98.4970   38.3740   28.1000 N   0  0  0  0  0  0  0  0  0  0  0  0
  -98.1710   36.9780   28.5690 C   0  0  0  0  0  0  0  0  0  0  0  0
  -98.3220   39.3410   29.2410 C   0  0  0  0  0  0  0  0  0  0  0  0
 -100.8539   37.3242   28.8994 H   0  0  0  0  0  0  0  0  0  0  0  0
 -101.8068   37.5941   27.4009 H   0  0  0  0  0  0  0  0  0  0  0  0
 -100.4458   36.4218   27.4009 H   0  0  0  0  0  0  0  0  0  0  0  0
 -100.2792   39.4518   27.7241 H   0  0  0  0  0  0  0  0  0  0  0  0
  -98.6850   38.9599   25.6480 H   0  0  0  0  0  0  0  0  0  0  0  0
  -99.9557   37.5892   25.5044 H   0  0  0  0  0  0  0  0  0  0  0  0
 -101.2539   40.0867   25.7918 H   0  0  0  0  0  0  0  0  0  0  0  0
 -100.0448   40.1402   24.4226 H   0  0  0  0  0  0  0  0  0  0  0  0
 -104.7345   41.3669   22.9975 H   0  0  0  0  0  0  0  0  0  0  0  0
 -103.4034   41.1362   21.8135 H   0  0  0  0  0  0  0  0  0  0  0  0
 -104.8092   40.0181   21.8135 H   0  0  0  0  0  0  0  0  0  0  0  0
 -103.4604   39.7546   25.4849 H   0  0  0  0  0  0  0  0  0  0  0  0
 -105.0365   40.1340   24.7112 H   0  0  0  0  0  0  0  0  0  0  0  0
 -104.4189   38.4472   24.7112 H   0  0  0  0  0  0  0  0  0  0  0  0
  -97.7520   38.5920   27.4030 H   0  0  0  0  0  0  0  0  0  0  0  0
  -98.1651   36.9527   29.6687 H   0  0  0  0  0  0  0  0  0  0  0  0
  -98.9297   36.2774   28.1902 H   0  0  0  0  0  0  0  0  0  0  0  0
  -97.1805   36.6859   28.1902 H   0  0  0  0  0  0  0  0  0  0  0  0
  -98.4193   38.8032   30.1956 H   0  0  0  0  0  0  0  0  0  0  0  0
  -97.3256   39.8031   29.1804 H   0  0  0  0  0  0  0  0  0  0  0  0
  -99.0932   40.1230   29.1804 H   0  0  0  0  0  0  0  0  0  0  0  0
  1  2  1  0
  2  3  1  0
  3  4  1  0
  4  5  1  0
  5  6  1  0
  6  7  2  0
  6  8  1  0
  8  9  1  0
  8 10  1  0
  2 11  1  0
 11 12  1  0
 11 13  1  0
  1 14  1  0
  1 15  1  0
  1 16  1  0
  2 17  1  1
  3 18  1  0
  3 19  1  0
  4 20  1  0
  4 21  1  0
  9 22  1  0
  9 23  1  0
  9 24  1  0
 10 25  1  0
 10 26  1  0
 10 27  1  0
 11 28  1  0
 12 29  1  0
 12 30  1  0
 12 31  1  0
 13 32  1  0
 13 33  1  0
 13 34  1  0
M  CHG  1  11   1
M  END
>  <meeko>  (9) 
{"is_sidechain": [false], "free_energy": -4.422, "intermolecular_energy": -6.06, "internal_energy": -0.106}

$$$$
