1qf1_ligand
     RDKit          3D

 53 53  0  0  0  0  0  0  0  0999 V2000
   33.1710   44.5080  -11.3260 C   0  0  0  0  0  0  0  0  0  0  0  0
   33.4140   43.5260  -10.1890 C   0  0  0  0  0  0  0  0  0  0  0  0
   33.0900   42.0740  -10.5510 C   0  0  0  0  0  0  0  0  0  0  0  0
   33.4960   41.0750   -9.4630 C   0  0  0  0  0  0  0  0  0  0  0  0
   33.8620   41.7420   -8.1300 C   0  0  0  0  0  0  0  0  0  0  0  0
   34.7460   40.9240   -7.1790 C   0  0  2  0  0  0  0  0  0  0  0  0
   33.9420   39.3790   -6.6160 S   0  0  0  0  0  0  0  0  0  0  0  0
   35.1020   41.7910   -5.9640 C   0  0  0  0  0  0  0  0  0  0  0  0
   34.8570   42.9940   -5.9070 O   0  0  0  0  0  0  0  0  0  0  0  0
   35.7510   41.0950   -4.9640 N   0  0  0  0  0  0  0  0  0  0  0  0
   36.4510   41.8000   -3.8810 C   0  0  1  0  0  0  0  0  0  0  0  0
   35.5660   41.9400   -2.6340 C   0  0  0  0  0  0  0  0  0  0  0  0
   36.3100   42.5070   -1.4460 C   0  0  0  0  0  0  0  0  0  0  0  0
   36.8030   43.8180   -1.4690 C   0  0  0  0  0  0  0  0  0  0  0  0
   37.5060   44.3280   -0.3750 C   0  0  0  0  0  0  0  0  0  0  0  0
   37.7230   43.5320    0.7490 C   0  0  0  0  0  0  0  0  0  0  0  0
   37.2390   42.2260    0.7780 C   0  0  0  0  0  0  0  0  0  0  0  0
   36.5380   41.7130   -0.3140 C   0  0  0  0  0  0  0  0  0  0  0  0
   37.6760   40.9320   -3.5340 C   0  0  0  0  0  0  0  0  0  0  0  0
   38.7910   41.4300   -3.3670 O   0  0  0  0  0  0  0  0  0  0  0  0
   37.4180   39.5910   -3.4760 N   0  0  0  0  0  0  0  0  0  0  0  0
   38.4490   38.5380   -3.3990 C   0  0  1  0  0  0  0  0  0  0  0  0
   38.0880   37.5090   -2.3390 C   0  0  0  0  0  0  0  0  0  0  0  0
   38.6220   37.8320   -4.7860 C   0  0  0  0  0  0  0  0  0  0  0  0
   39.8190   37.4680   -5.0210 O   0  0  0  0  0  0  0  0  0  0  0  0
   37.5810   37.6940   -5.4840 O   0  0  0  0  0  0  0  0  0  0  0  0
   32.9263   45.4967  -10.9106 H   0  0  0  0  0  0  0  0  0  0  0  0
   34.0774   44.5843  -11.9446 H   0  0  0  0  0  0  0  0  0  0  0  0
   32.3337   44.1528  -11.9446 H   0  0  0  0  0  0  0  0  0  0  0  0
   34.4739   43.5839   -9.9005 H   0  0  0  0  0  0  0  0  0  0  0  0
   32.7398   43.8111   -9.3679 H   0  0  0  0  0  0  0  0  0  0  0  0
   32.0059   41.9887  -10.7168 H   0  0  0  0  0  0  0  0  0  0  0  0
   33.6673   41.8260  -11.4539 H   0  0  0  0  0  0  0  0  0  0  0  0
   32.6552   40.3872   -9.2896 H   0  0  0  0  0  0  0  0  0  0  0  0
   34.3942   40.5509   -9.8217 H   0  0  0  0  0  0  0  0  0  0  0  0
   34.3927   42.6781   -8.3585 H   0  0  0  0  0  0  0  0  0  0  0  0
   32.9082   41.8777   -7.5990 H   0  0  0  0  0  0  0  0  0  0  0  0
   35.6502   40.6308   -7.7327 H   0  0  0  0  0  0  0  0  0  0  0  0
   33.1530   39.2520   -7.6990 H   0  0  0  0  0  0  0  0  0  0  0  0
   36.2260   40.2430   -5.2470 H   0  0  0  0  0  0  0  0  0  0  0  0
   36.7260   42.8157   -4.2015 H   0  0  0  0  0  0  0  0  0  0  0  0
   34.7254   42.6079   -2.8732 H   0  0  0  0  0  0  0  0  0  0  0  0
   35.2220   40.9323   -2.3581 H   0  0  0  0  0  0  0  0  0  0  0  0
   36.6355   44.4496   -2.3539 H   0  0  0  0  0  0  0  0  0  0  0  0
   37.8889   45.3589   -0.4003 H   0  0  0  0  0  0  0  0  0  0  0  0
   38.2752   43.9344    1.6111 H   0  0  0  0  0  0  0  0  0  0  0  0
   37.4099   41.5974    1.6643 H   0  0  0  0  0  0  0  0  0  0  0  0
   36.1622   40.6795   -0.2861 H   0  0  0  0  0  0  0  0  0  0  0  0
   36.5400   39.2030   -3.8220 H   0  0  0  0  0  0  0  0  0  0  0  0
   39.4005   39.0151   -3.1213 H   0  0  0  0  0  0  0  0  0  0  0  0
   38.2403   37.9430   -1.3398 H   0  0  0  0  0  0  0  0  0  0  0  0
   37.0338   37.2172   -2.4553 H   0  0  0  0  0  0  0  0  0  0  0  0
   38.7288   36.6225   -2.4553 H   0  0  0  0  0  0  0  0  0  0  0  0
  1  2  1  0
  2  3  1  0
  3  4  1  0
  4  5  1  0
  5  6  1  0
  6  7  1  0
  6  8  1  0
  8  9  2  0
  8 10  1  0
 10 11  1  0
 11 12  1  0
 12 13  1  0
 13 14  2  0
 14 15  1  0
 15 16  2  0
 16 17  1  0
 17 18  2  0
 11 19  1  0
 19 20  2  0
 19 21  1  0
 21 22  1  0
 22 23  1  0
 22 24  1  0
 24 25  2  0
 24 26  1  0
 18 13  1  0
  1 27  1  0
  1 28  1  0
  1 29  1  0
  2 30  1  0
  2 31  1  0
  3 32  1  0
  3 33  1  0
  4 34  1  0
  4 35  1  0
  5 36  1  0
  5 37  1  0
  6 38  1  6
  7 39  1  0
 10 40  1  0
 11 41  1  6
 12 42  1  0
 12 43  1  0
 14 44  1  0
 15 45  1  0
 16 46  1  0
 17 47  1  0
 18 48  1  0
 21 49  1  0
 22 50  1  1
 23 51  1  0
 23 52  1  0
 23 53  1  0
M  CHG  1  26  -1
M  END
>  <meeko>  (1) 
{"is_sidechain": [false], "free_energy": -8.188, "intermolecular_energy": -13.693, "internal_energy": -0.928}

$$$$
1qf1_ligand
     RDKit          3D

 53 53  0  0  0  0  0  0  0  0999 V2000
   36.7900   36.2930   -8.4860 C   0  0  0  0  0  0  0  0  0  0  0  0
   36.5560   37.5330   -9.3350 C   0  0  0  0  0  0  0  0  0  0  0  0
   35.2350   38.2460   -9.0320 C   0  0  0  0  0  0  0  0  0  0  0  0
   34.9380   38.3560   -7.5330 C   0  0  0  0  0  0  0  0  0  0  0  0
   35.4460   39.6610   -6.9060 C   0  0  0  0  0  0  0  0  0  0  0  0
   34.3940   40.7510   -6.6530 C   0  0  2  0  0  0  0  0  0  0  0  0
   33.9290   41.6520   -8.1770 S   0  0  0  0  0  0  0  0  0  0  0  0
   34.9440   41.7400   -5.6170 C   0  0  0  0  0  0  0  0  0  0  0  0
   34.9590   42.9560   -5.7940 O   0  0  0  0  0  0  0  0  0  0  0  0
   35.4470   41.1270   -4.4870 N   0  0  0  0  0  0  0  0  0  0  0  0
   36.2970   41.8630   -3.5400 C   0  0  1  0  0  0  0  0  0  0  0  0
   35.6040   42.0410   -2.1810 C   0  0  0  0  0  0  0  0  0  0  0  0
   36.4560   42.7920   -1.1820 C   0  0  0  0  0  0  0  0  0  0  0  0
   36.8340   44.1200   -1.4170 C   0  0  0  0  0  0  0  0  0  0  0  0
   37.6370   44.7990   -0.4980 C   0  0  0  0  0  0  0  0  0  0  0  0
   38.0680   44.1570    0.6610 C   0  0  0  0  0  0  0  0  0  0  0  0
   37.7000   42.8350    0.9010 C   0  0  0  0  0  0  0  0  0  0  0  0
   36.9000   42.1540   -0.0160 C   0  0  0  0  0  0  0  0  0  0  0  0
   37.5620   41.0030   -3.3510 C   0  0  0  0  0  0  0  0  0  0  0  0
   38.6880   41.4610   -3.5550 O   0  0  0  0  0  0  0  0  0  0  0  0
   37.3140   39.7090   -2.9870 N   0  0  0  0  0  0  0  0  0  0  0  0
   38.3210   38.6310   -2.9730 C   0  0  1  0  0  0  0  0  0  0  0  0
   37.8870   37.4990   -2.0540 C   0  0  0  0  0  0  0  0  0  0  0  0
   38.5570   38.0770   -4.4190 C   0  0  0  0  0  0  0  0  0  0  0  0
   39.7810   38.0990   -4.7740 O   0  0  0  0  0  0  0  0  0  0  0  0
   37.5400   37.6690   -5.0420 O   0  0  0  0  0  0  0  0  0  0  0  0
   36.7391   36.5629   -7.4209 H   0  0  0  0  0  0  0  0  0  0  0  0
   36.0175   35.5431   -8.7116 H   0  0  0  0  0  0  0  0  0  0  0  0
   37.7827   35.8762   -8.7116 H   0  0  0  0  0  0  0  0  0  0  0  0
   37.3807   38.2382   -9.1545 H   0  0  0  0  0  0  0  0  0  0  0  0
   36.5094   37.2012  -10.3827 H   0  0  0  0  0  0  0  0  0  0  0  0
   35.2804   39.2605   -9.4547 H   0  0  0  0  0  0  0  0  0  0  0  0
   34.4296   37.6465   -9.4815 H   0  0  0  0  0  0  0  0  0  0  0  0
   33.8490   38.3002   -7.3882 H   0  0  0  0  0  0  0  0  0  0  0  0
   35.4661   37.5292   -7.0355 H   0  0  0  0  0  0  0  0  0  0  0  0
   35.9077   39.4106   -5.9395 H   0  0  0  0  0  0  0  0  0  0  0  0
   36.1396   40.0897   -7.6443 H   0  0  0  0  0  0  0  0  0  0  0  0
   33.4834   40.2583   -6.2815 H   0  0  0  0  0  0  0  0  0  0  0  0
   34.7610   40.9680   -8.9820 H   0  0  0  0  0  0  0  0  0  0  0  0
   35.7280   40.1560   -4.5920 H   0  0  0  0  0  0  0  0  0  0  0  0
   36.5195   42.8682   -3.9273 H   0  0  0  0  0  0  0  0  0  0  0  0
   34.6682   42.5986   -2.3341 H   0  0  0  0  0  0  0  0  0  0  0  0
   35.4188   41.0376   -1.7699 H   0  0  0  0  0  0  0  0  0  0  0  0
   36.4964   44.6311   -2.3307 H   0  0  0  0  0  0  0  0  0  0  0  0
   37.9296   45.8420   -0.6894 H   0  0  0  0  0  0  0  0  0  0  0  0
   38.6981   44.6934    1.3857 H   0  0  0  0  0  0  0  0  0  0  0  0
   38.0410   42.3275    1.8154 H   0  0  0  0  0  0  0  0  0  0  0  0
   36.6156   41.1091    0.1772 H   0  0  0  0  0  0  0  0  0  0  0  0
   36.3730   39.3140   -3.0310 H   0  0  0  0  0  0  0  0  0  0  0  0
   39.2631   39.0541   -2.5943 H   0  0  0  0  0  0  0  0  0  0  0  0
   38.0067   37.8111   -1.0060 H   0  0  0  0  0  0  0  0  0  0  0  0
   36.8316   37.2552   -2.2457 H   0  0  0  0  0  0  0  0  0  0  0  0
   38.5089   36.6122   -2.2457 H   0  0  0  0  0  0  0  0  0  0  0  0
  1  2  1  0
  2  3  1  0
  3  4  1  0
  4  5  1  0
  5  6  1  0
  6  7  1  0
  6  8  1  0
  8  9  2  0
  8 10  1  0
 10 11  1  0
 11 12  1  0
 12 13  1  0
 13 14  2  0
 14 15  1  0
 15 16  2  0
 16 17  1  0
 17 18  2  0
 11 19  1  0
 19 20  2  0
 19 21  1  0
 21 22  1  0
 22 23  1  0
 22 24  1  0
 24 25  2  0
 24 26  1  0
 18 13  1  0
  1 27  1  0
  1 28  1  0
  1 29  1  0
  2 30  1  0
  2 31  1  0
  3 32  1  0
  3 33  1  0
  4 34  1  0
  4 35  1  0
  5 36  1  0
  5 37  1  0
  6 38  1  1
  7 39  1  0
 10 40  1  0
 11 41  1  6
 12 42  1  0
 12 43  1  0
 14 44  1  0
 15 45  1  0
 16 46  1  0
 17 47  1  0
 18 48  1  0
 21 49  1  0
 22 50  1  1
 23 51  1  0
 23 52  1  0
 23 53  1  0
M  CHG  1  26  -1
M  END
>  <meeko>  (2) 
{"is_sidechain": [false], "free_energy": -7.584, "intermolecular_energy": -12.307, "internal_energy": -1.303}

$$$$
1qf1_ligand
     RDKit          3D

 53 53  0  0  0  0  0  0  0  0999 V2000
   37.1010   42.2630    1.9520 C   0  0  0  0  0  0  0  0  0  0  0  0
   38.3980   42.6490    1.2570 C   0  0  0  0  0  0  0  0  0  0  0  0
   38.3010   43.9460    0.4480 C   0  0  0  0  0  0  0  0  0  0  0  0
   36.9680   44.0970   -0.2910 C   0  0  0  0  0  0  0  0  0  0  0  0
   37.0940   43.9300   -1.8120 C   0  0  0  0  0  0  0  0  0  0  0  0
   36.4020   42.7030   -2.4220 C   0  0  2  0  0  0  0  0  0  0  0  0
   35.2130   41.9160   -1.2750 S   0  0  0  0  0  0  0  0  0  0  0  0
   37.4730   41.6840   -2.8340 C   0  0  0  0  0  0  0  0  0  0  0  0
   38.6710   41.9540   -2.8780 O   0  0  0  0  0  0  0  0  0  0  0  0
   36.9540   40.4520   -3.1790 N   0  0  0  0  0  0  0  0  0  0  0  0
   37.7680   39.4610   -3.8990 C   0  0  1  0  0  0  0  0  0  0  0  0
   38.0220   38.2120   -3.0430 C   0  0  0  0  0  0  0  0  0  0  0  0
   39.4870   37.8440   -2.9630 C   0  0  0  0  0  0  0  0  0  0  0  0
   39.9070   36.7290   -2.2280 C   0  0  0  0  0  0  0  0  0  0  0  0
   41.2640   36.4080   -2.1430 C   0  0  0  0  0  0  0  0  0  0  0  0
   42.2100   37.1990   -2.7930 C   0  0  0  0  0  0  0  0  0  0  0  0
   41.8020   38.3130   -3.5230 C   0  0  0  0  0  0  0  0  0  0  0  0
   40.4470   38.6360   -3.6070 C   0  0  0  0  0  0  0  0  0  0  0  0
   36.9470   39.0620   -5.1400 C   0  0  0  0  0  0  0  0  0  0  0  0
   37.1810   38.0220   -5.7590 O   0  0  0  0  0  0  0  0  0  0  0  0
   35.9910   39.9700   -5.5000 N   0  0  0  0  0  0  0  0  0  0  0  0
   35.2390   39.9440   -6.7690 C   0  0  1  0  0  0  0  0  0  0  0  0
   33.9100   39.2270   -6.5930 C   0  0  0  0  0  0  0  0  0  0  0  0
   34.9910   41.3980   -7.2940 C   0  0  0  0  0  0  0  0  0  0  0  0
   34.6010   41.4370   -8.5060 O   0  0  0  0  0  0  0  0  0  0  0  0
   35.1840   42.3360   -6.4750 O   0  0  0  0  0  0  0  0  0  0  0  0
   37.2425   42.3051    3.0420 H   0  0  0  0  0  0  0  0  0  0  0  0
   36.3051   42.9632    1.6582 H   0  0  0  0  0  0  0  0  0  0  0  0
   36.8175   41.2416    1.6582 H   0  0  0  0  0  0  0  0  0  0  0  0
   39.1780   42.7747    2.0224 H   0  0  0  0  0  0  0  0  0  0  0  0
   38.6335   41.8435    0.5458 H   0  0  0  0  0  0  0  0  0  0  0  0
   38.4181   44.7966    1.1355 H   0  0  0  0  0  0  0  0  0  0  0  0
   39.0953   43.9175   -0.3124 H   0  0  0  0  0  0  0  0  0  0  0  0
   36.2709   43.3348    0.0873 H   0  0  0  0  0  0  0  0  0  0  0  0
   36.6063   45.1189   -0.1045 H   0  0  0  0  0  0  0  0  0  0  0  0
   36.6646   44.8260   -2.2841 H   0  0  0  0  0  0  0  0  0  0  0  0
   38.1677   43.7858   -2.0029 H   0  0  0  0  0  0  0  0  0  0  0  0
   35.8257   43.0435   -3.2949 H   0  0  0  0  0  0  0  0  0  0  0  0
   34.9720   43.0330   -0.5650 H   0  0  0  0  0  0  0  0  0  0  0  0
   35.9800   40.4410   -3.4660 H   0  0  0  0  0  0  0  0  0  0  0  0
   38.7494   39.8859   -4.1564 H   0  0  0  0  0  0  0  0  0  0  0  0
   37.6514   38.4024   -2.0250 H   0  0  0  0  0  0  0  0  0  0  0  0
   37.4950   37.3718   -3.5187 H   0  0  0  0  0  0  0  0  0  0  0  0
   39.1638   36.1016   -1.7141 H   0  0  0  0  0  0  0  0  0  0  0  0
   41.5861   35.5307   -1.5629 H   0  0  0  0  0  0  0  0  0  0  0  0
   43.2781   36.9436   -2.7295 H   0  0  0  0  0  0  0  0  0  0  0  0
   42.5487   38.9388   -4.0338 H   0  0  0  0  0  0  0  0  0  0  0  0
   40.1304   39.5183   -4.1826 H   0  0  0  0  0  0  0  0  0  0  0  0
   35.9660   40.9070   -5.0930 H   0  0  0  0  0  0  0  0  0  0  0  0
   35.8422   39.3963   -7.5081 H   0  0  0  0  0  0  0  0  0  0  0  0
   33.6951   39.1111   -5.5204 H   0  0  0  0  0  0  0  0  0  0  0  0
   33.1102   39.8160   -7.0656 H   0  0  0  0  0  0  0  0  0  0  0  0
   33.9631   38.2351   -7.0656 H   0  0  0  0  0  0  0  0  0  0  0  0
  1  2  1  0
  2  3  1  0
  3  4  1  0
  4  5  1  0
  5  6  1  0
  6  7  1  0
  6  8  1  0
  8  9  2  0
  8 10  1  0
 10 11  1  0
 11 12  1  0
 12 13  1  0
 13 14  2  0
 14 15  1  0
 15 16  2  0
 16 17  1  0
 17 18  2  0
 11 19  1  0
 19 20  2  0
 19 21  1  0
 21 22  1  0
 22 23  1  0
 22 24  1  0
 24 25  2  0
 24 26  1  0
 18 13  1  0
  1 27  1  0
  1 28  1  0
  1 29  1  0
  2 30  1  0
  2 31  1  0
  3 32  1  0
  3 33  1  0
  4 34  1  0
  4 35  1  0
  5 36  1  0
  5 37  1  0
  6 38  1  6
  7 39  1  0
 10 40  1  0
 11 41  1  6
 12 42  1  0
 12 43  1  0
 14 44  1  0
 15 45  1  0
 16 46  1  0
 17 47  1  0
 18 48  1  0
 21 49  1  0
 22 50  1  6
 23 51  1  0
 23 52  1  0
 23 53  1  0
M  CHG  1  26  -1
M  END
>  <meeko>  (3) 
{"is_sidechain": [false], "free_energy": -7.213, "intermolecular_energy": -11.731, "internal_energy": -1.259}

$$$$
1qf1_ligand
     RDKit          3D

 53 53  0  0  0  0  0  0  0  0999 V2000
   45.0000   38.5150   -2.2120 C   0  0  0  0  0  0  0  0  0  0  0  0
   43.7630   39.0790   -2.8950 C   0  0  0  0  0  0  0  0  0  0  0  0
   42.8190   38.0040   -3.4420 C   0  0  0  0  0  0  0  0  0  0  0  0
   41.3630   38.2020   -3.0080 C   0  0  0  0  0  0  0  0  0  0  0  0
   40.3930   38.3590   -4.1870 C   0  0  0  0  0  0  0  0  0  0  0  0
   38.9530   37.8800   -3.9540 C   0  0  2  0  0  0  0  0  0  0  0  0
   38.0580   37.5420   -5.5140 S   0  0  0  0  0  0  0  0  0  0  0  0
   38.2000   38.9480   -3.1480 C   0  0  0  0  0  0  0  0  0  0  0  0
   37.8920   38.8010   -1.9680 O   0  0  0  0  0  0  0  0  0  0  0  0
   37.8770   40.0670   -3.8880 N   0  0  0  0  0  0  0  0  0  0  0  0
   36.8920   41.0420   -3.3990 C   0  0  1  0  0  0  0  0  0  0  0  0
   37.5710   42.3160   -2.8760 C   0  0  0  0  0  0  0  0  0  0  0  0
   37.5390   42.4210   -1.3680 C   0  0  0  0  0  0  0  0  0  0  0  0
   38.3300   43.3620   -0.6970 C   0  0  0  0  0  0  0  0  0  0  0  0
   38.3090   43.4390    0.6970 C   0  0  0  0  0  0  0  0  0  0  0  0
   37.4970   42.5760    1.4320 C   0  0  0  0  0  0  0  0  0  0  0  0
   36.7100   41.6340    0.7740 C   0  0  0  0  0  0  0  0  0  0  0  0
   36.7310   41.5540   -0.6190 C   0  0  0  0  0  0  0  0  0  0  0  0
   36.0150   41.4020   -4.6130 C   0  0  0  0  0  0  0  0  0  0  0  0
   35.5330   42.5280   -4.7470 O   0  0  0  0  0  0  0  0  0  0  0  0
   35.7960   40.3660   -5.4780 N   0  0  0  0  0  0  0  0  0  0  0  0
   34.8110   40.3800   -6.5760 C   0  0  1  0  0  0  0  0  0  0  0  0
   34.8560   41.7040   -7.3230 C   0  0  0  0  0  0  0  0  0  0  0  0
   35.0780   39.2020   -7.5720 C   0  0  0  0  0  0  0  0  0  0  0  0
   34.8560   38.0540   -7.0670 O   0  0  0  0  0  0  0  0  0  0  0  0
   35.4560   39.5160   -8.7330 O   0  0  0  0  0  0  0  0  0  0  0  0
   44.8745   38.5722   -1.1207 H   0  0  0  0  0  0  0  0  0  0  0  0
   45.1373   37.4653   -2.5108 H   0  0  0  0  0  0  0  0  0  0  0  0
   45.8825   39.0997   -2.5108 H   0  0  0  0  0  0  0  0  0  0  0  0
   43.2101   39.6880   -2.1647 H   0  0  0  0  0  0  0  0  0  0  0  0
   44.1112   39.6696   -3.7552 H   0  0  0  0  0  0  0  0  0  0  0  0
   42.8625   38.0268   -4.5409 H   0  0  0  0  0  0  0  0  0  0  0  0
   43.1529   37.0380   -3.0353 H   0  0  0  0  0  0  0  0  0  0  0  0
   41.0536   37.3284   -2.4155 H   0  0  0  0  0  0  0  0  0  0  0  0
   41.3210   39.1343   -2.4257 H   0  0  0  0  0  0  0  0  0  0  0  0
   40.3526   39.4270   -4.4473 H   0  0  0  0  0  0  0  0  0  0  0  0
   40.7916   37.7115   -4.9819 H   0  0  0  0  0  0  0  0  0  0  0  0
   39.0010   36.9304   -3.4009 H   0  0  0  0  0  0  0  0  0  0  0  0
   37.4800   38.7550   -5.5880 H   0  0  0  0  0  0  0  0  0  0  0  0
   37.8360   39.9410   -4.8950 H   0  0  0  0  0  0  0  0  0  0  0  0
   36.3128   40.6154   -2.5668 H   0  0  0  0  0  0  0  0  0  0  0  0
   38.6203   42.3156   -3.2060 H   0  0  0  0  0  0  0  0  0  0  0  0
   37.0163   43.1760   -3.2794 H   0  0  0  0  0  0  0  0  0  0  0  0
   38.9723   44.0452   -1.2722 H   0  0  0  0  0  0  0  0  0  0  0  0
   38.9336   44.1811    1.2158 H   0  0  0  0  0  0  0  0  0  0  0  0
   37.4781   42.6391    2.5300 H   0  0  0  0  0  0  0  0  0  0  0  0
   36.0706   40.9518    1.3535 H   0  0  0  0  0  0  0  0  0  0  0  0
   36.1095   40.8058   -1.1328 H   0  0  0  0  0  0  0  0  0  0  0  0
   36.0350   39.4050   -5.2280 H   0  0  0  0  0  0  0  0  0  0  0  0
   33.8112   40.2549   -6.1347 H   0  0  0  0  0  0  0  0  0  0  0  0
   34.8841   42.5323   -6.5997 H   0  0  0  0  0  0  0  0  0  0  0  0
   35.7558   41.7382   -7.9548 H   0  0  0  0  0  0  0  0  0  0  0  0
   33.9606   41.7992   -7.9548 H   0  0  0  0  0  0  0  0  0  0  0  0
  1  2  1  0
  2  3  1  0
  3  4  1  0
  4  5  1  0
  5  6  1  0
  6  7  1  0
  6  8  1  0
  8  9  2  0
  8 10  1  0
 10 11  1  0
 11 12  1  0
 12 13  1  0
 13 14  2  0
 14 15  1  0
 15 16  2  0
 16 17  1  0
 17 18  2  0
 11 19  1  0
 19 20  2  0
 19 21  1  0
 21 22  1  0
 22 23  1  0
 22 24  1  0
 24 25  2  0
 24 26  1  0
 18 13  1  0
  1 27  1  0
  1 28  1  0
  1 29  1  0
  2 30  1  0
  2 31  1  0
  3 32  1  0
  3 33  1  0
  4 34  1  0
  4 35  1  0
  5 36  1  0
  5 37  1  0
  6 38  1  1
  7 39  1  0
 10 40  1  0
 11 41  1  1
 12 42  1  0
 12 43  1  0
 14 44  1  0
 15 45  1  0
 16 46  1  0
 17 47  1  0
 18 48  1  0
 21 49  1  0
 22 50  1  1
 23 51  1  0
 23 52  1  0
 23 53  1  0
M  CHG  1  26  -1
M  END
>  <meeko>  (4) 
{"is_sidechain": [false], "free_energy": -6.846, "intermolecular_energy": -11.858, "internal_energy": -0.518}

$$$$
1qf1_ligand
     RDKit          3D

 53 53  0  0  0  0  0  0  0  0999 V2000
   28.6170   35.3310   -7.4440 C   0  0  0  0  0  0  0  0  0  0  0  0
   29.3460   36.3510   -8.3060 C   0  0  0  0  0  0  0  0  0  0  0  0
   30.7210   36.7460   -7.7620 C   0  0  0  0  0  0  0  0  0  0  0  0
   31.3590   37.9130   -8.5200 C   0  0  0  0  0  0  0  0  0  0  0  0
   30.6800   38.2110   -9.8630 C   0  0  0  0  0  0  0  0  0  0  0  0
   30.1620   39.6420  -10.0640 C   0  0  2  0  0  0  0  0  0  0  0  0
   28.6740   39.7150  -11.1260 S   0  0  0  0  0  0  0  0  0  0  0  0
   31.2800   40.4910  -10.6840 C   0  0  0  0  0  0  0  0  0  0  0  0
   31.7400   40.2770  -11.8030 O   0  0  0  0  0  0  0  0  0  0  0  0
   31.7360   41.4920   -9.8500 N   0  0  0  0  0  0  0  0  0  0  0  0
   32.9990   42.1920  -10.1250 C   0  0  1  0  0  0  0  0  0  0  0  0
   32.7960   43.7130  -10.2020 C   0  0  0  0  0  0  0  0  0  0  0  0
   32.8030   44.2350  -11.6210 C   0  0  0  0  0  0  0  0  0  0  0  0
   32.8400   45.6100  -11.8790 C   0  0  0  0  0  0  0  0  0  0  0  0
   32.8270   46.0840  -13.1920 C   0  0  0  0  0  0  0  0  0  0  0  0
   32.7770   45.1870  -14.2580 C   0  0  0  0  0  0  0  0  0  0  0  0
   32.7360   43.8170  -14.0110 C   0  0  0  0  0  0  0  0  0  0  0  0
   32.7470   43.3410  -12.6990 C   0  0  0  0  0  0  0  0  0  0  0  0
   33.9290   41.8680   -8.9400 C   0  0  0  0  0  0  0  0  0  0  0  0
   34.5780   42.7480   -8.3720 O   0  0  0  0  0  0  0  0  0  0  0  0
   33.9920   40.5400   -8.6200 N   0  0  0  0  0  0  0  0  0  0  0  0
   34.9740   39.9440   -7.6950 C   0  0  1  0  0  0  0  0  0  0  0  0
   34.4590   39.9800   -6.2650 C   0  0  0  0  0  0  0  0  0  0  0  0
   35.2930   38.4660   -8.1050 C   0  0  0  0  0  0  0  0  0  0  0  0
   35.8130   38.3650   -9.2640 O   0  0  0  0  0  0  0  0  0  0  0  0
   35.0200   37.5720   -7.2590 O   0  0  0  0  0  0  0  0  0  0  0  0
   28.7830   35.5632   -6.3817 H   0  0  0  0  0  0  0  0  0  0  0  0
   27.5398   35.3684   -7.6636 H   0  0  0  0  0  0  0  0  0  0  0  0
   29.0012   34.3239   -7.6636 H   0  0  0  0  0  0  0  0  0  0  0  0
   29.4797   35.9241   -9.3109 H   0  0  0  0  0  0  0  0  0  0  0  0
   28.7302   37.2624   -8.3156 H   0  0  0  0  0  0  0  0  0  0  0  0
   30.6092   37.0346   -6.7064 H   0  0  0  0  0  0  0  0  0  0  0  0
   31.3828   35.8761   -7.8857 H   0  0  0  0  0  0  0  0  0  0  0  0
   31.2971   38.8130   -7.8907 H   0  0  0  0  0  0  0  0  0  0  0  0
   32.3991   37.6289   -8.7379 H   0  0  0  0  0  0  0  0  0  0  0  0
   31.4096   38.0043  -10.6599 H   0  0  0  0  0  0  0  0  0  0  0  0
   29.7857   37.5709   -9.8864 H   0  0  0  0  0  0  0  0  0  0  0  0
   29.8702   40.0336   -9.0783 H   0  0  0  0  0  0  0  0  0  0  0  0
   27.8410   40.1000  -10.1420 H   0  0  0  0  0  0  0  0  0  0  0  0
   31.5730   41.3560   -8.8570 H   0  0  0  0  0  0  0  0  0  0  0  0
   33.4126   41.8683  -11.0915 H   0  0  0  0  0  0  0  0  0  0  0  0
   31.8289   43.9621   -9.7409 H   0  0  0  0  0  0  0  0  0  0  0  0
   33.6355   44.1860   -9.6715 H   0  0  0  0  0  0  0  0  0  0  0  0
   32.8796   46.3221  -11.0415 H   0  0  0  0  0  0  0  0  0  0  0  0
   32.8562   47.1664  -13.3857 H   0  0  0  0  0  0  0  0  0  0  0  0
   32.7699   45.5607  -15.2926 H   0  0  0  0  0  0  0  0  0  0  0  0
   32.6949   43.1087  -14.8516 H   0  0  0  0  0  0  0  0  0  0  0  0
   32.7115   42.2580  -12.5099 H   0  0  0  0  0  0  0  0  0  0  0  0
   33.6070   39.8250   -9.2390 H   0  0  0  0  0  0  0  0  0  0  0  0
   35.8975   40.5386   -7.7546 H   0  0  0  0  0  0  0  0  0  0  0  0
   35.3079   39.9207   -5.5680 H   0  0  0  0  0  0  0  0  0  0  0  0
   33.9109   40.9187   -6.0962 H   0  0  0  0  0  0  0  0  0  0  0  0
   33.7856   39.1267   -6.0962 H   0  0  0  0  0  0  0  0  0  0  0  0
  1  2  1  0
  2  3  1  0
  3  4  1  0
  4  5  1  0
  5  6  1  0
  6  7  1  0
  6  8  1  0
  8  9  2  0
  8 10  1  0
 10 11  1  0
 11 12  1  0
 12 13  1  0
 13 14  2  0
 14 15  1  0
 15 16  2  0
 16 17  1  0
 17 18  2  0
 11 19  1  0
 19 20  2  0
 19 21  1  0
 21 22  1  0
 22 23  1  0
 22 24  1  0
 24 25  2  0
 24 26  1  0
 18 13  1  0
  1 27  1  0
  1 28  1  0
  1 29  1  0
  2 30  1  0
  2 31  1  0
  3 32  1  0
  3 33  1  0
  4 34  1  0
  4 35  1  0
  5 36  1  0
  5 37  1  0
  6 38  1  1
  7 39  1  0
 10 40  1  0
 11 41  1  6
 12 42  1  0
 12 43  1  0
 14 44  1  0
 15 45  1  0
 16 46  1  0
 17 47  1  0
 18 48  1  0
 21 49  1  0
 22 50  1  1
 23 51  1  0
 23 52  1  0
 23 53  1  0
M  CHG  1  26  -1
M  END
>  <meeko>  (5) 
{"is_sidechain": [false], "free_energy": -6.831, "intermolecular_energy": -11.209, "internal_energy": -1.142}

$$$$
1qf1_ligand
     RDKit          3D

 53 53  0  0  0  0  0  0  0  0999 V2000
   33.1840   45.0970  -14.5510 C   0  0  0  0  0  0  0  0  0  0  0  0
   32.4510   45.4490  -13.2650 C   0  0  0  0  0  0  0  0  0  0  0  0
   33.2760   45.2040  -11.9990 C   0  0  0  0  0  0  0  0  0  0  0  0
   32.4560   44.6170  -10.8470 C   0  0  0  0  0  0  0  0  0  0  0  0
   33.2620   43.6680   -9.9480 C   0  0  0  0  0  0  0  0  0  0  0  0
   33.4730   42.2430  -10.4780 C   0  0  2  0  0  0  0  0  0  0  0  0
   32.3060   41.8050  -11.8180 S   0  0  0  0  0  0  0  0  0  0  0  0
   33.3180   41.2540   -9.3150 C   0  0  0  0  0  0  0  0  0  0  0  0
   32.3690   40.4780   -9.2200 O   0  0  0  0  0  0  0  0  0  0  0  0
   34.3260   41.3460   -8.3780 N   0  0  0  0  0  0  0  0  0  0  0  0
   34.1890   40.7250   -7.0530 C   0  0  1  0  0  0  0  0  0  0  0  0
   34.9150   39.3720   -6.9850 C   0  0  0  0  0  0  0  0  0  0  0  0
   34.0300   38.2120   -7.3810 C   0  0  0  0  0  0  0  0  0  0  0  0
   32.7160   38.1170   -6.9070 C   0  0  0  0  0  0  0  0  0  0  0  0
   31.9120   37.0320   -7.2620 C   0  0  0  0  0  0  0  0  0  0  0  0
   32.4160   36.0330   -8.0930 C   0  0  0  0  0  0  0  0  0  0  0  0
   33.7230   36.1160   -8.5670 C   0  0  0  0  0  0  0  0  0  0  0  0
   34.5290   37.1990   -8.2120 C   0  0  0  0  0  0  0  0  0  0  0  0
   34.8490   41.7000   -6.0590 C   0  0  0  0  0  0  0  0  0  0  0  0
   34.7370   42.9210   -6.1850 O   0  0  0  0  0  0  0  0  0  0  0  0
   35.5830   41.0940   -5.0780 N   0  0  0  0  0  0  0  0  0  0  0  0
   36.4970   41.7950   -4.1550 C   0  0  1  0  0  0  0  0  0  0  0  0
   35.7460   42.2990   -2.9330 C   0  0  0  0  0  0  0  0  0  0  0  0
   37.6620   40.8490   -3.7080 C   0  0  0  0  0  0  0  0  0  0  0  0
   37.5170   39.6470   -4.1030 O   0  0  0  0  0  0  0  0  0  0  0  0
   38.5930   41.3750   -3.0400 O   0  0  0  0  0  0  0  0  0  0  0  0
   34.1508   44.6327  -14.3067 H   0  0  0  0  0  0  0  0  0  0  0  0
   32.5768   44.3923  -15.1380 H   0  0  0  0  0  0  0  0  0  0  0  0
   33.3544   46.0115  -15.1380 H   0  0  0  0  0  0  0  0  0  0  0  0
   32.1785   46.5141  -13.3011 H   0  0  0  0  0  0  0  0  0  0  0  0
   31.5707   44.7920  -13.2069 H   0  0  0  0  0  0  0  0  0  0  0  0
   34.0886   44.5035  -12.2417 H   0  0  0  0  0  0  0  0  0  0  0  0
   33.6570   46.1800  -11.6640 H   0  0  0  0  0  0  0  0  0  0  0  0
   32.0784   45.4456  -10.2298 H   0  0  0  0  0  0  0  0  0  0  0  0
   31.6417   44.0281  -11.2944 H   0  0  0  0  0  0  0  0  0  0  0  0
   34.2537   44.1172   -9.7908 H   0  0  0  0  0  0  0  0  0  0  0  0
   32.6640   43.5541   -9.0318 H   0  0  0  0  0  0  0  0  0  0  0  0
   34.4848   42.1916  -10.9065 H   0  0  0  0  0  0  0  0  0  0  0  0
   33.2530   41.3560  -12.6620 H   0  0  0  0  0  0  0  0  0  0  0  0
   34.8280   42.2280   -8.3460 H   0  0  0  0  0  0  0  0  0  0  0  0
   33.1288   40.5383   -6.8266 H   0  0  0  0  0  0  0  0  0  0  0  0
   35.7796   39.4025   -7.6644 H   0  0  0  0  0  0  0  0  0  0  0  0
   35.2222   39.2130   -5.9408 H   0  0  0  0  0  0  0  0  0  0  0  0
   32.3142   38.9027   -6.2503 H   0  0  0  0  0  0  0  0  0  0  0  0
   30.8805   36.9657   -6.8857 H   0  0  0  0  0  0  0  0  0  0  0  0
   31.7818   35.1794   -8.3744 H   0  0  0  0  0  0  0  0  0  0  0  0
   34.1207   35.3269   -9.2221 H   0  0  0  0  0  0  0  0  0  0  0  0
   35.5616   37.2580   -8.5864 H   0  0  0  0  0  0  0  0  0  0  0  0
   35.8220   40.1020   -5.1270 H   0  0  0  0  0  0  0  0  0  0  0  0
   36.9227   42.6568   -4.6899 H   0  0  0  0  0  0  0  0  0  0  0  0
   36.2571   41.9560   -2.0213 H   0  0  0  0  0  0  0  0  0  0  0  0
   35.7193   43.3986   -2.9468 H   0  0  0  0  0  0  0  0  0  0  0  0
   34.7183   41.9070   -2.9468 H   0  0  0  0  0  0  0  0  0  0  0  0
  1  2  1  0
  2  3  1  0
  3  4  1  0
  4  5  1  0
  5  6  1  0
  6  7  1  0
  6  8  1  0
  8  9  2  0
  8 10  1  0
 10 11  1  0
 11 12  1  0
 12 13  1  0
 13 14  2  0
 14 15  1  0
 15 16  2  0
 16 17  1  0
 17 18  2  0
 11 19  1  0
 19 20  2  0
 19 21  1  0
 21 22  1  0
 22 23  1  0
 22 24  1  0
 24 25  2  0
 24 26  1  0
 18 13  1  0
  1 27  1  0
  1 28  1  0
  1 29  1  0
  2 30  1  0
  2 31  1  0
  3 32  1  0
  3 33  1  0
  4 34  1  0
  4 35  1  0
  5 36  1  0
  5 37  1  0
  6 38  1  6
  7 39  1  0
 10 40  1  0
 11 41  1  1
 12 42  1  0
 12 43  1  0
 14 44  1  0
 15 45  1  0
 16 46  1  0
 17 47  1  0
 18 48  1  0
 21 49  1  0
 22 50  1  6
 23 51  1  0
 23 52  1  0
 23 53  1  0
M  CHG  1  26  -1
M  END
>  <meeko>  (6) 
{"is_sidechain": [false], "free_energy": -6.755, "intermolecular_energy": -11.326, "internal_energy": -0.898}

$$$$
1qf1_ligand
     RDKit          3D

 53 53  0  0  0  0  0  0  0  0999 V2000
   37.7470   42.3340    1.7900 C   0  0  0  0  0  0  0  0  0  0  0  0
   37.0970   42.1100    0.4330 C   0  0  0  0  0  0  0  0  0  0  0  0
   37.5140   43.1360   -0.6250 C   0  0  0  0  0  0  0  0  0  0  0  0
   36.4150   43.4250   -1.6510 C   0  0  0  0  0  0  0  0  0  0  0  0
   36.7800   42.9830   -3.0750 C   0  0  0  0  0  0  0  0  0  0  0  0
   36.2590   41.6080   -3.5170 C   0  0  2  0  0  0  0  0  0  0  0  0
   37.5750   40.3380   -3.5760 S   0  0  0  0  0  0  0  0  0  0  0  0
   35.6120   41.7450   -4.9020 C   0  0  0  0  0  0  0  0  0  0  0  0
   35.4120   42.8310   -5.4420 O   0  0  0  0  0  0  0  0  0  0  0  0
   35.2510   40.5360   -5.4610 N   0  0  0  0  0  0  0  0  0  0  0  0
   34.3420   40.4750   -6.6140 C   0  0  1  0  0  0  0  0  0  0  0  0
   35.0340   40.9390   -7.9040 C   0  0  0  0  0  0  0  0  0  0  0  0
   34.0830   41.5990   -8.8760 C   0  0  0  0  0  0  0  0  0  0  0  0
   33.4720   40.8600   -9.8960 C   0  0  0  0  0  0  0  0  0  0  0  0
   32.6090   41.4820  -10.8010 C   0  0  0  0  0  0  0  0  0  0  0  0
   32.3510   42.8480  -10.6930 C   0  0  0  0  0  0  0  0  0  0  0  0
   32.9570   43.5920   -9.6840 C   0  0  0  0  0  0  0  0  0  0  0  0
   33.8210   42.9730   -8.7800 C   0  0  0  0  0  0  0  0  0  0  0  0
   33.9450   38.9930   -6.7610 C   0  0  0  0  0  0  0  0  0  0  0  0
   32.9910   38.5190   -6.1410 O   0  0  0  0  0  0  0  0  0  0  0  0
   34.7580   38.2710   -7.5890 N   0  0  0  0  0  0  0  0  0  0  0  0
   34.7400   36.8010   -7.7140 C   0  0  1  0  0  0  0  0  0  0  0  0
   34.2990   36.3850   -9.1080 C   0  0  0  0  0  0  0  0  0  0  0  0
   36.1550   36.2040   -7.4050 C   0  0  0  0  0  0  0  0  0  0  0  0
   36.8300   36.9040   -6.5830 O   0  0  0  0  0  0  0  0  0  0  0  0
   36.4480   35.1200   -7.9780 O   0  0  0  0  0  0  0  0  0  0  0  0
   37.0290   42.0866    2.5858 H   0  0  0  0  0  0  0  0  0  0  0  0
   38.6336   41.6896    1.8827 H   0  0  0  0  0  0  0  0  0  0  0  0
   38.0484   43.3878    1.8827 H   0  0  0  0  0  0  0  0  0  0  0  0
   37.3767   41.1082    0.0748 H   0  0  0  0  0  0  0  0  0  0  0  0
   36.0114   42.2165    0.5745 H   0  0  0  0  0  0  0  0  0  0  0  0
   37.7739   44.0763   -0.1168 H   0  0  0  0  0  0  0  0  0  0  0  0
   38.3689   42.7122   -1.1723 H   0  0  0  0  0  0  0  0  0  0  0  0
   35.5024   42.8932   -1.3438 H   0  0  0  0  0  0  0  0  0  0  0  0
   36.2719   44.5154   -1.6757 H   0  0  0  0  0  0  0  0  0  0  0  0
   36.3779   43.7332   -3.7718 H   0  0  0  0  0  0  0  0  0  0  0  0
   37.8766   42.8965   -3.0824 H   0  0  0  0  0  0  0  0  0  0  0  0
   35.5239   41.2725   -2.7706 H   0  0  0  0  0  0  0  0  0  0  0  0
   38.4150   40.9950   -2.7570 H   0  0  0  0  0  0  0  0  0  0  0  0
   35.1120   39.7670   -4.8120 H   0  0  0  0  0  0  0  0  0  0  0  0
   33.4762   41.1341   -6.4532 H   0  0  0  0  0  0  0  0  0  0  0  0
   35.8223   41.6594   -7.6400 H   0  0  0  0  0  0  0  0  0  0  0  0
   35.4447   40.0462   -8.3982 H   0  0  0  0  0  0  0  0  0  0  0  0
   33.6730   39.7822   -9.9853 H   0  0  0  0  0  0  0  0  0  0  0  0
   32.1326   40.8940  -11.5993 H   0  0  0  0  0  0  0  0  0  0  0  0
   31.6694   43.3374  -11.4042 H   0  0  0  0  0  0  0  0  0  0  0  0
   32.7542   44.6698   -9.5994 H   0  0  0  0  0  0  0  0  0  0  0  0
   34.2995   43.5666   -7.9871 H   0  0  0  0  0  0  0  0  0  0  0  0
   35.6500   38.6440   -7.9160 H   0  0  0  0  0  0  0  0  0  0  0  0
   34.0193   36.4073   -6.9821 H   0  0  0  0  0  0  0  0  0  0  0  0
   33.5008   35.6321   -9.0306 H   0  0  0  0  0  0  0  0  0  0  0  0
   33.9222   37.2643   -9.6511 H   0  0  0  0  0  0  0  0  0  0  0  0
   35.1548   35.9576   -9.6511 H   0  0  0  0  0  0  0  0  0  0  0  0
  1  2  1  0
  2  3  1  0
  3  4  1  0
  4  5  1  0
  5  6  1  0
  6  7  1  0
  6  8  1  0
  8  9  2  0
  8 10  1  0
 10 11  1  0
 11 12  1  0
 12 13  1  0
 13 14  2  0
 14 15  1  0
 15 16  2  0
 16 17  1  0
 17 18  2  0
 11 19  1  0
 19 20  2  0
 19 21  1  0
 21 22  1  0
 22 23  1  0
 22 24  1  0
 24 25  2  0
 24 26  1  0
 18 13  1  0
  1 27  1  0
  1 28  1  0
  1 29  1  0
  2 30  1  0
  2 31  1  0
  3 32  1  0
  3 33  1  0
  4 34  1  0
  4 35  1  0
  5 36  1  0
  5 37  1  0
  6 38  1  1
  7 39  1  0
 10 40  1  0
 11 41  1  1
 12 42  1  0
 12 43  1  0
 14 44  1  0
 15 45  1  0
 16 46  1  0
 17 47  1  0
 18 48  1  0
 21 49  1  0
 22 50  1  1
 23 51  1  0
 23 52  1  0
 23 53  1  0
M  CHG  1  26  -1
M  END
>  <meeko>  (7) 
{"is_sidechain": [false], "free_energy": -6.748, "intermolecular_energy": -11.355, "internal_energy": -0.857}

$$$$
1qf1_ligand
     RDKit          3D

 53 53  0  0  0  0  0  0  0  0999 V2000
   40.2940   35.3620    0.6630 C   0  0  0  0  0  0  0  0  0  0  0  0
   39.1610   34.6980   -0.1050 C   0  0  0  0  0  0  0  0  0  0  0  0
   38.4180   35.6480   -1.0490 C   0  0  0  0  0  0  0  0  0  0  0  0
   39.3370   36.3310   -2.0660 C   0  0  0  0  0  0  0  0  0  0  0  0
   38.6000   36.8170   -3.3210 C   0  0  0  0  0  0  0  0  0  0  0  0
   38.9530   38.2260   -3.8170 C   0  0  2  0  0  0  0  0  0  0  0  0
   40.7210   38.6390   -3.5790 S   0  0  0  0  0  0  0  0  0  0  0  0
   38.0810   39.2460   -3.0720 C   0  0  0  0  0  0  0  0  0  0  0  0
   37.6550   39.0580   -1.9350 O   0  0  0  0  0  0  0  0  0  0  0  0
   37.7990   40.3740   -3.8160 N   0  0  0  0  0  0  0  0  0  0  0  0
   36.7330   41.3020   -3.4130 C   0  0  1  0  0  0  0  0  0  0  0  0
   37.3080   42.6180   -2.8670 C   0  0  0  0  0  0  0  0  0  0  0  0
   37.4160   42.6310   -1.3590 C   0  0  0  0  0  0  0  0  0  0  0  0
   38.3460   43.4550   -0.7140 C   0  0  0  0  0  0  0  0  0  0  0  0
   38.4520   43.4470    0.6790 C   0  0  0  0  0  0  0  0  0  0  0  0
   37.6300   42.6140    1.4360 C   0  0  0  0  0  0  0  0  0  0  0  0
   36.7050   41.7870    0.8030 C   0  0  0  0  0  0  0  0  0  0  0  0
   36.5980   41.7930   -0.5880 C   0  0  0  0  0  0  0  0  0  0  0  0
   35.9240   41.5980   -4.6900 C   0  0  0  0  0  0  0  0  0  0  0  0
   35.5170   42.7330   -4.9450 O   0  0  0  0  0  0  0  0  0  0  0  0
   35.6740   40.5000   -5.4650 N   0  0  0  0  0  0  0  0  0  0  0  0
   34.7320   40.4690   -6.6010 C   0  0  1  0  0  0  0  0  0  0  0  0
   34.7750   41.7780   -7.3720 C   0  0  0  0  0  0  0  0  0  0  0  0
   35.0650   39.2770   -7.5610 C   0  0  0  0  0  0  0  0  0  0  0  0
   34.9110   38.1350   -7.0190 O   0  0  0  0  0  0  0  0  0  0  0  0
   35.4210   39.5770   -8.7320 O   0  0  0  0  0  0  0  0  0  0  0  0
   40.1154   35.2573    1.7433 H   0  0  0  0  0  0  0  0  0  0  0  0
   41.2470   34.8795    0.4005 H   0  0  0  0  0  0  0  0  0  0  0  0
   40.3388   36.4293    0.4005 H   0  0  0  0  0  0  0  0  0  0  0  0
   39.5812   33.8745   -0.7010 H   0  0  0  0  0  0  0  0  0  0  0  0
   38.4305   34.3473    0.6388 H   0  0  0  0  0  0  0  0  0  0  0  0
   37.6576   35.0721   -1.5968 H   0  0  0  0  0  0  0  0  0  0  0  0
   37.9711   36.4397   -0.4298 H   0  0  0  0  0  0  0  0  0  0  0  0
   39.8103   37.1978   -1.5816 H   0  0  0  0  0  0  0  0  0  0  0  0
   40.0751   35.5831   -2.3913 H   0  0  0  0  0  0  0  0  0  0  0  0
   38.8222   36.1105   -4.1343 H   0  0  0  0  0  0  0  0  0  0  0  0
   37.5385   36.8648   -3.0364 H   0  0  0  0  0  0  0  0  0  0  0  0
   38.7599   38.2582   -4.8994 H   0  0  0  0  0  0  0  0  0  0  0  0
   40.5420   39.2630   -2.4000 H   0  0  0  0  0  0  0  0  0  0  0  0
   37.8690   40.2740   -4.8240 H   0  0  0  0  0  0  0  0  0  0  0  0
   36.1203   40.8569   -2.6152 H   0  0  0  0  0  0  0  0  0  0  0  0
   38.3117   42.7659   -3.2922 H   0  0  0  0  0  0  0  0  0  0  0  0
   36.6186   43.4250   -3.1559 H   0  0  0  0  0  0  0  0  0  0  0  0
   38.9975   44.1130   -1.3078 H   0  0  0  0  0  0  0  0  0  0  0  0
   39.1844   44.0983    1.1785 H   0  0  0  0  0  0  0  0  0  0  0  0
   37.7117   42.6097    2.5330 H   0  0  0  0  0  0  0  0  0  0  0  0
   36.0579   41.1282    1.4007 H   0  0  0  0  0  0  0  0  0  0  0  0
   35.8674   41.1363   -1.0829 H   0  0  0  0  0  0  0  0  0  0  0  0
   35.8450   39.5550   -5.1200 H   0  0  0  0  0  0  0  0  0  0  0  0
   33.7186   40.3292   -6.1968 H   0  0  0  0  0  0  0  0  0  0  0  0
   34.8027   42.6196   -6.6643 H   0  0  0  0  0  0  0  0  0  0  0  0
   35.6744   41.8014   -8.0049 H   0  0  0  0  0  0  0  0  0  0  0  0
   33.8791   41.8604   -8.0049 H   0  0  0  0  0  0  0  0  0  0  0  0
  1  2  1  0
  2  3  1  0
  3  4  1  0
  4  5  1  0
  5  6  1  0
  6  7  1  0
  6  8  1  0
  8  9  2  0
  8 10  1  0
 10 11  1  0
 11 12  1  0
 12 13  1  0
 13 14  2  0
 14 15  1  0
 15 16  2  0
 16 17  1  0
 17 18  2  0
 11 19  1  0
 19 20  2  0
 19 21  1  0
 21 22  1  0
 22 23  1  0
 22 24  1  0
 24 25  2  0
 24 26  1  0
 18 13  1  0
  1 27  1  0
  1 28  1  0
  1 29  1  0
  2 30  1  0
  2 31  1  0
  3 32  1  0
  3 33  1  0
  4 34  1  0
  4 35  1  0
  5 36  1  0
  5 37  1  0
  6 38  1  6
  7 39  1  0
 10 40  1  0
 11 41  1  1
 12 42  1  0
 12 43  1  0
 14 44  1  0
 15 45  1  0
 16 46  1  0
 17 47  1  0
 18 48  1  0
 21 49  1  0
 22 50  1  1
 23 51  1  0
 23 52  1  0
 23 53  1  0
M  CHG  1  26  -1
M  END
>  <meeko>  (8) 
{"is_sidechain": [false], "free_energy": -6.665, "intermolecular_energy": -11.86, "internal_energy": -0.214}

$$$$
1qf1_ligand
     RDKit          3D

 53 53  0  0  0  0  0  0  0  0999 V2000
   33.0470   45.0620  -14.9020 C   0  0  0  0  0  0  0  0  0  0  0  0
   32.8740   45.4020  -13.4290 C   0  0  0  0  0  0  0  0  0  0  0  0
   32.9130   44.1810  -12.5070 C   0  0  0  0  0  0  0  0  0  0  0  0
   32.6700   44.5270  -11.0350 C   0  0  0  0  0  0  0  0  0  0  0  0
   33.5710   43.7450  -10.0690 C   0  0  0  0  0  0  0  0  0  0  0  0
   32.8590   42.8420   -9.0520 C   0  0  2  0  0  0  0  0  0  0  0  0
   33.8160   42.6240   -7.5070 S   0  0  0  0  0  0  0  0  0  0  0  0
   32.6040   41.4730   -9.6970 C   0  0  0  0  0  0  0  0  0  0  0  0
   33.4600   40.5940   -9.7610 O   0  0  0  0  0  0  0  0  0  0  0  0
   31.3350   41.3430  -10.2240 N   0  0  0  0  0  0  0  0  0  0  0  0
   31.0070   40.2520  -11.1530 C   0  0  1  0  0  0  0  0  0  0  0  0
   29.5670   39.7560  -10.9540 C   0  0  0  0  0  0  0  0  0  0  0  0
   29.4830   38.5410  -10.0580 C   0  0  0  0  0  0  0  0  0  0  0  0
   28.3490   37.7200  -10.0670 C   0  0  0  0  0  0  0  0  0  0  0  0
   28.2720   36.6110   -9.2220 C   0  0  0  0  0  0  0  0  0  0  0  0
   29.3280   36.3140   -8.3620 C   0  0  0  0  0  0  0  0  0  0  0  0
   30.4590   37.1270   -8.3430 C   0  0  0  0  0  0  0  0  0  0  0  0
   30.5370   38.2370   -9.1850 C   0  0  0  0  0  0  0  0  0  0  0  0
   31.1440   40.8450  -12.5680 C   0  0  0  0  0  0  0  0  0  0  0  0
   32.1650   40.6790  -13.2390 O   0  0  0  0  0  0  0  0  0  0  0  0
   30.0710   41.5870  -12.9750 N   0  0  0  0  0  0  0  0  0  0  0  0
   30.0480   42.4480  -14.1730 C   0  0  1  0  0  0  0  0  0  0  0  0
   29.3030   41.7680  -15.3110 C   0  0  0  0  0  0  0  0  0  0  0  0
   29.3770   43.8260  -13.8500 C   0  0  0  0  0  0  0  0  0  0  0  0
   28.9160   44.4160  -14.8800 O   0  0  0  0  0  0  0  0  0  0  0  0
   29.3560   44.1750  -12.6390 O   0  0  0  0  0  0  0  0  0  0  0  0
   33.5440   44.0853  -14.9969 H   0  0  0  0  0  0  0  0  0  0  0  0
   32.0606   45.0202  -15.3870 H   0  0  0  0  0  0  0  0  0  0  0  0
   33.6615   45.8348  -15.3870 H   0  0  0  0  0  0  0  0  0  0  0  0
   33.6828   46.0864  -13.1333 H   0  0  0  0  0  0  0  0  0  0  0  0
   31.8783   45.8564  -13.3188 H   0  0  0  0  0  0  0  0  0  0  0  0
   32.1367   43.4727  -12.8322 H   0  0  0  0  0  0  0  0  0  0  0  0
   33.9226   43.7501  -12.5786 H   0  0  0  0  0  0  0  0  0  0  0  0
   32.8571   45.6017  -10.8938 H   0  0  0  0  0  0  0  0  0  0  0  0
   31.6302   44.2525  -10.8039 H   0  0  0  0  0  0  0  0  0  0  0  0
   34.2368   43.1100  -10.6720 H   0  0  0  0  0  0  0  0  0  0  0  0
   34.0893   44.5082   -9.4699 H   0  0  0  0  0  0  0  0  0  0  0  0
   31.9124   43.3299   -8.7766 H   0  0  0  0  0  0  0  0  0  0  0  0
   32.7710   42.8380   -6.6860 H   0  0  0  0  0  0  0  0  0  0  0  0
   30.8540   42.2080  -10.4530 H   0  0  0  0  0  0  0  0  0  0  0  0
   31.6744   39.3938  -10.9854 H   0  0  0  0  0  0  0  0  0  0  0  0
   28.9755   40.5665  -10.5031 H   0  0  0  0  0  0  0  0  0  0  0  0
   29.1777   39.4664  -11.9412 H   0  0  0  0  0  0  0  0  0  0  0  0
   27.5132   37.9501  -10.7442 H   0  0  0  0  0  0  0  0  0  0  0  0
   27.3773   35.9712   -9.2350 H   0  0  0  0  0  0  0  0  0  0  0  0
   29.2683   35.4384   -7.6989 H   0  0  0  0  0  0  0  0  0  0  0  0
   31.2918   36.8936   -7.6633 H   0  0  0  0  0  0  0  0  0  0  0  0
   31.4311   38.8775   -9.1636 H   0  0  0  0  0  0  0  0  0  0  0  0
   29.3420   41.8730  -12.3190 H   0  0  0  0  0  0  0  0  0  0  0  0
   31.0887   42.6220  -14.4840 H   0  0  0  0  0  0  0  0  0  0  0  0
   28.5501   41.0808  -14.8975 H   0  0  0  0  0  0  0  0  0  0  0  0
   28.8045   42.5290  -15.9294 H   0  0  0  0  0  0  0  0  0  0  0  0
   30.0155   41.2023  -15.9294 H   0  0  0  0  0  0  0  0  0  0  0  0
  1  2  1  0
  2  3  1  0
  3  4  1  0
  4  5  1  0
  5  6  1  0
  6  7  1  0
  6  8  1  0
  8  9  2  0
  8 10  1  0
 10 11  1  0
 11 12  1  0
 12 13  1  0
 13 14  2  0
 14 15  1  0
 15 16  2  0
 16 17  1  0
 17 18  2  0
 11 19  1  0
 19 20  2  0
 19 21  1  0
 21 22  1  0
 22 23  1  0
 22 24  1  0
 24 25  2  0
 24 26  1  0
 18 13  1  0
  1 27  1  0
  1 28  1  0
  1 29  1  0
  2 30  1  0
  2 31  1  0
  3 32  1  0
  3 33  1  0
  4 34  1  0
  4 35  1  0
  5 36  1  0
  5 37  1  0
  6 38  1  1
  7 39  1  0
 10 40  1  0
 11 41  1  6
 12 42  1  0
 12 43  1  0
 14 44  1  0
 15 45  1  0
 16 46  1  0
 17 47  1  0
 18 48  1  0
 21 49  1  0
 22 50  1  6
 23 51  1  0
 23 52  1  0
 23 53  1  0
M  CHG  1  26  -1
M  END
>  <meeko>  (9) 
{"is_sidechain": [false], "free_energy": -6.642, "intermolecular_energy": -10.573, "internal_energy": -1.461}

$$$$
