4eo8_ligand
     RDKit          3D

 56 57  0  0  0  0  0  0  0  0999 V2000
    6.0160   33.5000   76.3540 C   0  0  0  0  0  0  0  0  0  0  0  0
    7.4510   33.6610   76.1280 N   0  0  0  0  0  0  0  0  0  0  0  0
    8.1430   32.3750   76.2270 C   0  0  0  0  0  0  0  0  0  0  0  0
    7.7880   34.4110   74.9430 N   0  0  0  0  0  0  0  0  0  0  0  0
    8.1660   33.6930   73.7770 C   0  0  0  0  0  0  0  0  0  0  0  0
    9.5350   33.3980   73.4280 C   0  0  0  0  0  0  0  0  0  0  0  0
    9.6550   32.6040   72.3110 C   0  0  0  0  0  0  0  0  0  0  0  0
   10.8890   32.1400   71.7710 C   0  0  0  0  0  0  0  0  0  0  0  0
   11.9290   31.7490   71.3150 C   0  0  0  0  0  0  0  0  0  0  0  0
   13.2070   31.2600   70.7560 C   0  0  0  0  0  0  0  0  0  0  0  0
   13.1670   31.3640   69.2240 C   0  0  0  0  0  0  0  0  0  0  0  0
   13.4170   29.7950   71.1660 C   0  0  0  0  0  0  0  0  0  0  0  0
   14.3610   32.1150   71.2970 C   0  0  0  0  0  0  0  0  0  0  0  0
    8.1360   32.2270   71.6470 S   0  0  0  0  0  0  0  0  0  0  0  0
    7.3140   33.1660   72.8210 C   0  0  0  0  0  0  0  0  0  0  0  0
    5.7670   33.4280   72.7060 C   0  0  0  0  0  0  0  0  0  0  0  0
    5.3460   34.5680   73.0750 O   0  0  0  0  0  0  0  0  0  0  0  0
    5.0600   32.4730   72.2600 O   0  0  0  0  0  0  0  0  0  0  0  0
    8.2880   35.7210   75.1050 C   0  0  0  0  0  0  0  0  0  0  0  0
    8.5250   36.2420   76.2080 O   0  0  0  0  0  0  0  0  0  0  0  0
    8.5720   36.5910   73.8650 C   0  0  2  0  0  0  0  0  0  0  0  0
    9.9030   37.3470   73.9260 C   0  0  0  0  0  0  0  0  0  0  0  0
   10.1280   38.1100   72.6230 C   0  0  0  0  0  0  0  0  0  0  0  0
    9.0090   39.1260   72.3240 C   0  0  1  0  0  0  0  0  0  0  0  0
    8.6680   39.1200   70.8330 C   0  0  0  0  0  0  0  0  0  0  0  0
    7.7530   38.9170   73.1870 C   0  0  0  0  0  0  0  0  0  0  0  0
    7.3900   37.4470   73.3860 C   0  0  0  0  0  0  0  0  0  0  0  0
    5.8154   33.4775   77.4353 H   0  0  0  0  0  0  0  0  0  0  0  0
    5.4762   34.3432   75.8984 H   0  0  0  0  0  0  0  0  0  0  0  0
    5.6765   32.5581   75.8984 H   0  0  0  0  0  0  0  0  0  0  0  0
    8.2831   32.1146   77.2865 H   0  0  0  0  0  0  0  0  0  0  0  0
    7.5421   31.5964   75.7344 H   0  0  0  0  0  0  0  0  0  0  0  0
    9.1239   32.4476   75.7344 H   0  0  0  0  0  0  0  0  0  0  0  0
   10.3978   33.7714   73.9991 H   0  0  0  0  0  0  0  0  0  0  0  0
   12.7861   32.3542   68.9335 H   0  0  0  0  0  0  0  0  0  0  0  0
   14.1814   31.2285   68.8207 H   0  0  0  0  0  0  0  0  0  0  0  0
   12.5048   30.5837   68.8207 H   0  0  0  0  0  0  0  0  0  0  0  0
   13.4279   29.7193   72.2633 H   0  0  0  0  0  0  0  0  0  0  0  0
   12.5977   29.1807   70.7642 H   0  0  0  0  0  0  0  0  0  0  0  0
   14.3758   29.4356   70.7642 H   0  0  0  0  0  0  0  0  0  0  0  0
   14.3430   32.1016   72.3968 H   0  0  0  0  0  0  0  0  0  0  0  0
   15.3183   31.7064   70.9410 H   0  0  0  0  0  0  0  0  0  0  0  0
   14.2489   33.1497   70.9410 H   0  0  0  0  0  0  0  0  0  0  0  0
    8.7007   35.8544   73.0583 H   0  0  0  0  0  0  0  0  0  0  0  0
    9.8806   38.0575   74.7654 H   0  0  0  0  0  0  0  0  0  0  0  0
   10.7220   36.6269   74.0698 H   0  0  0  0  0  0  0  0  0  0  0  0
   11.0836   38.6503   72.6929 H   0  0  0  0  0  0  0  0  0  0  0  0
   10.1336   37.3740   71.8055 H   0  0  0  0  0  0  0  0  0  0  0  0
    9.3978   40.1182   72.5967 H   0  0  0  0  0  0  0  0  0  0  0  0
    7.5754   39.1008   70.7068 H   0  0  0  0  0  0  0  0  0  0  0  0
    9.0759   40.0255   70.3599 H   0  0  0  0  0  0  0  0  0  0  0  0
    9.1075   38.2294   70.3599 H   0  0  0  0  0  0  0  0  0  0  0  0
    7.9294   39.3691   74.1742 H   0  0  0  0  0  0  0  0  0  0  0  0
    6.9130   39.3894   72.6567 H   0  0  0  0  0  0  0  0  0  0  0  0
    6.5865   37.3836   74.1346 H   0  0  0  0  0  0  0  0  0  0  0  0
    7.0761   37.0527   72.4083 H   0  0  0  0  0  0  0  0  0  0  0  0
  1  2  1  0
  2  3  1  0
  2  4  1  0
  4  5  1  0
  5  6  1  0
  6  7  2  0
  7  8  1  0
  8  9  3  0
  9 10  1  0
 10 11  1  0
 10 12  1  0
 10 13  1  0
  7 14  1  0
 14 15  1  0
 15 16  1  0
 16 17  2  0
 16 18  1  0
  4 19  1  0
 19 20  2  0
 19 21  1  0
 21 22  1  0
 22 23  1  0
 23 24  1  0
 24 25  1  0
 24 26  1  0
 26 27  1  0
 15  5  2  0
 27 21  1  0
  1 28  1  0
  1 29  1  0
  1 30  1  0
  3 31  1  0
  3 32  1  0
  3 33  1  0
  6 34  1  0
 11 35  1  0
 11 36  1  0
 11 37  1  0
 12 38  1  0
 12 39  1  0
 12 40  1  0
 13 41  1  0
 13 42  1  0
 13 43  1  0
 21 44  1  1
 22 45  1  0
 22 46  1  0
 23 47  1  0
 23 48  1  0
 24 49  1  6
 25 50  1  0
 25 51  1  0
 25 52  1  0
 26 53  1  0
 26 54  1  0
 27 55  1  0
 27 56  1  0
M  CHG  1  18  -1
M  END
>  <meeko>  (1) 
{"is_sidechain": [false], "free_energy": -8.15, "intermolecular_energy": -11.009, "internal_energy": -0.799}

$$$$
4eo8_ligand
     RDKit          3D

 56 57  0  0  0  0  0  0  0  0999 V2000
    8.8450   36.5350   77.6130 C   0  0  0  0  0  0  0  0  0  0  0  0
    8.9800   35.3760   76.7330 N   0  0  0  0  0  0  0  0  0  0  0  0
    9.0920   34.1410   77.5100 C   0  0  0  0  0  0  0  0  0  0  0  0
    7.9980   35.3110   75.6780 N   0  0  0  0  0  0  0  0  0  0  0  0
    8.1850   34.3550   74.6440 C   0  0  0  0  0  0  0  0  0  0  0  0
    9.4470   34.1290   73.9820 C   0  0  0  0  0  0  0  0  0  0  0  0
    9.4150   33.0860   73.0870 C   0  0  0  0  0  0  0  0  0  0  0  0
   10.5300   32.6320   72.3240 C   0  0  0  0  0  0  0  0  0  0  0  0
   11.4700   32.2500   71.6810 C   0  0  0  0  0  0  0  0  0  0  0  0
   12.6310   31.7810   70.8970 C   0  0  0  0  0  0  0  0  0  0  0  0
   12.4770   30.2810   70.6050 C   0  0  0  0  0  0  0  0  0  0  0  0
   13.9190   32.0180   71.6990 C   0  0  0  0  0  0  0  0  0  0  0  0
   12.7000   32.5560   69.5740 C   0  0  0  0  0  0  0  0  0  0  0  0
    7.8690   32.3830   73.0010 S   0  0  0  0  0  0  0  0  0  0  0  0
    7.2230   33.5040   74.1250 C   0  0  0  0  0  0  0  0  0  0  0  0
    5.6780   33.5570   74.4160 C   0  0  0  0  0  0  0  0  0  0  0  0
    5.2600   32.9240   75.4340 O   0  0  0  0  0  0  0  0  0  0  0  0
    4.9690   34.2240   73.6000 O   0  0  0  0  0  0  0  0  0  0  0  0
    7.2680   36.4800   75.3750 C   0  0  0  0  0  0  0  0  0  0  0  0
    6.1770   36.7710   75.8940 O   0  0  0  0  0  0  0  0  0  0  0  0
    7.8240   37.4840   74.3470 C   0  0  2  0  0  0  0  0  0  0  0  0
    7.2960   37.2740   72.9240 C   0  0  0  0  0  0  0  0  0  0  0  0
    7.8380   38.3630   72.0010 C   0  0  0  0  0  0  0  0  0  0  0  0
    9.3780   38.3880   71.9460 C   0  0  1  0  0  0  0  0  0  0  0  0
    9.8880   39.8300   71.9310 C   0  0  0  0  0  0  0  0  0  0  0  0
   10.0390   37.5720   73.0700 C   0  0  0  0  0  0  0  0  0  0  0  0
    9.3400   37.7200   74.4200 C   0  0  0  0  0  0  0  0  0  0  0  0
    8.8834   36.2055   78.6618 H   0  0  0  0  0  0  0  0  0  0  0  0
    9.6671   37.2398   77.4198 H   0  0  0  0  0  0  0  0  0  0  0  0
    7.8829   37.0320   77.4198 H   0  0  0  0  0  0  0  0  0  0  0  0
    9.0703   34.3800   78.5835 H   0  0  0  0  0  0  0  0  0  0  0  0
    8.2505   33.4762   77.2653 H   0  0  0  0  0  0  0  0  0  0  0  0
   10.0394   33.6385   77.2653 H   0  0  0  0  0  0  0  0  0  0  0  0
   10.3465   34.7321   74.1746 H   0  0  0  0  0  0  0  0  0  0  0  0
   12.4201   29.7268   71.5535 H   0  0  0  0  0  0  0  0  0  0  0  0
   11.5569   30.1127   70.0262 H   0  0  0  0  0  0  0  0  0  0  0  0
   13.3438   29.9292   70.0262 H   0  0  0  0  0  0  0  0  0  0  0  0
   13.6939   31.9766   72.7749 H   0  0  0  0  0  0  0  0  0  0  0  0
   14.6554   31.2403   71.4483 H   0  0  0  0  0  0  0  0  0  0  0  0
   14.3303   33.0069   71.4483 H   0  0  0  0  0  0  0  0  0  0  0  0
   12.7958   33.6316   69.7837 H   0  0  0  0  0  0  0  0  0  0  0  0
   13.5715   32.2163   68.9951 H   0  0  0  0  0  0  0  0  0  0  0  0
   11.7822   32.3756   68.9951 H   0  0  0  0  0  0  0  0  0  0  0  0
    7.3979   38.4451   74.6708 H   0  0  0  0  0  0  0  0  0  0  0  0
    7.6210   36.2895   72.5563 H   0  0  0  0  0  0  0  0  0  0  0  0
    6.1972   37.3234   72.9351 H   0  0  0  0  0  0  0  0  0  0  0  0
    7.4530   38.1868   70.9858 H   0  0  0  0  0  0  0  0  0  0  0  0
    7.5053   39.3320   72.4014 H   0  0  0  0  0  0  0  0  0  0  0  0
    9.6711   37.8963   71.0067 H   0  0  0  0  0  0  0  0  0  0  0  0
   10.0136   40.1853   72.9644 H   0  0  0  0  0  0  0  0  0  0  0  0
   10.8553   39.8714   71.4089 H   0  0  0  0  0  0  0  0  0  0  0  0
    9.1618   40.4703   71.4089 H   0  0  0  0  0  0  0  0  0  0  0  0
   10.0242   36.5098   72.7845 H   0  0  0  0  0  0  0  0  0  0  0  0
   11.0625   37.9563   73.1909 H   0  0  0  0  0  0  0  0  0  0  0  0
    9.7738   36.9906   75.1199 H   0  0  0  0  0  0  0  0  0  0  0  0
    9.4931   38.7565   74.7548 H   0  0  0  0  0  0  0  0  0  0  0  0
  1  2  1  0
  2  3  1  0
  2  4  1  0
  4  5  1  0
  5  6  1  0
  6  7  2  0
  7  8  1  0
  8  9  3  0
  9 10  1  0
 10 11  1  0
 10 12  1  0
 10 13  1  0
  7 14  1  0
 14 15  1  0
 15 16  1  0
 16 17  2  0
 16 18  1  0
  4 19  1  0
 19 20  2  0
 19 21  1  0
 21 22  1  0
 22 23  1  0
 23 24  1  0
 24 25  1  0
 24 26  1  0
 26 27  1  0
 15  5  2  0
 27 21  1  0
  1 28  1  0
  1 29  1  0
  1 30  1  0
  3 31  1  0
  3 32  1  0
  3 33  1  0
  6 34  1  0
 11 35  1  0
 11 36  1  0
 11 37  1  0
 12 38  1  0
 12 39  1  0
 12 40  1  0
 13 41  1  0
 13 42  1  0
 13 43  1  0
 21 44  1  6
 22 45  1  0
 22 46  1  0
 23 47  1  0
 23 48  1  0
 24 49  1  1
 25 50  1  0
 25 51  1  0
 25 52  1  0
 26 53  1  0
 26 54  1  0
 27 55  1  0
 27 56  1  0
M  CHG  1  18  -1
M  END
>  <meeko>  (2) 
{"is_sidechain": [false], "free_energy": -7.115, "intermolecular_energy": -9.612, "internal_energy": -0.798}

$$$$
4eo8_ligand
     RDKit          3D

 56 57  0  0  0  0  0  0  0  0999 V2000
    5.3690   34.5440   74.5050 C   0  0  0  0  0  0  0  0  0  0  0  0
    6.1980   33.4900   73.9250 N   0  0  0  0  0  0  0  0  0  0  0  0
    5.6280   33.0110   72.6650 C   0  0  0  0  0  0  0  0  0  0  0  0
    7.6010   33.8140   73.8400 N   0  0  0  0  0  0  0  0  0  0  0  0
    8.5360   32.7450   73.7760 C   0  0  0  0  0  0  0  0  0  0  0  0
    9.6310   32.6960   72.8380 C   0  0  0  0  0  0  0  0  0  0  0  0
   10.4650   31.6180   73.0280 C   0  0  0  0  0  0  0  0  0  0  0  0
   11.6360   31.3500   72.2630 C   0  0  0  0  0  0  0  0  0  0  0  0
   12.6240   31.1230   71.6170 C   0  0  0  0  0  0  0  0  0  0  0  0
   13.8440   30.8490   70.8290 C   0  0  0  0  0  0  0  0  0  0  0  0
   14.2200   29.3680   70.9710 C   0  0  0  0  0  0  0  0  0  0  0  0
   14.9940   31.7240   71.3480 C   0  0  0  0  0  0  0  0  0  0  0  0
   13.5790   31.1720   69.3520 C   0  0  0  0  0  0  0  0  0  0  0  0
    9.9320   30.6340   74.3080 S   0  0  0  0  0  0  0  0  0  0  0  0
    8.5560   31.6180   74.5810 C   0  0  0  0  0  0  0  0  0  0  0  0
    7.4340   31.1760   75.5920 C   0  0  0  0  0  0  0  0  0  0  0  0
    6.6530   30.2490   75.2170 O   0  0  0  0  0  0  0  0  0  0  0  0
    7.3960   31.7900   76.7020 O   0  0  0  0  0  0  0  0  0  0  0  0
    8.0350   35.0400   74.3860 C   0  0  0  0  0  0  0  0  0  0  0  0
    8.0800   35.2800   75.6040 O   0  0  0  0  0  0  0  0  0  0  0  0
    8.4900   36.1770   73.4500 C   0  0  2  0  0  0  0  0  0  0  0  0
    9.7860   36.8650   73.8890 C   0  0  0  0  0  0  0  0  0  0  0  0
   10.1940   37.9140   72.8590 C   0  0  0  0  0  0  0  0  0  0  0  0
    9.1190   38.9980   72.6520 C   0  0  1  0  0  0  0  0  0  0  0  0
    9.0050   39.3610   71.1700 C   0  0  0  0  0  0  0  0  0  0  0  0
    7.7510   38.6170   73.2430 C   0  0  0  0  0  0  0  0  0  0  0  0
    7.3820   37.1510   73.0230 C   0  0  0  0  0  0  0  0  0  0  0  0
    5.4155   34.4849   75.6024 H   0  0  0  0  0  0  0  0  0  0  0  0
    5.7396   35.5256   74.1746 H   0  0  0  0  0  0  0  0  0  0  0  0
    4.3277   34.4151   74.1746 H   0  0  0  0  0  0  0  0  0  0  0  0
    4.8016   32.3166   72.8769 H   0  0  0  0  0  0  0  0  0  0  0  0
    5.2491   33.8658   72.0855 H   0  0  0  0  0  0  0  0  0  0  0  0
    6.4048   32.4906   72.0855 H   0  0  0  0  0  0  0  0  0  0  0  0
    9.7842   33.4465   72.0485 H   0  0  0  0  0  0  0  0  0  0  0  0
   14.2862   29.1072   72.0376 H   0  0  0  0  0  0  0  0  0  0  0  0
   13.4511   28.7466   70.4886 H   0  0  0  0  0  0  0  0  0  0  0  0
   15.1922   29.1886   70.4886 H   0  0  0  0  0  0  0  0  0  0  0  0
   14.9896   31.7207   72.4480 H   0  0  0  0  0  0  0  0  0  0  0  0
   15.9520   31.3243   70.9839 H   0  0  0  0  0  0  0  0  0  0  0  0
   14.8643   32.7539   70.9839 H   0  0  0  0  0  0  0  0  0  0  0  0
   12.8827   32.0207   69.2815 H   0  0  0  0  0  0  0  0  0  0  0  0
   14.5265   31.4331   68.8580 H   0  0  0  0  0  0  0  0  0  0  0  0
   13.1378   30.2937   68.8580 H   0  0  0  0  0  0  0  0  0  0  0  0
    8.7480   35.6535   72.5176 H   0  0  0  0  0  0  0  0  0  0  0  0
    9.6282   37.3523   74.8625 H   0  0  0  0  0  0  0  0  0  0  0  0
   10.5838   36.1124   73.9738 H   0  0  0  0  0  0  0  0  0  0  0  0
   11.1208   38.3988   73.1995 H   0  0  0  0  0  0  0  0  0  0  0  0
   10.3326   37.3975   71.8977 H   0  0  0  0  0  0  0  0  0  0  0  0
    9.4498   39.8855   73.2113 H   0  0  0  0  0  0  0  0  0  0  0  0
    8.6767   40.4064   71.0727 H   0  0  0  0  0  0  0  0  0  0  0  0
    9.9851   39.2379   70.6859 H   0  0  0  0  0  0  0  0  0  0  0  0
    8.2713   38.6997   70.6859 H   0  0  0  0  0  0  0  0  0  0  0  0
    7.7720   38.8126   74.3253 H   0  0  0  0  0  0  0  0  0  0  0  0
    6.9934   39.2237   72.7254 H   0  0  0  0  0  0  0  0  0  0  0  0
    6.4763   36.9273   73.6058 H   0  0  0  0  0  0  0  0  0  0  0  0
    7.2236   37.0125   71.9433 H   0  0  0  0  0  0  0  0  0  0  0  0
  1  2  1  0
  2  3  1  0
  2  4  1  0
  4  5  1  0
  5  6  1  0
  6  7  2  0
  7  8  1  0
  8  9  3  0
  9 10  1  0
 10 11  1  0
 10 12  1  0
 10 13  1  0
  7 14  1  0
 14 15  1  0
 15 16  1  0
 16 17  2  0
 16 18  1  0
  4 19  1  0
 19 20  2  0
 19 21  1  0
 21 22  1  0
 22 23  1  0
 23 24  1  0
 24 25  1  0
 24 26  1  0
 26 27  1  0
 15  5  2  0
 27 21  1  0
  1 28  1  0
  1 29  1  0
  1 30  1  0
  3 31  1  0
  3 32  1  0
  3 33  1  0
  6 34  1  0
 11 35  1  0
 11 36  1  0
 11 37  1  0
 12 38  1  0
 12 39  1  0
 12 40  1  0
 13 41  1  0
 13 42  1  0
 13 43  1  0
 21 44  1  1
 22 45  1  0
 22 46  1  0
 23 47  1  0
 23 48  1  0
 24 49  1  6
 25 50  1  0
 25 51  1  0
 25 52  1  0
 26 53  1  0
 26 54  1  0
 27 55  1  0
 27 56  1  0
M  CHG  1  18  -1
M  END
>  <meeko>  (3) 
{"is_sidechain": [false], "free_energy": -6.762, "intermolecular_energy": -9.308, "internal_energy": -0.625}

$$$$
4eo8_ligand
     RDKit          3D

 56 57  0  0  0  0  0  0  0  0999 V2000
   10.2940   38.4280   72.5780 C   0  0  0  0  0  0  0  0  0  0  0  0
    8.9920   38.3170   73.2320 N   0  0  0  0  0  0  0  0  0  0  0  0
    7.9120   38.2840   72.2440 C   0  0  0  0  0  0  0  0  0  0  0  0
    8.9070   37.2670   74.2180 N   0  0  0  0  0  0  0  0  0  0  0  0
    8.9260   35.9190   73.7690 C   0  0  0  0  0  0  0  0  0  0  0  0
   10.1190   35.2410   73.3250 C   0  0  0  0  0  0  0  0  0  0  0  0
    9.9150   33.9120   73.0340 C   0  0  0  0  0  0  0  0  0  0  0  0
   10.9290   33.0070   72.6060 C   0  0  0  0  0  0  0  0  0  0  0  0
   11.7840   32.2440   72.2440 C   0  0  0  0  0  0  0  0  0  0  0  0
   12.8310   31.3040   71.7920 C   0  0  0  0  0  0  0  0  0  0  0  0
   14.0810   32.0930   71.3780 C   0  0  0  0  0  0  0  0  0  0  0  0
   12.3110   30.4990   70.5920 C   0  0  0  0  0  0  0  0  0  0  0  0
   13.1850   30.3460   72.9370 C   0  0  0  0  0  0  0  0  0  0  0  0
    8.2900   33.4650   73.2580 S   0  0  0  0  0  0  0  0  0  0  0  0
    7.8420   35.0600   73.6960 C   0  0  0  0  0  0  0  0  0  0  0  0
    6.3300   35.4490   73.8910 C   0  0  0  0  0  0  0  0  0  0  0  0
    5.7360   34.9690   74.9050 O   0  0  0  0  0  0  0  0  0  0  0  0
    5.8210   36.2090   73.0090 O   0  0  0  0  0  0  0  0  0  0  0  0
    8.2550   37.5500   75.4370 C   0  0  0  0  0  0  0  0  0  0  0  0
    7.2250   38.2390   75.5280 O   0  0  0  0  0  0  0  0  0  0  0  0
    8.8200   36.9890   76.7560 C   0  0  2  0  0  0  0  0  0  0  0  0
   10.3500   36.9180   76.7980 C   0  0  0  0  0  0  0  0  0  0  0  0
   10.8110   36.4290   78.1690 C   0  0  0  0  0  0  0  0  0  0  0  0
   10.2530   35.0380   78.5260 C   0  0  1  0  0  0  0  0  0  0  0  0
    9.8500   34.9860   80.0010 C   0  0  0  0  0  0  0  0  0  0  0  0
    9.0960   34.5950   77.6140 C   0  0  0  0  0  0  0  0  0  0  0  0
    8.1230   35.7230   77.2760 C   0  0  0  0  0  0  0  0  0  0  0  0
   11.0832   38.4953   73.3413 H   0  0  0  0  0  0  0  0  0  0  0  0
   10.4658   37.5412   71.9502 H   0  0  0  0  0  0  0  0  0  0  0  0
   10.3132   39.3310   71.9502 H   0  0  0  0  0  0  0  0  0  0  0  0
    6.9420   38.2544   72.7619 H   0  0  0  0  0  0  0  0  0  0  0  0
    7.9639   39.1841   71.6139 H   0  0  0  0  0  0  0  0  0  0  0  0
    8.0187   37.3887   71.6139 H   0  0  0  0  0  0  0  0  0  0  0  0
   11.0958   35.7376   73.2285 H   0  0  0  0  0  0  0  0  0  0  0  0
   14.6161   32.4308   72.2778 H   0  0  0  0  0  0  0  0  0  0  0  0
   14.7407   31.4473   70.7798 H   0  0  0  0  0  0  0  0  0  0  0  0
   13.7819   32.9663   70.7798 H   0  0  0  0  0  0  0  0  0  0  0  0
   11.7471   29.6261   70.9527 H   0  0  0  0  0  0  0  0  0  0  0  0
   11.6523   31.1345   69.9819 H   0  0  0  0  0  0  0  0  0  0  0  0
   13.1611   30.1598   69.9819 H   0  0  0  0  0  0  0  0  0  0  0  0
   13.0013   30.8430   73.9010 H   0  0  0  0  0  0  0  0  0  0  0  0
   12.5613   29.4428   72.8655 H   0  0  0  0  0  0  0  0  0  0  0  0
   14.2462   30.0654   72.8655 H   0  0  0  0  0  0  0  0  0  0  0  0
    8.5506   37.7554   77.4977 H   0  0  0  0  0  0  0  0  0  0  0  0
   10.7040   36.2208   76.0243 H   0  0  0  0  0  0  0  0  0  0  0  0
   10.7639   37.9203   76.6134 H   0  0  0  0  0  0  0  0  0  0  0  0
   11.9098   36.3783   78.1727 H   0  0  0  0  0  0  0  0  0  0  0  0
   10.4324   37.1397   78.9184 H   0  0  0  0  0  0  0  0  0  0  0  0
   11.0648   34.3162   78.3526 H   0  0  0  0  0  0  0  0  0  0  0  0
   10.7450   35.1015   80.6299 H   0  0  0  0  0  0  0  0  0  0  0  0
    9.1427   35.8003   80.2168 H   0  0  0  0  0  0  0  0  0  0  0  0
    9.3725   34.0188   80.2168 H   0  0  0  0  0  0  0  0  0  0  0  0
    9.5203   34.2079   76.6759 H   0  0  0  0  0  0  0  0  0  0  0  0
    8.5270   33.8287   78.1608 H   0  0  0  0  0  0  0  0  0  0  0  0
    7.4274   35.3645   76.5030 H   0  0  0  0  0  0  0  0  0  0  0  0
    7.6030   35.9953   78.2063 H   0  0  0  0  0  0  0  0  0  0  0  0
  1  2  1  0
  2  3  1  0
  2  4  1  0
  4  5  1  0
  5  6  1  0
  6  7  2  0
  7  8  1  0
  8  9  3  0
  9 10  1  0
 10 11  1  0
 10 12  1  0
 10 13  1  0
  7 14  1  0
 14 15  1  0
 15 16  1  0
 16 17  2  0
 16 18  1  0
  4 19  1  0
 19 20  2  0
 19 21  1  0
 21 22  1  0
 22 23  1  0
 23 24  1  0
 24 25  1  0
 24 26  1  0
 26 27  1  0
 15  5  2  0
 27 21  1  0
  1 28  1  0
  1 29  1  0
  1 30  1  0
  3 31  1  0
  3 32  1  0
  3 33  1  0
  6 34  1  0
 11 35  1  0
 11 36  1  0
 11 37  1  0
 12 38  1  0
 12 39  1  0
 12 40  1  0
 13 41  1  0
 13 42  1  0
 13 43  1  0
 21 44  1  6
 22 45  1  0
 22 46  1  0
 23 47  1  0
 23 48  1  0
 24 49  1  6
 25 50  1  0
 25 51  1  0
 25 52  1  0
 26 53  1  0
 26 54  1  0
 27 55  1  0
 27 56  1  0
M  CHG  1  18  -1
M  END
>  <meeko>  (4) 
{"is_sidechain": [false], "free_energy": -6.412, "intermolecular_energy": -8.957, "internal_energy": -0.504}

$$$$
4eo8_ligand
     RDKit          3D

 56 57  0  0  0  0  0  0  0  0999 V2000
    8.9420   34.7020   77.8780 C   0  0  0  0  0  0  0  0  0  0  0  0
    8.4760   35.8570   77.1140 N   0  0  0  0  0  0  0  0  0  0  0  0
    9.4760   36.9260   77.1210 C   0  0  0  0  0  0  0  0  0  0  0  0
    7.9750   35.5400   75.7990 N   0  0  0  0  0  0  0  0  0  0  0  0
    6.7160   34.8900   75.6970 C   0  0  0  0  0  0  0  0  0  0  0  0
    6.5310   33.5950   75.0870 C   0  0  0  0  0  0  0  0  0  0  0  0
    5.2450   33.1200   75.1940 C   0  0  0  0  0  0  0  0  0  0  0  0
    4.8000   31.8570   74.7070 C   0  0  0  0  0  0  0  0  0  0  0  0
    4.4250   30.7920   74.2960 C   0  0  0  0  0  0  0  0  0  0  0  0
    3.9720   29.4790   73.7900 C   0  0  0  0  0  0  0  0  0  0  0  0
    3.1760   28.7580   74.8870 C   0  0  0  0  0  0  0  0  0  0  0  0
    5.1930   28.6330   73.4000 C   0  0  0  0  0  0  0  0  0  0  0  0
    3.0780   29.6870   72.5610 C   0  0  0  0  0  0  0  0  0  0  0  0
    4.2340   34.2280   75.9950 S   0  0  0  0  0  0  0  0  0  0  0  0
    5.5010   35.3700   76.1580 C   0  0  0  0  0  0  0  0  0  0  0  0
    5.2180   36.8190   76.7010 C   0  0  0  0  0  0  0  0  0  0  0  0
    4.5460   36.9120   77.7740 O   0  0  0  0  0  0  0  0  0  0  0  0
    5.6790   37.7820   76.0150 O   0  0  0  0  0  0  0  0  0  0  0  0
    8.9110   35.3360   74.7620 C   0  0  0  0  0  0  0  0  0  0  0  0
    9.6770   34.3590   74.7020 O   0  0  0  0  0  0  0  0  0  0  0  0
    9.0210   36.3610   73.6170 C   0  0  2  0  0  0  0  0  0  0  0  0
   10.2460   37.2770   73.7160 C   0  0  0  0  0  0  0  0  0  0  0  0
   10.3080   38.1960   72.4990 C   0  0  0  0  0  0  0  0  0  0  0  0
    9.0560   39.0810   72.3530 C   0  0  1  0  0  0  0  0  0  0  0  0
    8.6450   39.1870   70.8830 C   0  0  0  0  0  0  0  0  0  0  0  0
    7.8800   38.6180   73.2310 C   0  0  0  0  0  0  0  0  0  0  0  0
    7.7180   37.0990   73.2780 C   0  0  0  0  0  0  0  0  0  0  0  0
    8.8560   34.9150   78.9537 H   0  0  0  0  0  0  0  0  0  0  0  0
    8.3275   33.8247   77.6277 H   0  0  0  0  0  0  0  0  0  0  0  0
    9.9933   34.4968   77.6277 H   0  0  0  0  0  0  0  0  0  0  0  0
    9.7231   37.1901   78.1598 H   0  0  0  0  0  0  0  0  0  0  0  0
   10.3841   36.5820   76.6042 H   0  0  0  0  0  0  0  0  0  0  0  0
    9.0723   37.8091   76.6042 H   0  0  0  0  0  0  0  0  0  0  0  0
    7.3393   33.0424   74.5858 H   0  0  0  0  0  0  0  0  0  0  0  0
    3.5351   29.0833   75.8745 H   0  0  0  0  0  0  0  0  0  0  0  0
    2.1083   29.0027   74.7862 H   0  0  0  0  0  0  0  0  0  0  0  0
    3.3142   27.6714   74.7862 H   0  0  0  0  0  0  0  0  0  0  0  0
    5.7010   28.2810   74.3100 H   0  0  0  0  0  0  0  0  0  0  0  0
    4.8648   27.7678   72.8053 H   0  0  0  0  0  0  0  0  0  0  0  0
    5.8878   29.2443   72.8053 H   0  0  0  0  0  0  0  0  0  0  0  0
    2.0550   29.9250   72.8878 H   0  0  0  0  0  0  0  0  0  0  0  0
    3.4725   30.5174   71.9569 H   0  0  0  0  0  0  0  0  0  0  0  0
    3.0654   28.7678   71.9569 H   0  0  0  0  0  0  0  0  0  0  0  0
    9.2037   35.7368   72.7298 H   0  0  0  0  0  0  0  0  0  0  0  0
   10.1732   37.8858   74.6293 H   0  0  0  0  0  0  0  0  0  0  0  0
   11.1566   36.6609   73.7510 H   0  0  0  0  0  0  0  0  0  0  0  0
   11.1892   38.8474   72.5954 H   0  0  0  0  0  0  0  0  0  0  0  0
   10.3674   37.5574   71.6053 H   0  0  0  0  0  0  0  0  0  0  0  0
    9.3289   40.0816   72.7196 H   0  0  0  0  0  0  0  0  0  0  0  0
    7.5817   39.4612   70.8184 H   0  0  0  0  0  0  0  0  0  0  0  0
    9.2532   39.9577   70.3869 H   0  0  0  0  0  0  0  0  0  0  0  0
    8.8046   38.2183   70.3869 H   0  0  0  0  0  0  0  0  0  0  0  0
    8.0452   38.9828   74.2555 H   0  0  0  0  0  0  0  0  0  0  0  0
    6.9616   39.0286   72.7861 H   0  0  0  0  0  0  0  0  0  0  0  0
    6.9670   36.8512   74.0426 H   0  0  0  0  0  0  0  0  0  0  0  0
    7.4095   36.7724   72.2739 H   0  0  0  0  0  0  0  0  0  0  0  0
  1  2  1  0
  2  3  1  0
  2  4  1  0
  4  5  1  0
  5  6  1  0
  6  7  2  0
  7  8  1  0
  8  9  3  0
  9 10  1  0
 10 11  1  0
 10 12  1  0
 10 13  1  0
  7 14  1  0
 14 15  1  0
 15 16  1  0
 16 17  2  0
 16 18  1  0
  4 19  1  0
 19 20  2  0
 19 21  1  0
 21 22  1  0
 22 23  1  0
 23 24  1  0
 24 25  1  0
 24 26  1  0
 26 27  1  0
 15  5  2  0
 27 21  1  0
  1 28  1  0
  1 29  1  0
  1 30  1  0
  3 31  1  0
  3 32  1  0
  3 33  1  0
  6 34  1  0
 11 35  1  0
 11 36  1  0
 11 37  1  0
 12 38  1  0
 12 39  1  0
 12 40  1  0
 13 41  1  0
 13 42  1  0
 13 43  1  0
 21 44  1  1
 22 45  1  0
 22 46  1  0
 23 47  1  0
 23 48  1  0
 24 49  1  6
 25 50  1  0
 25 51  1  0
 25 52  1  0
 26 53  1  0
 26 54  1  0
 27 55  1  0
 27 56  1  0
M  CHG  1  18  -1
M  END
>  <meeko>  (5) 
{"is_sidechain": [false], "free_energy": -6.382, "intermolecular_energy": -8.706, "internal_energy": -0.714}

$$$$
4eo8_ligand
     RDKit          3D

 56 57  0  0  0  0  0  0  0  0999 V2000
    6.9700   34.8800   76.8900 C   0  0  0  0  0  0  0  0  0  0  0  0
    7.8430   34.1790   75.9500 N   0  0  0  0  0  0  0  0  0  0  0  0
    8.3330   32.9260   76.5270 C   0  0  0  0  0  0  0  0  0  0  0  0
    7.2950   34.0320   74.6230 N   0  0  0  0  0  0  0  0  0  0  0  0
    7.7510   32.9500   73.8240 C   0  0  0  0  0  0  0  0  0  0  0  0
    9.0260   32.9370   73.1480 C   0  0  0  0  0  0  0  0  0  0  0  0
    9.2970   31.7450   72.5170 C   0  0  0  0  0  0  0  0  0  0  0  0
   10.4970   31.4560   71.8050 C   0  0  0  0  0  0  0  0  0  0  0  0
   11.5080   31.2120   71.2030 C   0  0  0  0  0  0  0  0  0  0  0  0
   12.7570   30.9170   70.4690 C   0  0  0  0  0  0  0  0  0  0  0  0
   13.2470   29.5110   70.8410 C   0  0  0  0  0  0  0  0  0  0  0  0
   13.8270   31.9510   70.8460 C   0  0  0  0  0  0  0  0  0  0  0  0
   12.4880   30.9840   68.9600 C   0  0  0  0  0  0  0  0  0  0  0  0
    8.0210   30.6370   72.6980 S   0  0  0  0  0  0  0  0  0  0  0  0
    7.0770   31.7660   73.5780 C   0  0  0  0  0  0  0  0  0  0  0  0
    5.5820   31.4500   73.9520 C   0  0  0  0  0  0  0  0  0  0  0  0
    5.0870   30.3740   73.4940 O   0  0  0  0  0  0  0  0  0  0  0  0
    4.9860   32.3040   74.6780 O   0  0  0  0  0  0  0  0  0  0  0  0
    6.8250   35.1890   73.9660 C   0  0  0  0  0  0  0  0  0  0  0  0
    5.6230   35.4850   73.8590 O   0  0  0  0  0  0  0  0  0  0  0  0
    7.8290   36.1700   73.3310 C   0  0  2  0  0  0  0  0  0  0  0  0
    9.0630   36.4470   74.1970 C   0  0  0  0  0  0  0  0  0  0  0  0
   10.0290   37.3610   73.4490 C   0  0  0  0  0  0  0  0  0  0  0  0
    9.3980   38.7120   73.0640 C   0  0  1  0  0  0  0  0  0  0  0  0
    9.8430   39.1300   71.6620 C   0  0  0  0  0  0  0  0  0  0  0  0
    7.8650   38.7240   73.1930 C   0  0  0  0  0  0  0  0  0  0  0  0
    7.2050   37.4310   72.7160 C   0  0  0  0  0  0  0  0  0  0  0  0
    7.2710   34.6383   77.9200 H   0  0  0  0  0  0  0  0  0  0  0  0
    7.0534   35.9649   76.7286 H   0  0  0  0  0  0  0  0  0  0  0  0
    5.9287   34.5643   76.7286 H   0  0  0  0  0  0  0  0  0  0  0  0
    8.3069   32.9929   77.6247 H   0  0  0  0  0  0  0  0  0  0  0  0
    7.6937   32.0947   76.1950 H   0  0  0  0  0  0  0  0  0  0  0  0
    9.3666   32.7489   76.1950 H   0  0  0  0  0  0  0  0  0  0  0  0
    9.7134   33.7957   73.1383 H   0  0  0  0  0  0  0  0  0  0  0  0
   13.2813   29.4125   71.9360 H   0  0  0  0  0  0  0  0  0  0  0  0
   12.5573   28.7608   70.4268 H   0  0  0  0  0  0  0  0  0  0  0  0
   14.2535   29.3520   70.4268 H   0  0  0  0  0  0  0  0  0  0  0  0
   13.8994   32.0210   71.9414 H   0  0  0  0  0  0  0  0  0  0  0  0
   14.7983   31.6406   70.4334 H   0  0  0  0  0  0  0  0  0  0  0  0
   13.5501   32.9324   70.4334 H   0  0  0  0  0  0  0  0  0  0  0  0
   11.4339   31.2465   68.7868 H   0  0  0  0  0  0  0  0  0  0  0  0
   13.1357   31.7483   68.5057 H   0  0  0  0  0  0  0  0  0  0  0  0
   12.7015   30.0052   68.5057 H   0  0  0  0  0  0  0  0  0  0  0  0
    8.2113   35.6181   72.4596 H   0  0  0  0  0  0  0  0  0  0  0  0
    8.7501   36.9344   75.1322 H   0  0  0  0  0  0  0  0  0  0  0  0
    9.5669   35.4958   74.4234 H   0  0  0  0  0  0  0  0  0  0  0  0
   10.9012   37.5513   74.0917 H   0  0  0  0  0  0  0  0  0  0  0  0
   10.3117   36.8506   72.5165 H   0  0  0  0  0  0  0  0  0  0  0  0
    9.7657   39.4532   73.7889 H   0  0  0  0  0  0  0  0  0  0  0  0
   10.6427   39.8812   71.7399 H   0  0  0  0  0  0  0  0  0  0  0  0
   10.2181   38.2501   71.1188 H   0  0  0  0  0  0  0  0  0  0  0  0
    8.9883   39.5594   71.1188 H   0  0  0  0  0  0  0  0  0  0  0  0
    7.6054   38.8782   74.2508 H   0  0  0  0  0  0  0  0  0  0  0  0
    7.4917   39.5350   72.5504 H   0  0  0  0  0  0  0  0  0  0  0  0
    6.1395   37.4617   72.9875 H   0  0  0  0  0  0  0  0  0  0  0  0
    7.3529   37.3711   71.6276 H   0  0  0  0  0  0  0  0  0  0  0  0
  1  2  1  0
  2  3  1  0
  2  4  1  0
  4  5  1  0
  5  6  1  0
  6  7  2  0
  7  8  1  0
  8  9  3  0
  9 10  1  0
 10 11  1  0
 10 12  1  0
 10 13  1  0
  7 14  1  0
 14 15  1  0
 15 16  1  0
 16 17  2  0
 16 18  1  0
  4 19  1  0
 19 20  2  0
 19 21  1  0
 21 22  1  0
 22 23  1  0
 23 24  1  0
 24 25  1  0
 24 26  1  0
 26 27  1  0
 15  5  2  0
 27 21  1  0
  1 28  1  0
  1 29  1  0
  1 30  1  0
  3 31  1  0
  3 32  1  0
  3 33  1  0
  6 34  1  0
 11 35  1  0
 11 36  1  0
 11 37  1  0
 12 38  1  0
 12 39  1  0
 12 40  1  0
 13 41  1  0
 13 42  1  0
 13 43  1  0
 21 44  1  1
 22 45  1  0
 22 46  1  0
 23 47  1  0
 23 48  1  0
 24 49  1  6
 25 50  1  0
 25 51  1  0
 25 52  1  0
 26 53  1  0
 26 54  1  0
 27 55  1  0
 27 56  1  0
M  CHG  1  18  -1
M  END
>  <meeko>  (6) 
{"is_sidechain": [false], "free_energy": -6.349, "intermolecular_energy": -9.105, "internal_energy": -0.269}

$$$$
4eo8_ligand
     RDKit          3D

 56 57  0  0  0  0  0  0  0  0999 V2000
    8.0650   31.0950   76.6430 C   0  0  0  0  0  0  0  0  0  0  0  0
    7.0190   31.9300   76.0570 N   0  0  0  0  0  0  0  0  0  0  0  0
    6.0330   32.3170   77.0670 C   0  0  0  0  0  0  0  0  0  0  0  0
    7.5090   33.0360   75.2710 N   0  0  0  0  0  0  0  0  0  0  0  0
    7.9980   32.7690   73.9640 C   0  0  0  0  0  0  0  0  0  0  0  0
    9.3830   32.4920   73.6700 C   0  0  0  0  0  0  0  0  0  0  0  0
    9.6060   32.1620   72.3530 C   0  0  0  0  0  0  0  0  0  0  0  0
   10.8740   31.8140   71.8040 C   0  0  0  0  0  0  0  0  0  0  0  0
   11.9430   31.5210   71.3410 C   0  0  0  0  0  0  0  0  0  0  0  0
   13.2560   31.1640   70.7640 C   0  0  0  0  0  0  0  0  0  0  0  0
   14.3440   32.0530   71.3820 C   0  0  0  0  0  0  0  0  0  0  0  0
   13.2200   31.3770   69.2430 C   0  0  0  0  0  0  0  0  0  0  0  0
   13.5630   29.6920   71.0680 C   0  0  0  0  0  0  0  0  0  0  0  0
    8.1690   32.2090   71.4450 S   0  0  0  0  0  0  0  0  0  0  0  0
    7.2510   32.7200   72.7990 C   0  0  0  0  0  0  0  0  0  0  0  0
    5.7480   33.1560   72.6370 C   0  0  0  0  0  0  0  0  0  0  0  0
    4.9400   32.2860   72.1880 O   0  0  0  0  0  0  0  0  0  0  0  0
    5.4650   34.3500   72.9620 O   0  0  0  0  0  0  0  0  0  0  0  0
    8.0220   34.1600   75.9530 C   0  0  0  0  0  0  0  0  0  0  0  0
    8.8830   34.0960   76.8460 O   0  0  0  0  0  0  0  0  0  0  0  0
    7.5120   35.5700   75.5960 C   0  0  2  0  0  0  0  0  0  0  0  0
    8.5140   36.6900   75.9000 C   0  0  0  0  0  0  0  0  0  0  0  0
    7.9510   38.0310   75.4380 C   0  0  0  0  0  0  0  0  0  0  0  0
    6.6130   38.3830   76.1150 C   0  0  1  0  0  0  0  0  0  0  0  0
    5.6550   39.0220   75.1080 C   0  0  0  0  0  0  0  0  0  0  0  0
    5.9600   37.1870   76.8280 C   0  0  0  0  0  0  0  0  0  0  0  0
    6.0780   35.8780   76.0500 C   0  0  0  0  0  0  0  0  0  0  0  0
    8.0024   31.1450   77.7401 H   0  0  0  0  0  0  0  0  0  0  0  0
    7.9297   30.0538   76.3150 H   0  0  0  0  0  0  0  0  0  0  0  0
    9.0504   31.4576   76.3150 H   0  0  0  0  0  0  0  0  0  0  0  0
    6.4522   32.1525   78.0706 H   0  0  0  0  0  0  0  0  0  0  0  0
    5.7810   33.3808   76.9448 H   0  0  0  0  0  0  0  0  0  0  0  0
    5.1247   31.7086   76.9448 H   0  0  0  0  0  0  0  0  0  0  0  0
   10.1821   32.5399   74.4245 H   0  0  0  0  0  0  0  0  0  0  0  0
   14.2806   32.0012   72.4789 H   0  0  0  0  0  0  0  0  0  0  0  0
   15.3339   31.7020   71.0550 H   0  0  0  0  0  0  0  0  0  0  0  0
   14.1973   33.0930   71.0550 H   0  0  0  0  0  0  0  0  0  0  0  0
   13.0403   32.4403   69.0258 H   0  0  0  0  0  0  0  0  0  0  0  0
   14.1825   31.0713   68.8071 H   0  0  0  0  0  0  0  0  0  0  0  0
   12.4114   30.7720   68.8071 H   0  0  0  0  0  0  0  0  0  0  0  0
   13.5944   29.5414   72.1572 H   0  0  0  0  0  0  0  0  0  0  0  0
   12.7781   29.0562   70.6324 H   0  0  0  0  0  0  0  0  0  0  0  0
   14.5366   29.4230   70.6324 H   0  0  0  0  0  0  0  0  0  0  0  0
    7.4358   35.5454   74.4989 H   0  0  0  0  0  0  0  0  0  0  0  0
    8.7018   36.7271   76.9832 H   0  0  0  0  0  0  0  0  0  0  0  0
    9.4544   36.4890   75.3659 H   0  0  0  0  0  0  0  0  0  0  0  0
    8.6818   38.8187   75.6736 H   0  0  0  0  0  0  0  0  0  0  0  0
    7.7649   37.9565   74.3564 H   0  0  0  0  0  0  0  0  0  0  0  0
    6.8397   39.1152   76.9040 H   0  0  0  0  0  0  0  0  0  0  0  0
    4.8574   39.5540   75.6473 H   0  0  0  0  0  0  0  0  0  0  0  0
    6.2077   39.7329   74.4763 H   0  0  0  0  0  0  0  0  0  0  0  0
    5.2110   38.2386   74.4763 H   0  0  0  0  0  0  0  0  0  0  0  0
    6.4463   37.0563   77.8060 H   0  0  0  0  0  0  0  0  0  0  0  0
    4.8875   37.4122   76.9234 H   0  0  0  0  0  0  0  0  0  0  0  0
    5.7313   35.0563   76.6940 H   0  0  0  0  0  0  0  0  0  0  0  0
    5.4636   35.9807   75.1434 H   0  0  0  0  0  0  0  0  0  0  0  0
  1  2  1  0
  2  3  1  0
  2  4  1  0
  4  5  1  0
  5  6  1  0
  6  7  2  0
  7  8  1  0
  8  9  3  0
  9 10  1  0
 10 11  1  0
 10 12  1  0
 10 13  1  0
  7 14  1  0
 14 15  1  0
 15 16  1  0
 16 17  2  0
 16 18  1  0
  4 19  1  0
 19 20  2  0
 19 21  1  0
 21 22  1  0
 22 23  1  0
 23 24  1  0
 24 25  1  0
 24 26  1  0
 26 27  1  0
 15  5  2  0
 27 21  1  0
  1 28  1  0
  1 29  1  0
  1 30  1  0
  3 31  1  0
  3 32  1  0
  3 33  1  0
  6 34  1  0
 11 35  1  0
 11 36  1  0
 11 37  1  0
 12 38  1  0
 12 39  1  0
 12 40  1  0
 13 41  1  0
 13 42  1  0
 13 43  1  0
 21 44  1  1
 22 45  1  0
 22 46  1  0
 23 47  1  0
 23 48  1  0
 24 49  1  6
 25 50  1  0
 25 51  1  0
 25 52  1  0
 26 53  1  0
 26 54  1  0
 27 55  1  0
 27 56  1  0
M  CHG  1  18  -1
M  END
>  <meeko>  (7) 
{"is_sidechain": [false], "free_energy": -6.084, "intermolecular_energy": -8.183, "internal_energy": -0.834}

$$$$
4eo8_ligand
     RDKit          3D

 56 57  0  0  0  0  0  0  0  0999 V2000
    5.7300   35.9010   74.3740 C   0  0  0  0  0  0  0  0  0  0  0  0
    6.9470   35.6310   73.6100 N   0  0  0  0  0  0  0  0  0  0  0  0
    7.6350   36.8770   73.2670 C   0  0  0  0  0  0  0  0  0  0  0  0
    7.8100   34.6340   74.1960 N   0  0  0  0  0  0  0  0  0  0  0  0
    8.3000   33.5940   73.3610 C   0  0  0  0  0  0  0  0  0  0  0  0
    9.6830   33.4680   72.9690 C   0  0  0  0  0  0  0  0  0  0  0  0
    9.9430   32.3290   72.2440 C   0  0  0  0  0  0  0  0  0  0  0  0
   11.2280   31.9460   71.7620 C   0  0  0  0  0  0  0  0  0  0  0  0
   12.3110   31.6240   71.3540 C   0  0  0  0  0  0  0  0  0  0  0  0
   13.6430   31.2190   70.8560 C   0  0  0  0  0  0  0  0  0  0  0  0
   13.6170   31.1600   69.3220 C   0  0  0  0  0  0  0  0  0  0  0  0
   13.9990   29.8340   71.4170 C   0  0  0  0  0  0  0  0  0  0  0  0
   14.6910   32.2420   71.3120 C   0  0  0  0  0  0  0  0  0  0  0  0
    8.5340   31.4100   71.9960 S   0  0  0  0  0  0  0  0  0  0  0  0
    7.5600   32.5590   72.8140 C   0  0  0  0  0  0  0  0  0  0  0  0
    5.9920   32.4300   72.8210 C   0  0  0  0  0  0  0  0  0  0  0  0
    5.4830   31.6330   73.6670 O   0  0  0  0  0  0  0  0  0  0  0  0
    5.3610   33.1300   71.9710 O   0  0  0  0  0  0  0  0  0  0  0  0
    7.6800   34.3700   75.5760 C   0  0  0  0  0  0  0  0  0  0  0  0
    7.1570   33.3420   76.0390 O   0  0  0  0  0  0  0  0  0  0  0  0
    8.2060   35.3910   76.6040 C   0  0  2  0  0  0  0  0  0  0  0  0
    9.6060   35.9270   76.2890 C   0  0  0  0  0  0  0  0  0  0  0  0
   10.0010   36.9860   77.3140 C   0  0  0  0  0  0  0  0  0  0  0  0
   10.0040   36.4480   78.7580 C   0  0  1  0  0  0  0  0  0  0  0  0
    9.4270   37.4910   79.7180 C   0  0  0  0  0  0  0  0  0  0  0  0
    9.2860   35.0960   78.9030 C   0  0  0  0  0  0  0  0  0  0  0  0
    8.0070   34.9950   78.0740 C   0  0  0  0  0  0  0  0  0  0  0  0
    5.9539   35.8513   75.4498 H   0  0  0  0  0  0  0  0  0  0  0  0
    5.3548   36.9042   74.1235 H   0  0  0  0  0  0  0  0  0  0  0  0
    4.9657   35.1506   74.1235 H   0  0  0  0  0  0  0  0  0  0  0  0
    7.9247   37.4017   74.1893 H   0  0  0  0  0  0  0  0  0  0  0  0
    8.5348   36.6486   72.6770 H   0  0  0  0  0  0  0  0  0  0  0  0
    6.9623   37.5168   72.6770 H   0  0  0  0  0  0  0  0  0  0  0  0
   10.4535   34.2102   73.2250 H   0  0  0  0  0  0  0  0  0  0  0  0
   13.1929   30.1977   68.9992 H   0  0  0  0  0  0  0  0  0  0  0  0
   12.9978   31.9822   68.9339 H   0  0  0  0  0  0  0  0  0  0  0  0
   14.6416   31.2578   68.9339 H   0  0  0  0  0  0  0  0  0  0  0  0
   13.9897   29.8702   72.5164 H   0  0  0  0  0  0  0  0  0  0  0  0
   13.2613   29.0964   71.0682 H   0  0  0  0  0  0  0  0  0  0  0  0
   15.0010   29.5436   71.0682 H   0  0  0  0  0  0  0  0  0  0  0  0
   14.7209   32.2712   72.4112 H   0  0  0  0  0  0  0  0  0  0  0  0
   15.6792   31.9515   70.9259 H   0  0  0  0  0  0  0  0  0  0  0  0
   14.4245   33.2369   70.9259 H   0  0  0  0  0  0  0  0  0  0  0  0
    7.5358   36.2538   76.4756 H   0  0  0  0  0  0  0  0  0  0  0  0
   10.3294   35.0991   76.3231 H   0  0  0  0  0  0  0  0  0  0  0  0
    9.6031   36.3782   75.2858 H   0  0  0  0  0  0  0  0  0  0  0  0
   11.0107   37.3496   77.0724 H   0  0  0  0  0  0  0  0  0  0  0  0
    9.2538   37.7916   77.2624 H   0  0  0  0  0  0  0  0  0  0  0  0
   11.0543   36.2601   79.0256 H   0  0  0  0  0  0  0  0  0  0  0  0
    9.6037   37.1717   80.7557 H   0  0  0  0  0  0  0  0  0  0  0  0
    9.9172   38.4603   79.5441 H   0  0  0  0  0  0  0  0  0  0  0  0
    8.3454   37.5907   79.5441 H   0  0  0  0  0  0  0  0  0  0  0  0
    9.9736   34.3000   78.5812 H   0  0  0  0  0  0  0  0  0  0  0  0
    8.9965   34.9943   79.9593 H   0  0  0  0  0  0  0  0  0  0  0  0
    7.6478   33.9559   78.1106 H   0  0  0  0  0  0  0  0  0  0  0  0
    7.2807   35.6988   78.5066 H   0  0  0  0  0  0  0  0  0  0  0  0
  1  2  1  0
  2  3  1  0
  2  4  1  0
  4  5  1  0
  5  6  1  0
  6  7  2  0
  7  8  1  0
  8  9  3  0
  9 10  1  0
 10 11  1  0
 10 12  1  0
 10 13  1  0
  7 14  1  0
 14 15  1  0
 15 16  1  0
 16 17  2  0
 16 18  1  0
  4 19  1  0
 19 20  2  0
 19 21  1  0
 21 22  1  0
 22 23  1  0
 23 24  1  0
 24 25  1  0
 24 26  1  0
 26 27  1  0
 15  5  2  0
 27 21  1  0
  1 28  1  0
  1 29  1  0
  1 30  1  0
  3 31  1  0
  3 32  1  0
  3 33  1  0
  6 34  1  0
 11 35  1  0
 11 36  1  0
 11 37  1  0
 12 38  1  0
 12 39  1  0
 12 40  1  0
 13 41  1  0
 13 42  1  0
 13 43  1  0
 21 44  1  6
 22 45  1  0
 22 46  1  0
 23 47  1  0
 23 48  1  0
 24 49  1  6
 25 50  1  0
 25 51  1  0
 25 52  1  0
 26 53  1  0
 26 54  1  0
 27 55  1  0
 27 56  1  0
M  CHG  1  18  -1
M  END
>  <meeko>  (8) 
{"is_sidechain": [false], "free_energy": -6.076, "intermolecular_energy": -8.069, "internal_energy": -0.937}

$$$$
4eo8_ligand
     RDKit          3D

 56 57  0  0  0  0  0  0  0  0999 V2000
    4.1750   37.2100   77.0710 C   0  0  0  0  0  0  0  0  0  0  0  0
    4.9860   36.0120   77.2790 N   0  0  0  0  0  0  0  0  0  0  0  0
    4.2640   34.8120   76.8570 C   0  0  0  0  0  0  0  0  0  0  0  0
    6.3250   36.0990   76.7490 N   0  0  0  0  0  0  0  0  0  0  0  0
    7.1150   34.9190   76.7180 C   0  0  0  0  0  0  0  0  0  0  0  0
    7.4050   34.1820   75.5120 C   0  0  0  0  0  0  0  0  0  0  0  0
    8.2710   33.1320   75.7080 C   0  0  0  0  0  0  0  0  0  0  0  0
    8.7460   32.2650   74.6820 C   0  0  0  0  0  0  0  0  0  0  0  0
    9.1460   31.5340   73.8170 C   0  0  0  0  0  0  0  0  0  0  0  0
    9.6300   30.6290   72.7530 C   0  0  0  0  0  0  0  0  0  0  0  0
    9.6480   31.3800   71.4140 C   0  0  0  0  0  0  0  0  0  0  0  0
    8.6950   29.4160   72.6490 C   0  0  0  0  0  0  0  0  0  0  0  0
   11.0500   30.1560   73.0930 C   0  0  0  0  0  0  0  0  0  0  0  0
    8.7250   32.9930   77.3410 S   0  0  0  0  0  0  0  0  0  0  0  0
    7.7240   34.3060   77.8010 C   0  0  0  0  0  0  0  0  0  0  0  0
    7.5020   34.6600   79.3180 C   0  0  0  0  0  0  0  0  0  0  0  0
    6.4470   34.2160   79.8650 O   0  0  0  0  0  0  0  0  0  0  0  0
    8.3960   35.3710   79.8710 O   0  0  0  0  0  0  0  0  0  0  0  0
    6.9930   37.3400   76.8290 C   0  0  0  0  0  0  0  0  0  0  0  0
    7.1630   37.9690   77.8870 O   0  0  0  0  0  0  0  0  0  0  0  0
    7.5610   37.9880   75.5510 C   0  0  2  0  0  0  0  0  0  0  0  0
    6.6230   37.9050   74.3420 C   0  0  0  0  0  0  0  0  0  0  0  0
    7.2380   38.6420   73.1550 C   0  0  0  0  0  0  0  0  0  0  0  0
    8.6090   38.0730   72.7430 C   0  0  1  0  0  0  0  0  0  0  0  0
    9.5700   39.2050   72.3760 C   0  0  0  0  0  0  0  0  0  0  0  0
    9.2220   37.1390   73.8010 C   0  0  0  0  0  0  0  0  0  0  0  0
    9.0200   37.6290   75.2330 C   0  0  0  0  0  0  0  0  0  0  0  0
    3.8888   37.6328   78.0454 H   0  0  0  0  0  0  0  0  0  0  0  0
    4.7567   37.9529   76.5055 H   0  0  0  0  0  0  0  0  0  0  0  0
    3.2692   36.9459   76.5055 H   0  0  0  0  0  0  0  0  0  0  0  0
    3.9287   34.2548   77.7442 H   0  0  0  0  0  0  0  0  0  0  0  0
    3.3905   35.1024   76.2547 H   0  0  0  0  0  0  0  0  0  0  0  0
    4.9297   34.1763   76.2547 H   0  0  0  0  0  0  0  0  0  0  0  0
    6.9753   34.4353   74.5316 H   0  0  0  0  0  0  0  0  0  0  0  0
    9.6740   32.4636   71.6017 H   0  0  0  0  0  0  0  0  0  0  0  0
   10.5393   31.0857   70.8405 H   0  0  0  0  0  0  0  0  0  0  0  0
    8.7436   31.1288   70.8405 H   0  0  0  0  0  0  0  0  0  0  0  0
    8.4288   29.0706   73.6589 H   0  0  0  0  0  0  0  0  0  0  0  0
    7.7818   29.7024   72.1068 H   0  0  0  0  0  0  0  0  0  0  0  0
    9.2045   28.6058   72.1068 H   0  0  0  0  0  0  0  0  0  0  0  0
   11.1713   30.1156   74.1856 H   0  0  0  0  0  0  0  0  0  0  0  0
   11.2144   29.1546   72.6686 H   0  0  0  0  0  0  0  0  0  0  0  0
   11.7821   30.8588   72.6686 H   0  0  0  0  0  0  0  0  0  0  0  0
    7.6072   39.0577   75.8030 H   0  0  0  0  0  0  0  0  0  0  0  0
    6.4657   36.8497   74.0743 H   0  0  0  0  0  0  0  0  0  0  0  0
    5.6602   38.3713   74.5982 H   0  0  0  0  0  0  0  0  0  0  0  0
    6.5526   38.5618   72.2984 H   0  0  0  0  0  0  0  0  0  0  0  0
    7.3918   39.6880   73.4588 H   0  0  0  0  0  0  0  0  0  0  0  0
    8.4390   37.4483   71.8537 H   0  0  0  0  0  0  0  0  0  0  0  0
    9.9614   39.6661   73.2948 H   0  0  0  0  0  0  0  0  0  0  0  0
   10.4045   38.8003   71.7846 H   0  0  0  0  0  0  0  0  0  0  0  0
    9.0352   39.9628   71.7846 H   0  0  0  0  0  0  0  0  0  0  0  0
    8.7559   36.1475   73.7028 H   0  0  0  0  0  0  0  0  0  0  0  0
   10.3063   37.1088   73.6182 H   0  0  0  0  0  0  0  0  0  0  0  0
    9.3427   36.8351   75.9227 H   0  0  0  0  0  0  0  0  0  0  0  0
    9.6149   38.5467   75.3508 H   0  0  0  0  0  0  0  0  0  0  0  0
  1  2  1  0
  2  3  1  0
  2  4  1  0
  4  5  1  0
  5  6  1  0
  6  7  2  0
  7  8  1  0
  8  9  3  0
  9 10  1  0
 10 11  1  0
 10 12  1  0
 10 13  1  0
  7 14  1  0
 14 15  1  0
 15 16  1  0
 16 17  2  0
 16 18  1  0
  4 19  1  0
 19 20  2  0
 19 21  1  0
 21 22  1  0
 22 23  1  0
 23 24  1  0
 24 25  1  0
 24 26  1  0
 26 27  1  0
 15  5  2  0
 27 21  1  0
  1 28  1  0
  1 29  1  0
  1 30  1  0
  3 31  1  0
  3 32  1  0
  3 33  1  0
  6 34  1  0
 11 35  1  0
 11 36  1  0
 11 37  1  0
 12 38  1  0
 12 39  1  0
 12 40  1  0
 13 41  1  0
 13 42  1  0
 13 43  1  0
 21 44  1  6
 22 45  1  0
 22 46  1  0
 23 47  1  0
 23 48  1  0
 24 49  1  1
 25 50  1  0
 25 51  1  0
 25 52  1  0
 26 53  1  0
 26 54  1  0
 27 55  1  0
 27 56  1  0
M  CHG  1  18  -1
M  END
>  <meeko>  (9) 
{"is_sidechain": [false], "free_energy": -5.962, "intermolecular_energy": -7.604, "internal_energy": -1.248}

$$$$
