2zcq_ligand
     RDKit          3D

 42 43  0  0  0  0  0  0  0  0999 V2000
   19.7540   55.2570   37.3420 O   0  0  0  0  0  0  0  0  0  0  0  0
   18.9130   54.1690   36.6920 P   0  0  1  0  0  5  0  0  0  0  0  0
   17.7100   54.5820   35.8820 O   0  0  0  0  0  0  0  0  0  0  0  0
   19.9210   53.3690   35.7010 O   0  0  0  0  0  0  0  0  0  0  0  0
   18.5430   52.9860   37.9920 C   0  0  1  0  0  0  0  0  0  0  0  0
   17.1900   53.1110   38.7060 C   0  0  0  0  0  0  0  0  0  0  0  0
   16.7850   54.4900   39.2380 C   0  0  0  0  0  0  0  0  0  0  0  0
   15.5350   55.0980   38.6000 C   0  0  0  0  0  0  0  0  0  0  0  0
   14.9390   56.1560   39.5040 C   0  0  0  0  0  0  0  0  0  0  0  0
   14.7180   55.9070   40.8660 C   0  0  0  0  0  0  0  0  0  0  0  0
   14.2350   56.9180   41.7000 C   0  0  0  0  0  0  0  0  0  0  0  0
   13.9860   58.1890   41.1840 C   0  0  0  0  0  0  0  0  0  0  0  0
   14.2220   58.4430   39.8310 C   0  0  0  0  0  0  0  0  0  0  0  0
   13.9560   59.6920   39.3190 O   0  0  0  0  0  0  0  0  0  0  0  0
   12.7230   59.8180   38.7150 C   0  0  0  0  0  0  0  0  0  0  0  0
   12.6250   59.4570   37.3700 C   0  0  0  0  0  0  0  0  0  0  0  0
   11.4100   59.5960   36.6970 C   0  0  0  0  0  0  0  0  0  0  0  0
   10.2980   60.1100   37.3660 C   0  0  0  0  0  0  0  0  0  0  0  0
   10.4040   60.4940   38.7040 C   0  0  0  0  0  0  0  0  0  0  0  0
   11.6180   60.3550   39.3780 C   0  0  0  0  0  0  0  0  0  0  0  0
   14.6680   57.4290   38.9870 C   0  0  0  0  0  0  0  0  0  0  0  0
   18.9700   51.3310   37.5360 S   0  0  0  0  0  0  0  0  0  0  0  0
   20.4350   51.2670   37.5570 O   0  0  0  0  0  0  0  0  0  0  0  0
   18.3620   51.0620   36.2370 O   0  0  0  0  0  0  0  0  0  0  0  0
   18.3610   50.5330   38.6110 O   0  0  0  0  0  0  0  0  0  0  0  0
   19.4090   52.6340   35.2670 H   0  0  0  0  0  0  0  0  0  0  0  0
   19.2229   53.2922   38.8007 H   0  0  0  0  0  0  0  0  0  0  0  0
   16.4135   52.7933   37.9946 H   0  0  0  0  0  0  0  0  0  0  0  0
   17.2944   52.4876   39.6063 H   0  0  0  0  0  0  0  0  0  0  0  0
   16.6032   54.3968   40.3189 H   0  0  0  0  0  0  0  0  0  0  0  0
   17.6141   55.1676   38.9860 H   0  0  0  0  0  0  0  0  0  0  0  0
   15.8062   55.5556   37.6372 H   0  0  0  0  0  0  0  0  0  0  0  0
   14.7915   54.3021   38.4458 H   0  0  0  0  0  0  0  0  0  0  0  0
   14.9262   54.9095   41.2802 H   0  0  0  0  0  0  0  0  0  0  0  0
   14.0510   56.7112   42.7646 H   0  0  0  0  0  0  0  0  0  0  0  0
   13.6059   58.9871   41.8386 H   0  0  0  0  0  0  0  0  0  0  0  0
   13.5051   59.0631   36.8406 H   0  0  0  0  0  0  0  0  0  0  0  0
   11.3289   59.3008   35.6405 H   0  0  0  0  0  0  0  0  0  0  0  0
    9.3380   60.2125   36.8389 H   0  0  0  0  0  0  0  0  0  0  0  0
    9.5292   60.9068   39.2278 H   0  0  0  0  0  0  0  0  0  0  0  0
   11.7041   60.6678   40.4291 H   0  0  0  0  0  0  0  0  0  0  0  0
   14.8074   57.6280   37.9142 H   0  0  0  0  0  0  0  0  0  0  0  0
  1  2  2  0
  2  3  1  6
  2  4  1  0
  2  5  1  0
  5  6  1  0
  6  7  1  0
  7  8  1  0
  8  9  1  0
  9 10  2  0
 10 11  1  0
 11 12  2  0
 12 13  1  0
 13 14  1  0
 14 15  1  0
 15 16  2  0
 16 17  1  0
 17 18  2  0
 18 19  1  0
 19 20  2  0
 13 21  2  0
  5 22  1  0
 22 23  2  0
 22 24  2  0
 22 25  1  0
 21  9  1  0
 20 15  1  0
  4 26  1  0
  5 27  1  1
  6 28  1  0
  6 29  1  0
  7 30  1  0
  7 31  1  0
  8 32  1  0
  8 33  1  0
 10 34  1  0
 11 35  1  0
 12 36  1  0
 16 37  1  0
 17 38  1  0
 18 39  1  0
 19 40  1  0
 20 41  1  0
 21 42  1  0
M  CHG  2   3  -1  25  -1
M  END
>  <meeko>  (1) 
{"is_sidechain": [false], "free_energy": -9.604, "intermolecular_energy": -14.377, "internal_energy": -1.232}

$$$$
2zcq_ligand
     RDKit          3D

 42 43  0  0  0  0  0  0  0  0999 V2000
   17.8340   51.0480   36.2500 O   0  0  0  0  0  0  0  0  0  0  0  0
   18.3410   51.2820   37.6640 P   0  0  1  0  0  5  0  0  0  0  0  0
   17.7220   50.4880   38.7870 O   0  0  0  0  0  0  0  0  0  0  0  0
   19.9250   50.9250   37.6260 O   0  0  0  0  0  0  0  0  0  0  0  0
   18.2970   53.0590   37.9190 C   0  0  1  0  0  0  0  0  0  0  0  0
   17.6380   53.5790   39.2040 C   0  0  0  0  0  0  0  0  0  0  0  0
   16.1110   53.7040   39.2260 C   0  0  0  0  0  0  0  0  0  0  0  0
   15.5360   54.8700   38.4210 C   0  0  0  0  0  0  0  0  0  0  0  0
   14.9610   55.9210   39.3470 C   0  0  0  0  0  0  0  0  0  0  0  0
   14.7160   55.6430   40.6990 C   0  0  0  0  0  0  0  0  0  0  0  0
   14.2540   56.6470   41.5540 C   0  0  0  0  0  0  0  0  0  0  0  0
   14.0500   57.9380   41.0690 C   0  0  0  0  0  0  0  0  0  0  0  0
   14.3100   58.2200   39.7260 C   0  0  0  0  0  0  0  0  0  0  0  0
   14.0880   59.4900   39.2440 O   0  0  0  0  0  0  0  0  0  0  0  0
   12.8100   59.7150   38.7790 C   0  0  0  0  0  0  0  0  0  0  0  0
   12.5450   59.3980   37.4460 C   0  0  0  0  0  0  0  0  0  0  0  0
   11.2780   59.6380   36.9100 C   0  0  0  0  0  0  0  0  0  0  0  0
   10.2820   60.2090   37.7050 C   0  0  0  0  0  0  0  0  0  0  0  0
   10.5560   60.5480   39.0310 C   0  0  0  0  0  0  0  0  0  0  0  0
   11.8210   60.3080   39.5680 C   0  0  0  0  0  0  0  0  0  0  0  0
   14.7350   57.2160   38.8610 C   0  0  0  0  0  0  0  0  0  0  0  0
   19.8400   53.8320   37.5340 S   0  0  0  0  0  0  0  0  0  0  0  0
   20.7790   53.4110   38.5790 O   0  0  0  0  0  0  0  0  0  0  0  0
   19.6050   55.2710   37.4640 O   0  0  0  0  0  0  0  0  0  0  0  0
   20.1710   53.2580   36.2220 O   0  0  0  0  0  0  0  0  0  0  0  0
   20.3320   51.2310   38.4820 H   0  0  0  0  0  0  0  0  0  0  0  0
   17.5637   53.3939   37.1706 H   0  0  0  0  0  0  0  0  0  0  0  0
   17.9226   52.8959   40.0178 H   0  0  0  0  0  0  0  0  0  0  0  0
   18.0011   54.6127   39.3017 H   0  0  0  0  0  0  0  0  0  0  0  0
   15.6885   52.7721   38.8223 H   0  0  0  0  0  0  0  0  0  0  0  0
   15.8380   53.8960   40.2742 H   0  0  0  0  0  0  0  0  0  0  0  0
   16.3356   55.3203   37.8144 H   0  0  0  0  0  0  0  0  0  0  0  0
   14.7338   54.4918   37.7703 H   0  0  0  0  0  0  0  0  0  0  0  0
   14.8884   54.6290   41.0889 H   0  0  0  0  0  0  0  0  0  0  0  0
   14.0511   56.4185   42.6107 H   0  0  0  0  0  0  0  0  0  0  0  0
   13.6864   58.7300   41.7402 H   0  0  0  0  0  0  0  0  0  0  0  0
   13.3340   58.9592   36.8176 H   0  0  0  0  0  0  0  0  0  0  0  0
   11.0648   59.3776   35.8628 H   0  0  0  0  0  0  0  0  0  0  0  0
    9.2814   60.3916   37.2862 H   0  0  0  0  0  0  0  0  0  0  0  0
    9.7730   61.0053   39.6537 H   0  0  0  0  0  0  0  0  0  0  0  0
   12.0393   60.5849   40.6100 H   0  0  0  0  0  0  0  0  0  0  0  0
   14.8936   57.4389   37.7956 H   0  0  0  0  0  0  0  0  0  0  0  0
  1  2  2  0
  2  3  1  1
  2  4  1  0
  2  5  1  0
  5  6  1  0
  6  7  1  0
  7  8  1  0
  8  9  1  0
  9 10  2  0
 10 11  1  0
 11 12  2  0
 12 13  1  0
 13 14  1  0
 14 15  1  0
 15 16  2  0
 16 17  1  0
 17 18  2  0
 18 19  1  0
 19 20  2  0
 13 21  2  0
  5 22  1  0
 22 23  2  0
 22 24  2  0
 22 25  1  0
 21  9  1  0
 20 15  1  0
  4 26  1  0
  5 27  1  6
  6 28  1  0
  6 29  1  0
  7 30  1  0
  7 31  1  0
  8 32  1  0
  8 33  1  0
 10 34  1  0
 11 35  1  0
 12 36  1  0
 16 37  1  0
 17 38  1  0
 18 39  1  0
 19 40  1  0
 20 41  1  0
 21 42  1  0
M  CHG  2   3  -1  25  -1
M  END
>  <meeko>  (2) 
{"is_sidechain": [false], "free_energy": -9.449, "intermolecular_energy": -14.174, "internal_energy": -1.202}

$$$$
2zcq_ligand
     RDKit          3D

 42 43  0  0  0  0  0  0  0  0999 V2000
   19.4510   54.2110   39.9700 O   0  0  0  0  0  0  0  0  0  0  0  0
   19.7920   54.2600   38.4890 P   0  0  1  0  0  5  0  0  0  0  0  0
   19.8180   55.6030   37.8040 O   0  0  0  0  0  0  0  0  0  0  0  0
   21.2760   53.6150   38.3600 O   0  0  0  0  0  0  0  0  0  0  0  0
   18.7190   53.0590   37.6940 C   0  0  1  0  0  0  0  0  0  0  0  0
   17.4340   53.5770   37.0330 C   0  0  0  0  0  0  0  0  0  0  0  0
   16.4110   54.2930   37.9210 C   0  0  0  0  0  0  0  0  0  0  0  0
   16.0320   55.7070   37.4770 C   0  0  0  0  0  0  0  0  0  0  0  0
   15.2520   56.4130   38.5650 C   0  0  0  0  0  0  0  0  0  0  0  0
   14.9690   55.7810   39.7840 C   0  0  0  0  0  0  0  0  0  0  0  0
   14.3110   56.4740   40.8040 C   0  0  0  0  0  0  0  0  0  0  0  0
   13.9460   57.8070   40.6190 C   0  0  0  0  0  0  0  0  0  0  0  0
   14.2420   58.4430   39.4110 C   0  0  0  0  0  0  0  0  0  0  0  0
   13.8630   59.7520   39.2230 O   0  0  0  0  0  0  0  0  0  0  0  0
   12.6450   59.9160   38.5970 C   0  0  0  0  0  0  0  0  0  0  0  0
   11.5850   60.3930   39.3680 C   0  0  0  0  0  0  0  0  0  0  0  0
   10.3200   60.5460   38.7960 C   0  0  0  0  0  0  0  0  0  0  0  0
   10.1150   60.2060   37.4590 C   0  0  0  0  0  0  0  0  0  0  0  0
   11.1710   59.7050   36.6950 C   0  0  0  0  0  0  0  0  0  0  0  0
   12.4360   59.5520   37.2650 C   0  0  0  0  0  0  0  0  0  0  0  0
   14.8650   57.7470   38.3780 C   0  0  0  0  0  0  0  0  0  0  0  0
   19.6220   51.9000   36.7090 S   0  0  0  0  0  0  0  0  0  0  0  0
   18.6180   51.1000   35.9980 O   0  0  0  0  0  0  0  0  0  0  0  0
   20.4880   51.1410   37.6050 O   0  0  0  0  0  0  0  0  0  0  0  0
   20.3850   52.7710   35.8020 O   0  0  0  0  0  0  0  0  0  0  0  0
   21.4610   53.4520   37.3950 H   0  0  0  0  0  0  0  0  0  0  0  0
   18.2948   52.5094   38.5473 H   0  0  0  0  0  0  0  0  0  0  0  0
   17.7328   54.2819   36.2432 H   0  0  0  0  0  0  0  0  0  0  0  0
   16.9150   52.6701   36.6893 H   0  0  0  0  0  0  0  0  0  0  0  0
   15.4939   53.6859   37.9394 H   0  0  0  0  0  0  0  0  0  0  0  0
   16.8887   54.4025   38.9058 H   0  0  0  0  0  0  0  0  0  0  0  0
   16.9481   56.2763   37.2608 H   0  0  0  0  0  0  0  0  0  0  0  0
   15.4050   55.6408   36.5756 H   0  0  0  0  0  0  0  0  0  0  0  0
   15.2666   54.7334   39.9387 H   0  0  0  0  0  0  0  0  0  0  0  0
   14.0810   55.9676   41.7530 H   0  0  0  0  0  0  0  0  0  0  0  0
   13.4278   58.3547   41.4199 H   0  0  0  0  0  0  0  0  0  0  0  0
   11.7452   60.6485   40.4258 H   0  0  0  0  0  0  0  0  0  0  0  0
    9.4862   60.9343   39.3994 H   0  0  0  0  0  0  0  0  0  0  0  0
    9.1206   60.3326   37.0060 H   0  0  0  0  0  0  0  0  0  0  0  0
   11.0058   59.4306   35.6427 H   0  0  0  0  0  0  0  0  0  0  0  0
   13.2653   59.1461   36.6671 H   0  0  0  0  0  0  0  0  0  0  0  0
   15.0534   58.2444   37.4151 H   0  0  0  0  0  0  0  0  0  0  0  0
  1  2  2  0
  2  3  1  6
  2  4  1  0
  2  5  1  0
  5  6  1  0
  6  7  1  0
  7  8  1  0
  8  9  1  0
  9 10  2  0
 10 11  1  0
 11 12  2  0
 12 13  1  0
 13 14  1  0
 14 15  1  0
 15 16  2  0
 16 17  1  0
 17 18  2  0
 18 19  1  0
 19 20  2  0
 13 21  2  0
  5 22  1  0
 22 23  2  0
 22 24  2  0
 22 25  1  0
 21  9  1  0
 20 15  1  0
  4 26  1  0
  5 27  1  1
  6 28  1  0
  6 29  1  0
  7 30  1  0
  7 31  1  0
  8 32  1  0
  8 33  1  0
 10 34  1  0
 11 35  1  0
 12 36  1  0
 16 37  1  0
 17 38  1  0
 18 39  1  0
 19 40  1  0
 20 41  1  0
 21 42  1  0
M  CHG  2   3  -1  25  -1
M  END
>  <meeko>  (3) 
{"is_sidechain": [false], "free_energy": -9.335, "intermolecular_energy": -14.036, "internal_energy": -1.171}

$$$$
2zcq_ligand
     RDKit          3D

 42 43  0  0  0  0  0  0  0  0999 V2000
   17.1270   53.9050   35.3690 O   0  0  0  0  0  0  0  0  0  0  0  0
   18.0800   53.1170   36.2530 P   0  0  1  0  0  5  0  0  0  0  0  0
   18.0000   51.6110   36.2270 O   0  0  0  0  0  0  0  0  0  0  0  0
   19.5730   53.5370   35.7720 O   0  0  0  0  0  0  0  0  0  0  0  0
   17.9310   53.8240   37.8960 C   0  0  1  0  0  0  0  0  0  0  0  0
   16.8630   53.2390   38.8310 C   0  0  0  0  0  0  0  0  0  0  0  0
   15.4210   53.7290   38.6650 C   0  0  0  0  0  0  0  0  0  0  0  0
   15.2660   55.1160   38.0390 C   0  0  0  0  0  0  0  0  0  0  0  0
   14.8030   56.1170   39.0750 C   0  0  0  0  0  0  0  0  0  0  0  0
   14.6900   55.7640   40.4270 C   0  0  0  0  0  0  0  0  0  0  0  0
   14.3310   56.7210   41.3800 C   0  0  0  0  0  0  0  0  0  0  0  0
   14.0990   58.0400   40.9910 C   0  0  0  0  0  0  0  0  0  0  0  0
   14.2280   58.3960   39.6470 C   0  0  0  0  0  0  0  0  0  0  0  0
   13.9780   59.6940   39.2620 O   0  0  0  0  0  0  0  0  0  0  0  0
   12.7540   59.8910   38.6590 C   0  0  0  0  0  0  0  0  0  0  0  0
   11.7180   60.3850   39.4530 C   0  0  0  0  0  0  0  0  0  0  0  0
   10.4470   60.5720   38.9050 C   0  0  0  0  0  0  0  0  0  0  0  0
   10.2110   60.2500   37.5670 C   0  0  0  0  0  0  0  0  0  0  0  0
   11.2430   59.7330   36.7810 C   0  0  0  0  0  0  0  0  0  0  0  0
   12.5130   59.5460   37.3270 C   0  0  0  0  0  0  0  0  0  0  0  0
   14.5490   57.4390   38.6880 C   0  0  0  0  0  0  0  0  0  0  0  0
   19.5040   54.0750   38.6650 S   0  0  0  0  0  0  0  0  0  0  0  0
   19.2390   54.2150   40.1010 O   0  0  0  0  0  0  0  0  0  0  0  0
   20.1190   55.2420   38.0380 O   0  0  0  0  0  0  0  0  0  0  0  0
   20.2220   52.8310   38.3490 O   0  0  0  0  0  0  0  0  0  0  0  0
   20.1000   52.7040   35.6330 H   0  0  0  0  0  0  0  0  0  0  0  0
   17.4979   54.8150   37.6950 H   0  0  0  0  0  0  0  0  0  0  0  0
   16.8582   52.1492   38.6820 H   0  0  0  0  0  0  0  0  0  0  0  0
   17.1572   53.5801   39.8345 H   0  0  0  0  0  0  0  0  0  0  0  0
   14.8890   53.0077   38.0272 H   0  0  0  0  0  0  0  0  0  0  0  0
   15.0095   53.8084   39.6820 H   0  0  0  0  0  0  0  0  0  0  0  0
   16.2351   55.4393   37.6312 H   0  0  0  0  0  0  0  0  0  0  0  0
   14.5155   55.0620   37.2366 H   0  0  0  0  0  0  0  0  0  0  0  0
   14.8851   54.7275   40.7396 H   0  0  0  0  0  0  0  0  0  0  0  0
   14.2314   56.4339   42.4372 H   0  0  0  0  0  0  0  0  0  0  0  0
   13.8160   58.7956   41.7387 H   0  0  0  0  0  0  0  0  0  0  0  0
   11.9024   60.6270   40.5101 H   0  0  0  0  0  0  0  0  0  0  0  0
    9.6328   60.9725   39.5268 H   0  0  0  0  0  0  0  0  0  0  0  0
    9.2123   60.4035   37.1321 H   0  0  0  0  0  0  0  0  0  0  0  0
   11.0541   59.4727   35.7291 H   0  0  0  0  0  0  0  0  0  0  0  0
   13.3224   59.1281   36.7104 H   0  0  0  0  0  0  0  0  0  0  0  0
   14.6031   57.7212   37.6262 H   0  0  0  0  0  0  0  0  0  0  0  0
  1  2  2  0
  2  3  1  1
  2  4  1  0
  2  5  1  0
  5  6  1  0
  6  7  1  0
  7  8  1  0
  8  9  1  0
  9 10  2  0
 10 11  1  0
 11 12  2  0
 12 13  1  0
 13 14  1  0
 14 15  1  0
 15 16  2  0
 16 17  1  0
 17 18  2  0
 18 19  1  0
 19 20  2  0
 13 21  2  0
  5 22  1  0
 22 23  2  0
 22 24  2  0
 22 25  1  0
 21  9  1  0
 20 15  1  0
  4 26  1  0
  5 27  1  6
  6 28  1  0
  6 29  1  0
  7 30  1  0
  7 31  1  0
  8 32  1  0
  8 33  1  0
 10 34  1  0
 11 35  1  0
 12 36  1  0
 16 37  1  0
 17 38  1  0
 18 39  1  0
 19 40  1  0
 20 41  1  0
 21 42  1  0
M  CHG  2   3  -1  25  -1
M  END
>  <meeko>  (4) 
{"is_sidechain": [false], "free_energy": -9.311, "intermolecular_energy": -13.92, "internal_energy": -1.25}

$$$$
2zcq_ligand
     RDKit          3D

 42 43  0  0  0  0  0  0  0  0999 V2000
   19.3090   54.1200   38.8580 O   0  0  0  0  0  0  0  0  0  0  0  0
   19.1520   53.2270   37.6370 P   0  0  1  0  0  5  0  0  0  0  0  0
   19.5280   53.7860   36.2880 O   0  0  0  0  0  0  0  0  0  0  0  0
   20.0970   51.9360   37.9140 O   0  0  0  0  0  0  0  0  0  0  0  0
   17.4810   52.5730   37.7130 C   0  0  1  0  0  0  0  0  0  0  0  0
   16.3770   53.3490   36.9820 C   0  0  0  0  0  0  0  0  0  0  0  0
   15.4870   54.2800   37.8110 C   0  0  0  0  0  0  0  0  0  0  0  0
   15.8920   55.7550   37.8030 C   0  0  0  0  0  0  0  0  0  0  0  0
   15.1570   56.5130   38.8880 C   0  0  0  0  0  0  0  0  0  0  0  0
   14.9260   55.9400   40.1460 C   0  0  0  0  0  0  0  0  0  0  0  0
   14.3100   56.6810   41.1580 C   0  0  0  0  0  0  0  0  0  0  0  0
   13.9370   58.0040   40.9260 C   0  0  0  0  0  0  0  0  0  0  0  0
   14.1820   58.5810   39.6790 C   0  0  0  0  0  0  0  0  0  0  0  0
   13.7940   59.8810   39.4450 O   0  0  0  0  0  0  0  0  0  0  0  0
   12.6000   60.0140   38.7690 C   0  0  0  0  0  0  0  0  0  0  0  0
   11.4880   60.4280   39.5040 C   0  0  0  0  0  0  0  0  0  0  0  0
   10.2450   60.5470   38.8800 C   0  0  0  0  0  0  0  0  0  0  0  0
   10.1130   60.2360   37.5250 C   0  0  0  0  0  0  0  0  0  0  0  0
   11.2210   59.7980   36.7980 C   0  0  0  0  0  0  0  0  0  0  0  0
   12.4640   59.6800   37.4200 C   0  0  0  0  0  0  0  0  0  0  0  0
   14.7620   57.8370   38.6540 C   0  0  0  0  0  0  0  0  0  0  0  0
   17.4310   50.8250   37.4500 S   0  0  0  0  0  0  0  0  0  0  0  0
   18.2310   50.5690   36.2480 O   0  0  0  0  0  0  0  0  0  0  0  0
   16.0270   50.4360   37.3480 O   0  0  0  0  0  0  0  0  0  0  0  0
   18.0670   50.2960   38.6660 O   0  0  0  0  0  0  0  0  0  0  0  0
   20.4430   51.9980   38.8450 H   0  0  0  0  0  0  0  0  0  0  0  0
   17.1946   52.7590   38.7587 H   0  0  0  0  0  0  0  0  0  0  0  0
   16.8641   53.9629   36.2101 H   0  0  0  0  0  0  0  0  0  0  0  0
   15.6930   52.5718   36.6103 H   0  0  0  0  0  0  0  0  0  0  0  0
   14.4619   54.2076   37.4186 H   0  0  0  0  0  0  0  0  0  0  0  0
   15.5864   53.9444   38.8538 H   0  0  0  0  0  0  0  0  0  0  0  0
   16.9753   55.8338   37.9768 H   0  0  0  0  0  0  0  0  0  0  0  0
   15.6317   56.1899   36.8267 H   0  0  0  0  0  0  0  0  0  0  0  0
   15.2314   54.9008   40.3379 H   0  0  0  0  0  0  0  0  0  0  0  0
   14.1193   56.2200   42.1384 H   0  0  0  0  0  0  0  0  0  0  0  0
   13.4524   58.5897   41.7210 H   0  0  0  0  0  0  0  0  0  0  0  0
   11.5911   60.6603   40.5742 H   0  0  0  0  0  0  0  0  0  0  0  0
    9.3704   60.8854   39.4550 H   0  0  0  0  0  0  0  0  0  0  0  0
    9.1355   60.3363   37.0305 H   0  0  0  0  0  0  0  0  0  0  0  0
   11.1139   59.5454   35.7328 H   0  0  0  0  0  0  0  0  0  0  0  0
   13.3347   59.3248   36.8493 H   0  0  0  0  0  0  0  0  0  0  0  0
   14.9098   58.2884   37.6618 H   0  0  0  0  0  0  0  0  0  0  0  0
  1  2  2  0
  2  3  1  6
  2  4  1  0
  2  5  1  0
  5  6  1  0
  6  7  1  0
  7  8  1  0
  8  9  1  0
  9 10  2  0
 10 11  1  0
 11 12  2  0
 12 13  1  0
 13 14  1  0
 14 15  1  0
 15 16  2  0
 16 17  1  0
 17 18  2  0
 18 19  1  0
 19 20  2  0
 13 21  2  0
  5 22  1  0
 22 23  2  0
 22 24  2  0
 22 25  1  0
 21  9  1  0
 20 15  1  0
  4 26  1  0
  5 27  1  1
  6 28  1  0
  6 29  1  0
  7 30  1  0
  7 31  1  0
  8 32  1  0
  8 33  1  0
 10 34  1  0
 11 35  1  0
 12 36  1  0
 16 37  1  0
 17 38  1  0
 18 39  1  0
 19 40  1  0
 20 41  1  0
 21 42  1  0
M  CHG  2   3  -1  25  -1
M  END
>  <meeko>  (5) 
{"is_sidechain": [false], "free_energy": -9.06, "intermolecular_energy": -13.678, "internal_energy": -1.116}

$$$$
2zcq_ligand
     RDKit          3D

 42 43  0  0  0  0  0  0  0  0999 V2000
   15.2320   50.4260   37.1940 O   0  0  0  0  0  0  0  0  0  0  0  0
   15.9930   51.2570   38.2160 P   0  0  1  0  0  5  0  0  0  0  0  0
   15.2020   52.0300   39.2420 O   0  0  0  0  0  0  0  0  0  0  0  0
   16.9410   50.2090   39.0150 O   0  0  0  0  0  0  0  0  0  0  0  0
   17.1440   52.2650   37.2760 C   0  0  1  0  0  0  0  0  0  0  0  0
   16.5810   53.4810   36.5270 C   0  0  0  0  0  0  0  0  0  0  0  0
   15.5510   54.3550   37.2510 C   0  0  0  0  0  0  0  0  0  0  0  0
   15.8420   55.8560   37.2430 C   0  0  0  0  0  0  0  0  0  0  0  0
   15.1950   56.5280   38.4350 C   0  0  0  0  0  0  0  0  0  0  0  0
   15.0850   55.8720   39.6680 C   0  0  0  0  0  0  0  0  0  0  0  0
   14.5510   56.5350   40.7760 C   0  0  0  0  0  0  0  0  0  0  0  0
   14.1380   57.8620   40.6630 C   0  0  0  0  0  0  0  0  0  0  0  0
   14.2620   58.5220   39.4390 C   0  0  0  0  0  0  0  0  0  0  0  0
   13.8340   59.8250   39.3240 O   0  0  0  0  0  0  0  0  0  0  0  0
   12.6020   59.9770   38.7260 C   0  0  0  0  0  0  0  0  0  0  0  0
   11.5360   60.3680   39.5380 C   0  0  0  0  0  0  0  0  0  0  0  0
   10.2580   60.5040   38.9940 C   0  0  0  0  0  0  0  0  0  0  0  0
   10.0440   60.2340   37.6410 C   0  0  0  0  0  0  0  0  0  0  0  0
   11.1060   59.8200   36.8350 C   0  0  0  0  0  0  0  0  0  0  0  0
   12.3850   59.6840   37.3780 C   0  0  0  0  0  0  0  0  0  0  0  0
   14.7600   57.8550   38.3220 C   0  0  0  0  0  0  0  0  0  0  0  0
   18.6350   52.5930   38.1690 S   0  0  0  0  0  0  0  0  0  0  0  0
   19.4920   51.4180   37.9760 O   0  0  0  0  0  0  0  0  0  0  0  0
   18.2660   52.8630   39.5550 O   0  0  0  0  0  0  0  0  0  0  0  0
   19.1620   53.7860   37.4910 O   0  0  0  0  0  0  0  0  0  0  0  0
   17.8780   50.5430   38.9700 H   0  0  0  0  0  0  0  0  0  0  0  0
   17.4022   51.6126   36.4288 H   0  0  0  0  0  0  0  0  0  0  0  0
   17.4319   54.1268   36.2643 H   0  0  0  0  0  0  0  0  0  0  0  0
   16.0298   53.0511   35.6777 H   0  0  0  0  0  0  0  0  0  0  0  0
   14.5741   54.1963   36.7709 H   0  0  0  0  0  0  0  0  0  0  0  0
   15.5807   54.0465   38.3064 H   0  0  0  0  0  0  0  0  0  0  0  0
   16.9298   56.0140   37.2847 H   0  0  0  0  0  0  0  0  0  0  0  0
   15.4303   56.2932   36.3214 H   0  0  0  0  0  0  0  0  0  0  0  0
   15.4209   54.8290   39.7644 H   0  0  0  0  0  0  0  0  0  0  0  0
   14.4564   56.0098   41.7379 H   0  0  0  0  0  0  0  0  0  0  0  0
   13.7167   58.3860   41.5336 H   0  0  0  0  0  0  0  0  0  0  0  0
   11.7033   60.5689   40.6065 H   0  0  0  0  0  0  0  0  0  0  0  0
    9.4199   60.8237   39.6307 H   0  0  0  0  0  0  0  0  0  0  0  0
    9.0383   60.3475   37.2100 H   0  0  0  0  0  0  0  0  0  0  0  0
   10.9349   59.6007   35.7708 H   0  0  0  0  0  0  0  0  0  0  0  0
   13.2196   59.3469   36.7456 H   0  0  0  0  0  0  0  0  0  0  0  0
   14.8117   58.3701   37.3514 H   0  0  0  0  0  0  0  0  0  0  0  0
  1  2  2  0
  2  3  1  1
  2  4  1  0
  2  5  1  0
  5  6  1  0
  6  7  1  0
  7  8  1  0
  8  9  1  0
  9 10  2  0
 10 11  1  0
 11 12  2  0
 12 13  1  0
 13 14  1  0
 14 15  1  0
 15 16  2  0
 16 17  1  0
 17 18  2  0
 18 19  1  0
 19 20  2  0
 13 21  2  0
  5 22  1  0
 22 23  2  0
 22 24  2  0
 22 25  1  0
 21  9  1  0
 20 15  1  0
  4 26  1  0
  5 27  1  6
  6 28  1  0
  6 29  1  0
  7 30  1  0
  7 31  1  0
  8 32  1  0
  8 33  1  0
 10 34  1  0
 11 35  1  0
 12 36  1  0
 16 37  1  0
 17 38  1  0
 18 39  1  0
 19 40  1  0
 20 41  1  0
 21 42  1  0
M  CHG  2   3  -1  25  -1
M  END
>  <meeko>  (6) 
{"is_sidechain": [false], "free_energy": -8.877, "intermolecular_energy": -13.602, "internal_energy": -0.918}

$$$$
2zcq_ligand
     RDKit          3D

 42 43  0  0  0  0  0  0  0  0999 V2000
   18.7680   51.2080   35.8180 O   0  0  0  0  0  0  0  0  0  0  0  0
   19.8240   51.9070   36.6600 P   0  0  1  0  0  5  0  0  0  0  0  0
   20.8200   51.0580   37.4090 O   0  0  0  0  0  0  0  0  0  0  0  0
   20.6570   52.8460   35.6290 O   0  0  0  0  0  0  0  0  0  0  0  0
   18.9380   53.0730   37.6990 C   0  0  1  0  0  0  0  0  0  0  0  0
   17.8530   52.5160   38.6320 C   0  0  0  0  0  0  0  0  0  0  0  0
   16.4130   52.9930   38.4200 C   0  0  0  0  0  0  0  0  0  0  0  0
   15.9790   53.1440   36.9620 C   0  0  0  0  0  0  0  0  0  0  0  0
   15.8150   54.6060   36.6060 C   0  0  0  0  0  0  0  0  0  0  0  0
   16.8660   55.3370   36.0350 C   0  0  0  0  0  0  0  0  0  0  0  0
   16.6740   56.6650   35.6460 C   0  0  0  0  0  0  0  0  0  0  0  0
   15.4260   57.2660   35.8100 C   0  0  0  0  0  0  0  0  0  0  0  0
   14.3740   56.5340   36.3630 C   0  0  0  0  0  0  0  0  0  0  0  0
   13.1500   57.1360   36.5430 O   0  0  0  0  0  0  0  0  0  0  0  0
   13.1250   58.1160   37.5120 C   0  0  0  0  0  0  0  0  0  0  0  0
   12.3210   59.2320   37.2770 C   0  0  0  0  0  0  0  0  0  0  0  0
   12.2830   60.2730   38.2080 C   0  0  0  0  0  0  0  0  0  0  0  0
   13.0630   60.2020   39.3640 C   0  0  0  0  0  0  0  0  0  0  0  0
   13.8850   59.0960   39.5850 C   0  0  0  0  0  0  0  0  0  0  0  0
   13.9230   58.0550   38.6560 C   0  0  0  0  0  0  0  0  0  0  0  0
   14.5700   55.2220   36.7860 C   0  0  0  0  0  0  0  0  0  0  0  0
   20.0160   54.2470   38.4640 S   0  0  0  0  0  0  0  0  0  0  0  0
   19.5210   54.4240   39.8330 O   0  0  0  0  0  0  0  0  0  0  0  0
   20.0020   55.4560   37.6460 O   0  0  0  0  0  0  0  0  0  0  0  0
   21.3180   53.5640   38.4250 O   0  0  0  0  0  0  0  0  0  0  0  0
   20.0070   53.4170   35.1360 H   0  0  0  0  0  0  0  0  0  0  0  0
   18.3158   53.6191   36.9747 H   0  0  0  0  0  0  0  0  0  0  0  0
   17.8555   51.4216   38.5210 H   0  0  0  0  0  0  0  0  0  0  0  0
   18.1252   52.8935   39.6287 H   0  0  0  0  0  0  0  0  0  0  0  0
   15.7409   52.2667   38.9004 H   0  0  0  0  0  0  0  0  0  0  0  0
   16.3607   54.0010   38.8572 H   0  0  0  0  0  0  0  0  0  0  0  0
   16.7423   52.6959   36.3089 H   0  0  0  0  0  0  0  0  0  0  0  0
   15.0143   52.6339   36.8235 H   0  0  0  0  0  0  0  0  0  0  0  0
   17.8479   54.8621   35.8923 H   0  0  0  0  0  0  0  0  0  0  0  0
   17.5068   57.2366   35.2105 H   0  0  0  0  0  0  0  0  0  0  0  0
   15.2716   58.3116   35.5051 H   0  0  0  0  0  0  0  0  0  0  0  0
   11.7175   59.2921   36.3593 H   0  0  0  0  0  0  0  0  0  0  0  0
   11.6395   61.1473   38.0306 H   0  0  0  0  0  0  0  0  0  0  0  0
   13.0296   61.0181   40.1008 H   0  0  0  0  0  0  0  0  0  0  0  0
   14.5040   59.0446   40.4929 H   0  0  0  0  0  0  0  0  0  0  0  0
   14.5799   57.1889   38.8247 H   0  0  0  0  0  0  0  0  0  0  0  0
   13.7467   54.6690   37.2618 H   0  0  0  0  0  0  0  0  0  0  0  0
  1  2  2  0
  2  3  1  1
  2  4  1  0
  2  5  1  0
  5  6  1  0
  6  7  1  0
  7  8  1  0
  8  9  1  0
  9 10  2  0
 10 11  1  0
 11 12  2  0
 12 13  1  0
 13 14  1  0
 14 15  1  0
 15 16  2  0
 16 17  1  0
 17 18  2  0
 18 19  1  0
 19 20  2  0
 13 21  2  0
  5 22  1  0
 22 23  2  0
 22 24  2  0
 22 25  1  0
 21  9  1  0
 20 15  1  0
  4 26  1  0
  5 27  1  6
  6 28  1  0
  6 29  1  0
  7 30  1  0
  7 31  1  0
  8 32  1  0
  8 33  1  0
 10 34  1  0
 11 35  1  0
 12 36  1  0
 16 37  1  0
 17 38  1  0
 18 39  1  0
 19 40  1  0
 20 41  1  0
 21 42  1  0
M  CHG  2   3  -1  25  -1
M  END
>  <meeko>  (7) 
{"is_sidechain": [false], "free_energy": -8.84, "intermolecular_energy": -13.622, "internal_energy": -0.844}

$$$$
2zcq_ligand
     RDKit          3D

 42 43  0  0  0  0  0  0  0  0999 V2000
   16.7500   49.9020   38.8590 O   0  0  0  0  0  0  0  0  0  0  0  0
   17.5580   51.1720   38.6430 P   0  0  1  0  0  5  0  0  0  0  0  0
   17.8430   52.0500   39.8360 O   0  0  0  0  0  0  0  0  0  0  0  0
   18.9850   50.6860   38.0400 O   0  0  0  0  0  0  0  0  0  0  0  0
   16.7720   52.0330   37.2780 C   0  0  1  0  0  0  0  0  0  0  0  0
   15.4790   52.8060   37.5710 C   0  0  0  0  0  0  0  0  0  0  0  0
   15.5480   53.9650   38.5710 C   0  0  0  0  0  0  0  0  0  0  0  0
   14.7350   53.7770   39.8520 C   0  0  0  0  0  0  0  0  0  0  0  0
   14.3320   55.1180   40.4270 C   0  0  0  0  0  0  0  0  0  0  0  0
   13.8440   55.2300   41.7360 C   0  0  0  0  0  0  0  0  0  0  0  0
   13.5460   56.4850   42.2740 C   0  0  0  0  0  0  0  0  0  0  0  0
   13.7480   57.6360   41.5140 C   0  0  0  0  0  0  0  0  0  0  0  0
   14.2500   57.5260   40.2160 C   0  0  0  0  0  0  0  0  0  0  0  0
   14.4300   58.6620   39.4590 O   0  0  0  0  0  0  0  0  0  0  0  0
   13.3150   59.0710   38.7580 C   0  0  0  0  0  0  0  0  0  0  0  0
   12.4590   59.9780   39.3840 C   0  0  0  0  0  0  0  0  0  0  0  0
   11.2970   60.4010   38.7350 C   0  0  0  0  0  0  0  0  0  0  0  0
   10.9850   59.9030   37.4690 C   0  0  0  0  0  0  0  0  0  0  0  0
   11.8310   58.9770   36.8550 C   0  0  0  0  0  0  0  0  0  0  0  0
   12.9930   58.5540   37.5010 C   0  0  0  0  0  0  0  0  0  0  0  0
   14.5140   56.2760   39.6610 C   0  0  0  0  0  0  0  0  0  0  0  0
   17.9360   52.9210   36.2850 S   0  0  0  0  0  0  0  0  0  0  0  0
   17.1480   53.8430   35.4590 O   0  0  0  0  0  0  0  0  0  0  0  0
   18.7150   51.9400   35.5360 O   0  0  0  0  0  0  0  0  0  0  0  0
   18.7460   53.6270   37.2890 O   0  0  0  0  0  0  0  0  0  0  0  0
   19.6570   51.3970   38.2220 H   0  0  0  0  0  0  0  0  0  0  0  0
   16.3751   51.2089   36.6670 H   0  0  0  0  0  0  0  0  0  0  0  0
   15.1200   53.2179   36.6163 H   0  0  0  0  0  0  0  0  0  0  0  0
   14.8184   52.0678   38.0492 H   0  0  0  0  0  0  0  0  0  0  0  0
   16.6013   54.1052   38.8554 H   0  0  0  0  0  0  0  0  0  0  0  0
   15.1083   54.8333   38.0584 H   0  0  0  0  0  0  0  0  0  0  0  0
   13.8302   53.1944   39.6241 H   0  0  0  0  0  0  0  0  0  0  0  0
   15.3531   53.2451   40.5903 H   0  0  0  0  0  0  0  0  0  0  0  0
   13.6947   54.3251   42.3433 H   0  0  0  0  0  0  0  0  0  0  0  0
   13.1518   56.5646   43.2978 H   0  0  0  0  0  0  0  0  0  0  0  0
   13.5133   58.6250   41.9345 H   0  0  0  0  0  0  0  0  0  0  0  0
   12.6992   60.3593   40.3874 H   0  0  0  0  0  0  0  0  0  0  0  0
   10.6280   61.1262   39.2213 H   0  0  0  0  0  0  0  0  0  0  0  0
   10.0727   60.2399   36.9549 H   0  0  0  0  0  0  0  0  0  0  0  0
   11.5807   58.5803   35.8600 H   0  0  0  0  0  0  0  0  0  0  0  0
   13.6533   57.8159   37.0221 H   0  0  0  0  0  0  0  0  0  0  0  0
   14.8653   56.1986   38.6215 H   0  0  0  0  0  0  0  0  0  0  0  0
  1  2  2  0
  2  3  1  1
  2  4  1  0
  2  5  1  0
  5  6  1  0
  6  7  1  0
  7  8  1  0
  8  9  1  0
  9 10  2  0
 10 11  1  0
 11 12  2  0
 12 13  1  0
 13 14  1  0
 14 15  1  0
 15 16  2  0
 16 17  1  0
 17 18  2  0
 18 19  1  0
 19 20  2  0
 13 21  2  0
  5 22  1  0
 22 23  2  0
 22 24  2  0
 22 25  1  0
 21  9  1  0
 20 15  1  0
  4 26  1  0
  5 27  1  6
  6 28  1  0
  6 29  1  0
  7 30  1  0
  7 31  1  0
  8 32  1  0
  8 33  1  0
 10 34  1  0
 11 35  1  0
 12 36  1  0
 16 37  1  0
 17 38  1  0
 18 39  1  0
 19 40  1  0
 20 41  1  0
 21 42  1  0
M  CHG  2   3  -1  25  -1
M  END
>  <meeko>  (8) 
{"is_sidechain": [false], "free_energy": -8.813, "intermolecular_energy": -13.276, "internal_energy": -1.149}

$$$$
2zcq_ligand
     RDKit          3D

 42 43  0  0  0  0  0  0  0  0999 V2000
   20.2600   52.7390   35.8220 O   0  0  0  0  0  0  0  0  0  0  0  0
   19.3560   51.9230   36.7320 P   0  0  1  0  0  5  0  0  0  0  0  0
   18.2840   51.0720   36.0990 O   0  0  0  0  0  0  0  0  0  0  0  0
   20.3430   50.9340   37.5590 O   0  0  0  0  0  0  0  0  0  0  0  0
   18.7390   53.0670   37.9710 C   0  0  1  0  0  0  0  0  0  0  0  0
   17.8760   52.4940   39.1040 C   0  0  0  0  0  0  0  0  0  0  0  0
   16.6700   51.6310   38.7200 C   0  0  0  0  0  0  0  0  0  0  0  0
   15.5520   52.3600   37.9740 C   0  0  0  0  0  0  0  0  0  0  0  0
   15.0780   53.5580   38.7680 C   0  0  0  0  0  0  0  0  0  0  0  0
   14.4790   53.4060   40.0260 C   0  0  0  0  0  0  0  0  0  0  0  0
   14.1140   54.5270   40.7760 C   0  0  0  0  0  0  0  0  0  0  0  0
   14.3600   55.8070   40.2810 C   0  0  0  0  0  0  0  0  0  0  0  0
   14.9730   55.9610   39.0360 C   0  0  0  0  0  0  0  0  0  0  0  0
   15.1970   57.2250   38.5410 O   0  0  0  0  0  0  0  0  0  0  0  0
   14.0820   58.0350   38.5020 C   0  0  0  0  0  0  0  0  0  0  0  0
   13.1470   57.7940   37.4940 C   0  0  0  0  0  0  0  0  0  0  0  0
   12.0160   58.6050   37.3840 C   0  0  0  0  0  0  0  0  0  0  0  0
   11.8290   59.6650   38.2720 C   0  0  0  0  0  0  0  0  0  0  0  0
   12.7780   59.9200   39.2640 C   0  0  0  0  0  0  0  0  0  0  0  0
   13.9080   59.1100   39.3760 C   0  0  0  0  0  0  0  0  0  0  0  0
   15.3050   54.8470   38.2680 C   0  0  0  0  0  0  0  0  0  0  0  0
   19.9790   54.2050   38.5120 S   0  0  0  0  0  0  0  0  0  0  0  0
   19.8430   55.3920   37.6620 O   0  0  0  0  0  0  0  0  0  0  0  0
   21.2690   53.5280   38.4190 O   0  0  0  0  0  0  0  0  0  0  0  0
   19.5900   54.4700   39.9060 O   0  0  0  0  0  0  0  0  0  0  0  0
   21.0140   51.4940   38.0360 H   0  0  0  0  0  0  0  0  0  0  0  0
   17.9825   53.6414   37.4163 H   0  0  0  0  0  0  0  0  0  0  0  0
   18.5322   51.8774   39.7359 H   0  0  0  0  0  0  0  0  0  0  0  0
   17.4388   53.3777   39.5917 H   0  0  0  0  0  0  0  0  0  0  0  0
   17.0289   50.8130   38.0781 H   0  0  0  0  0  0  0  0  0  0  0  0
   16.2286   51.2887   39.6676 H   0  0  0  0  0  0  0  0  0  0  0  0
   15.9293   52.6990   36.9979 H   0  0  0  0  0  0  0  0  0  0  0  0
   14.7077   51.6688   37.8351 H   0  0  0  0  0  0  0  0  0  0  0  0
   14.2951   52.3977   40.4254 H   0  0  0  0  0  0  0  0  0  0  0  0
   13.6326   54.3997   41.7569 H   0  0  0  0  0  0  0  0  0  0  0  0
   14.0725   56.6914   40.8685 H   0  0  0  0  0  0  0  0  0  0  0  0
   13.3012   56.9657   36.7868 H   0  0  0  0  0  0  0  0  0  0  0  0
   11.2725   58.4085   36.5975 H   0  0  0  0  0  0  0  0  0  0  0  0
   10.9342   60.2996   38.1906 H   0  0  0  0  0  0  0  0  0  0  0  0
   12.6342   60.7610   39.9583 H   0  0  0  0  0  0  0  0  0  0  0  0
   14.6604   59.3176   40.1511 H   0  0  0  0  0  0  0  0  0  0  0  0
   15.7455   54.9795   37.2688 H   0  0  0  0  0  0  0  0  0  0  0  0
  1  2  2  0
  2  3  1  6
  2  4  1  0
  2  5  1  0
  5  6  1  0
  6  7  1  0
  7  8  1  0
  8  9  1  0
  9 10  2  0
 10 11  1  0
 11 12  2  0
 12 13  1  0
 13 14  1  0
 14 15  1  0
 15 16  2  0
 16 17  1  0
 17 18  2  0
 18 19  1  0
 19 20  2  0
 13 21  2  0
  5 22  1  0
 22 23  2  0
 22 24  2  0
 22 25  1  0
 21  9  1  0
 20 15  1  0
  4 26  1  0
  5 27  1  6
  6 28  1  0
  6 29  1  0
  7 30  1  0
  7 31  1  0
  8 32  1  0
  8 33  1  0
 10 34  1  0
 11 35  1  0
 12 36  1  0
 16 37  1  0
 17 38  1  0
 18 39  1  0
 19 40  1  0
 20 41  1  0
 21 42  1  0
M  CHG  2   3  -1  25  -1
M  END
>  <meeko>  (9) 
{"is_sidechain": [false], "free_energy": -8.733, "intermolecular_energy": -13.354, "internal_energy": -0.951}

$$$$
