2y5h_ligand
     RDKit          3D

 60 64  0  0  0  0  0  0  0  0999 V2000
   -5.7600    8.4800   17.3850 C   0  0  0  0  0  0  0  0  0  0  0  0
   -6.0950    7.6350   18.6090 N   0  0  0  0  0  0  0  0  0  0  0  0
   -7.6040    7.4130   18.6810 C   0  0  0  0  0  0  0  0  0  0  0  0
   -5.4290    6.2600   18.4260 C   0  0  0  0  0  0  0  0  0  0  0  0
   -5.5440    8.2530   19.9060 C   0  0  0  0  0  0  0  0  0  0  0  0
   -4.4960    9.3460   19.6820 C   0  0  0  0  0  0  0  0  0  0  0  0
   -4.2760   10.1420   20.9750 C   0  0  0  0  0  0  0  0  0  0  0  0
   -3.1930   11.1070   20.8520 N   0  0  0  0  0  0  0  0  0  0  0  0
   -3.4000   12.4430   20.6580 C   0  0  0  0  0  0  0  0  0  0  0  0
   -4.4750   13.0020   20.5230 O   0  0  0  0  0  0  0  0  0  0  0  0
   -2.0670   13.1310   20.5820 C   0  0  2  0  0  0  0  0  0  0  0  0
   -1.0820   12.0840   21.0810 C   0  0  2  0  0  0  0  0  0  0  0  0
   -1.8770   10.8110   21.0680 C   0  0  0  0  0  0  0  0  0  0  0  0
   -1.3980    9.7110   21.2850 O   0  0  0  0  0  0  0  0  0  0  0  0
   -0.6380   12.5110   22.4760 C   0  0  2  0  0  0  0  0  0  0  0  0
   -1.4370   11.9440   23.6080 C   0  0  0  0  0  0  0  0  0  0  0  0
   -2.6210   12.3600   24.1660 C   0  0  0  0  0  0  0  0  0  0  0  0
   -2.9300   11.5020   25.1760 O   0  0  0  0  0  0  0  0  0  0  0  0
   -1.9050   10.5850   25.2000 C   0  0  0  0  0  0  0  0  0  0  0  0
   -1.8250    9.5210   26.1600 C   0  0  0  0  0  0  0  0  0  0  0  0
   -2.6200    9.3400   27.2780 C   0  0  0  0  0  0  0  0  0  0  0  0
   -2.2520    8.1780   28.0250 C   0  0  0  0  0  0  0  0  0  0  0  0
   -1.1910    7.5360   27.4440 C   0  0  0  0  0  0  0  0  0  0  0  0
   -0.4150    6.1140   28.0110 Cl  0  0  0  0  0  0  0  0  0  0  0  0
   -0.6390    8.2850   26.0320 S   0  0  0  0  0  0  0  0  0  0  0  0
   -0.9960   10.8140   24.2600 N   0  0  0  0  0  0  0  0  0  0  0  0
   -0.8220   14.0280   22.4510 N   0  0  1  0  0  0  0  0  0  0  0  0
    0.3680   14.8650   22.0450 C   0  0  0  0  0  0  0  0  0  0  0  0
   -0.0290   15.4720   20.7130 C   0  0  0  0  0  0  0  0  0  0  0  0
   -1.5360   15.6190   20.8190 C   0  0  0  0  0  0  0  0  0  0  0  0
   -1.9860   14.3360   21.5070 C   0  0  1  0  0  0  0  0  0  0  0  0
   -5.3726    9.4572   17.7090 H   0  0  0  0  0  0  0  0  0  0  0  0
   -4.9979    7.9652   16.7815 H   0  0  0  0  0  0  0  0  0  0  0  0
   -6.6678    8.6272   16.7815 H   0  0  0  0  0  0  0  0  0  0  0  0
   -7.9180    7.3668   19.7342 H   0  0  0  0  0  0  0  0  0  0  0  0
   -8.1213    8.2447   18.1803 H   0  0  0  0  0  0  0  0  0  0  0  0
   -7.8598    6.4676   18.1803 H   0  0  0  0  0  0  0  0  0  0  0  0
   -5.2165    5.8213   19.4121 H   0  0  0  0  0  0  0  0  0  0  0  0
   -6.1055    5.5963   17.8675 H   0  0  0  0  0  0  0  0  0  0  0  0
   -4.4889    6.3794   17.8675 H   0  0  0  0  0  0  0  0  0  0  0  0
   -6.3848    8.6900   20.4647 H   0  0  0  0  0  0  0  0  0  0  0  0
   -5.0438    7.4422   20.4559 H   0  0  0  0  0  0  0  0  0  0  0  0
   -3.5470    8.8821   19.3750 H   0  0  0  0  0  0  0  0  0  0  0  0
   -4.8517   10.0287   18.8963 H   0  0  0  0  0  0  0  0  0  0  0  0
   -5.2032   10.6803   21.2212 H   0  0  0  0  0  0  0  0  0  0  0  0
   -4.0032    9.4290   21.7669 H   0  0  0  0  0  0  0  0  0  0  0  0
   -1.8739   13.4967   19.5627 H   0  0  0  0  0  0  0  0  0  0  0  0
   -0.1667   11.9601   20.4836 H   0  0  0  0  0  0  0  0  0  0  0  0
    0.3838   12.1501   22.6652 H   0  0  0  0  0  0  0  0  0  0  0  0
   -3.2140   13.2317   23.8523 H   0  0  0  0  0  0  0  0  0  0  0  0
   -3.4422   10.0141   27.5601 H   0  0  0  0  0  0  0  0  0  0  0  0
   -2.7545    7.8438   28.9447 H   0  0  0  0  0  0  0  0  0  0  0  0
   -1.1110   14.3180   23.4000 H   0  0  0  0  0  0  0  0  0  0  0  0
    0.5611   15.6523   22.7886 H   0  0  0  0  0  0  0  0  0  0  0  0
    1.2915   14.2715   21.9747 H   0  0  0  0  0  0  0  0  0  0  0  0
    0.4514   16.4511   20.5694 H   0  0  0  0  0  0  0  0  0  0  0  0
    0.2798   14.8565   19.8552 H   0  0  0  0  0  0  0  0  0  0  0  0
   -1.8011   16.4996   21.4225 H   0  0  0  0  0  0  0  0  0  0  0  0
   -2.0163   15.7645   19.8402 H   0  0  0  0  0  0  0  0  0  0  0  0
   -2.9829   14.4865   21.9469 H   0  0  0  0  0  0  0  0  0  0  0  0
  1  2  1  0
  2  3  1  0
  2  4  1  0
  2  5  1  0
  5  6  1  0
  6  7  1  0
  7  8  1  0
  8  9  1  0
  9 10  2  0
  9 11  1  0
 11 12  1  0
 12 13  1  0
 13 14  2  0
 12 15  1  0
 15 16  1  0
 16 17  2  0
 17 18  1  0
 18 19  1  0
 19 20  1  0
 20 21  2  0
 21 22  1  0
 22 23  2  0
 23 24  1  0
 23 25  1  0
 19 26  2  0
 15 27  1  0
 27 28  1  0
 28 29  1  0
 29 30  1  0
 30 31  1  0
 13  8  1  0
 26 16  1  0
 31 27  1  0
 31 11  1  0
 25 20  1  0
  1 32  1  0
  1 33  1  0
  1 34  1  0
  3 35  1  0
  3 36  1  0
  3 37  1  0
  4 38  1  0
  4 39  1  0
  4 40  1  0
  5 41  1  0
  5 42  1  0
  6 43  1  0
  6 44  1  0
  7 45  1  0
  7 46  1  0
 11 47  1  6
 12 48  1  6
 15 49  1  1
 17 50  1  0
 21 51  1  0
 22 52  1  0
 27 53  1  1
 28 54  1  0
 28 55  1  0
 29 56  1  0
 29 57  1  0
 30 58  1  0
 30 59  1  0
 31 60  1  1
M  CHG  2   2   1  27   1
M  END
>  <meeko>  (1) 
{"is_sidechain": [false], "free_energy": -8.549, "intermolecular_energy": -11.547, "internal_energy": -0.628}

$$$$
2y5h_ligand
     RDKit          3D

 60 64  0  0  0  0  0  0  0  0999 V2000
   -5.4230    5.9180   18.2980 C   0  0  0  0  0  0  0  0  0  0  0  0
   -6.0520    7.3030   18.3960 N   0  0  0  0  0  0  0  0  0  0  0  0
   -5.8670    8.0450   17.0740 C   0  0  0  0  0  0  0  0  0  0  0  0
   -7.5630    7.1180   18.6200 C   0  0  0  0  0  0  0  0  0  0  0  0
   -5.4980    8.1060   19.5870 C   0  0  0  0  0  0  0  0  0  0  0  0
   -4.7320    9.3710   19.1870 C   0  0  0  0  0  0  0  0  0  0  0  0
   -3.9680    9.9310   20.3930 C   0  0  0  0  0  0  0  0  0  0  0  0
   -4.1670   11.3650   20.5540 N   0  0  0  0  0  0  0  0  0  0  0  0
   -5.1880   11.9010   21.2870 C   0  0  0  0  0  0  0  0  0  0  0  0
   -6.0740   11.2890   21.8580 O   0  0  0  0  0  0  0  0  0  0  0  0
   -5.0810   13.3980   21.2380 C   0  0  2  0  0  0  0  0  0  0  0  0
   -3.6930   13.6510   20.6640 C   0  0  2  0  0  0  0  0  0  0  0  0
   -3.2790   12.3110   20.1280 C   0  0  0  0  0  0  0  0  0  0  0  0
   -2.2680   12.1280   19.4720 O   0  0  0  0  0  0  0  0  0  0  0  0
   -2.8160   14.1460   21.8090 C   0  0  2  0  0  0  0  0  0  0  0  0
   -2.0530   13.0870   22.5420 C   0  0  0  0  0  0  0  0  0  0  0  0
   -0.8060   12.5600   22.3120 C   0  0  0  0  0  0  0  0  0  0  0  0
   -0.5700   11.6180   23.2660 O   0  0  0  0  0  0  0  0  0  0  0  0
   -1.7010   11.6010   24.0480 C   0  0  0  0  0  0  0  0  0  0  0  0
   -1.8790   10.7030   25.1540 C   0  0  0  0  0  0  0  0  0  0  0  0
   -2.8950   10.7240   26.0940 C   0  0  0  0  0  0  0  0  0  0  0  0
   -2.7540    9.6890   27.0690 C   0  0  0  0  0  0  0  0  0  0  0  0
   -1.6350    8.9360   26.8300 C   0  0  0  0  0  0  0  0  0  0  0  0
   -1.0730    7.6060   27.7570 Cl  0  0  0  0  0  0  0  0  0  0  0  0
   -0.7650    9.4340   25.4680 S   0  0  0  0  0  0  0  0  0  0  0  0
   -2.6080   12.4840   23.6490 N   0  0  0  0  0  0  0  0  0  0  0  0
   -3.8210   14.7830   22.7680 N   0  0  1  0  0  0  0  0  0  0  0  0
   -4.0880   16.2630   22.6110 C   0  0  0  0  0  0  0  0  0  0  0  0
   -5.5230   16.3420   22.1250 C   0  0  0  0  0  0  0  0  0  0  0  0
   -6.1840   15.1300   22.7570 C   0  0  0  0  0  0  0  0  0  0  0  0
   -5.1430   14.0270   22.6210 C   0  0  1  0  0  0  0  0  0  0  0  0
   -5.2441    5.5241   19.3094 H   0  0  0  0  0  0  0  0  0  0  0  0
   -6.1032    5.2438   17.7570 H   0  0  0  0  0  0  0  0  0  0  0  0
   -4.4677    5.9866   17.7570 H   0  0  0  0  0  0  0  0  0  0  0  0
   -5.6054    9.0942   17.2759 H   0  0  0  0  0  0  0  0  0  0  0  0
   -5.0597    7.5703   16.4970 H   0  0  0  0  0  0  0  0  0  0  0  0
   -6.8026    8.0049   16.4970 H   0  0  0  0  0  0  0  0  0  0  0  0
   -7.7732    7.0923   19.6994 H   0  0  0  0  0  0  0  0  0  0  0  0
   -8.1072    7.9562   18.1604 H   0  0  0  0  0  0  0  0  0  0  0  0
   -7.8889    6.1733   18.1604 H   0  0  0  0  0  0  0  0  0  0  0  0
   -6.3425    8.4015   20.2270 H   0  0  0  0  0  0  0  0  0  0  0  0
   -4.7810    7.4516   20.1044 H   0  0  0  0  0  0  0  0  0  0  0  0
   -4.0183    9.1258   18.3867 H   0  0  0  0  0  0  0  0  0  0  0  0
   -5.4480   10.1273   18.8329 H   0  0  0  0  0  0  0  0  0  0  0  0
   -4.3184    9.4206   21.3022 H   0  0  0  0  0  0  0  0  0  0  0  0
   -2.8953    9.7563   20.2235 H   0  0  0  0  0  0  0  0  0  0  0  0
   -5.9072   13.8292   20.6536 H   0  0  0  0  0  0  0  0  0  0  0  0
   -3.6307   14.4084   19.8687 H   0  0  0  0  0  0  0  0  0  0  0  0
   -2.0344   14.8110   21.4131 H   0  0  0  0  0  0  0  0  0  0  0  0
   -0.1202   12.8477   21.5015 H   0  0  0  0  0  0  0  0  0  0  0  0
   -3.7174   11.4545   26.0907 H   0  0  0  0  0  0  0  0  0  0  0  0
   -3.4522    9.5193   27.9019 H   0  0  0  0  0  0  0  0  0  0  0  0
   -3.4770   14.6180   23.7290 H   0  0  0  0  0  0  0  0  0  0  0  0
   -3.9747   16.7826   23.5739 H   0  0  0  0  0  0  0  0  0  0  0  0
   -3.3842   16.7429   21.9151 H   0  0  0  0  0  0  0  0  0  0  0  0
   -6.0018   17.2720   22.4653 H   0  0  0  0  0  0  0  0  0  0  0  0
   -5.6019   16.3471   21.0278 H   0  0  0  0  0  0  0  0  0  0  0  0
   -6.4165   15.3193   23.8153 H   0  0  0  0  0  0  0  0  0  0  0  0
   -7.1391   14.8711   22.2766 H   0  0  0  0  0  0  0  0  0  0  0  0
   -5.3632   13.2258   23.3419 H   0  0  0  0  0  0  0  0  0  0  0  0
  1  2  1  0
  2  3  1  0
  2  4  1  0
  2  5  1  0
  5  6  1  0
  6  7  1  0
  7  8  1  0
  8  9  1  0
  9 10  2  0
  9 11  1  0
 11 12  1  0
 12 13  1  0
 13 14  2  0
 12 15  1  0
 15 16  1  0
 16 17  2  0
 17 18  1  0
 18 19  1  0
 19 20  1  0
 20 21  2  0
 21 22  1  0
 22 23  2  0
 23 24  1  0
 23 25  1  0
 19 26  2  0
 15 27  1  0
 27 28  1  0
 28 29  1  0
 29 30  1  0
 30 31  1  0
 13  8  1  0
 26 16  1  0
 31 27  1  0
 31 11  1  0
 25 20  1  0
  1 32  1  0
  1 33  1  0
  1 34  1  0
  3 35  1  0
  3 36  1  0
  3 37  1  0
  4 38  1  0
  4 39  1  0
  4 40  1  0
  5 41  1  0
  5 42  1  0
  6 43  1  0
  6 44  1  0
  7 45  1  0
  7 46  1  0
 11 47  1  6
 12 48  1  6
 15 49  1  6
 17 50  1  0
 21 51  1  0
 22 52  1  0
 27 53  1  1
 28 54  1  0
 28 55  1  0
 29 56  1  0
 29 57  1  0
 30 58  1  0
 30 59  1  0
 31 60  1  1
M  CHG  2   2   1  27   1
M  END
>  <meeko>  (2) 
{"is_sidechain": [false], "free_energy": -7.905, "intermolecular_energy": -10.709, "internal_energy": -0.597}

$$$$
2y5h_ligand
     RDKit          3D

 60 64  0  0  0  0  0  0  0  0999 V2000
   -7.6530   17.2850   25.4220 C   0  0  0  0  0  0  0  0  0  0  0  0
   -6.9160   16.0420   24.9340 N   0  0  0  0  0  0  0  0  0  0  0  0
   -5.6030   15.8920   25.6990 C   0  0  0  0  0  0  0  0  0  0  0  0
   -7.7900   14.8190   25.2610 C   0  0  0  0  0  0  0  0  0  0  0  0
   -6.6930   16.0650   23.4110 C   0  0  0  0  0  0  0  0  0  0  0  0
   -5.2740   15.6830   22.9810 C   0  0  0  0  0  0  0  0  0  0  0  0
   -5.2230   14.2050   22.5760 C   0  0  0  0  0  0  0  0  0  0  0  0
   -4.1240   13.4950   23.2160 N   0  0  0  0  0  0  0  0  0  0  0  0
   -4.2990   12.6280   24.2560 C   0  0  0  0  0  0  0  0  0  0  0  0
   -5.3510   12.3580   24.8110 O   0  0  0  0  0  0  0  0  0  0  0  0
   -2.9600   12.0810   24.6580 C   0  0  2  0  0  0  0  0  0  0  0  0
   -2.0370   12.4860   23.5170 C   0  0  2  0  0  0  0  0  0  0  0  0
   -2.8390   13.5000   22.7530 C   0  0  0  0  0  0  0  0  0  0  0  0
   -2.3930   14.1580   21.8280 O   0  0  0  0  0  0  0  0  0  0  0  0
   -1.7300   11.2250   22.7160 C   0  0  2  0  0  0  0  0  0  0  0  0
   -2.6420   10.9560   21.5600 C   0  0  0  0  0  0  0  0  0  0  0  0
   -2.7260   11.5550   20.3260 C   0  0  0  0  0  0  0  0  0  0  0  0
   -3.7260   10.9440   19.6340 O   0  0  0  0  0  0  0  0  0  0  0  0
   -4.2250    9.9860   20.4860 C   0  0  0  0  0  0  0  0  0  0  0  0
   -5.3340    9.1380   20.1520 C   0  0  0  0  0  0  0  0  0  0  0  0
   -6.6210    9.2050   20.6580 C   0  0  0  0  0  0  0  0  0  0  0  0
   -7.4720    8.1920   20.1150 C   0  0  0  0  0  0  0  0  0  0  0  0
   -6.7900    7.3990   19.2300 C   0  0  0  0  0  0  0  0  0  0  0  0
   -7.4130    6.0570   18.3610 Cl  0  0  0  0  0  0  0  0  0  0  0  0
   -5.1710    7.8470   19.0320 S   0  0  0  0  0  0  0  0  0  0  0  0
   -3.5860    9.9570   21.6490 N   0  0  0  0  0  0  0  0  0  0  0  0
   -1.8980   10.1090   23.7470 N   0  0  1  0  0  0  0  0  0  0  0  0
   -0.6650    9.6740   24.5060 C   0  0  0  0  0  0  0  0  0  0  0  0
   -0.9240   10.1130   25.9350 C   0  0  0  0  0  0  0  0  0  0  0  0
   -2.4320   10.0200   26.0730 C   0  0  0  0  0  0  0  0  0  0  0  0
   -2.9590   10.5630   24.7510 C   0  0  1  0  0  0  0  0  0  0  0  0
   -7.6609   17.2984   26.5219 H   0  0  0  0  0  0  0  0  0  0  0  0
   -7.1422   18.1846   25.0480 H   0  0  0  0  0  0  0  0  0  0  0  0
   -8.6873   17.2685   25.0480 H   0  0  0  0  0  0  0  0  0  0  0  0
   -5.8039   15.9150   26.7802 H   0  0  0  0  0  0  0  0  0  0  0  0
   -5.1316   14.9342   25.4339 H   0  0  0  0  0  0  0  0  0  0  0  0
   -4.9277   16.7188   25.4339 H   0  0  0  0  0  0  0  0  0  0  0  0
   -7.8701   14.7069   26.3523 H   0  0  0  0  0  0  0  0  0  0  0  0
   -8.7931   14.9600   24.8322 H   0  0  0  0  0  0  0  0  0  0  0  0
   -7.3317   13.9156   24.8322 H   0  0  0  0  0  0  0  0  0  0  0  0
   -7.3965   15.3573   22.9482 H   0  0  0  0  0  0  0  0  0  0  0  0
   -6.8556   17.1021   23.0823 H   0  0  0  0  0  0  0  0  0  0  0  0
   -4.9740   16.3049   22.1247 H   0  0  0  0  0  0  0  0  0  0  0  0
   -4.5869   15.8480   23.8240 H   0  0  0  0  0  0  0  0  0  0  0  0
   -6.1700   13.7259   22.8652 H   0  0  0  0  0  0  0  0  0  0  0  0
   -5.0658   14.1590   21.4883 H   0  0  0  0  0  0  0  0  0  0  0  0
   -2.6651   12.4614   25.6471 H   0  0  0  0  0  0  0  0  0  0  0  0
   -1.0683   12.9168   23.8105 H   0  0  0  0  0  0  0  0  0  0  0  0
   -0.7356   11.3146   22.2543 H   0  0  0  0  0  0  0  0  0  0  0  0
   -2.0971   12.3810   19.9624 H   0  0  0  0  0  0  0  0  0  0  0  0
   -6.9515    9.9526   21.3942 H   0  0  0  0  0  0  0  0  0  0  0  0
   -8.5337    8.0661   20.3737 H   0  0  0  0  0  0  0  0  0  0  0  0
   -2.2770    9.2850   23.2500 H   0  0  0  0  0  0  0  0  0  0  0  0
   -0.5396    8.5825   24.4512 H   0  0  0  0  0  0  0  0  0  0  0  0
    0.2560   10.1123   24.0942 H   0  0  0  0  0  0  0  0  0  0  0  0
   -0.4229    9.4421   26.6482 H   0  0  0  0  0  0  0  0  0  0  0  0
   -0.5382   11.1210   26.1475 H   0  0  0  0  0  0  0  0  0  0  0  0
   -2.7472    8.9765   26.2202 H   0  0  0  0  0  0  0  0  0  0  0  0
   -2.8122   10.5786   26.9410 H   0  0  0  0  0  0  0  0  0  0  0  0
   -3.9933   10.2197   24.6013 H   0  0  0  0  0  0  0  0  0  0  0  0
  1  2  1  0
  2  3  1  0
  2  4  1  0
  2  5  1  0
  5  6  1  0
  6  7  1  0
  7  8  1  0
  8  9  1  0
  9 10  2  0
  9 11  1  0
 11 12  1  0
 12 13  1  0
 13 14  2  0
 12 15  1  0
 15 16  1  0
 16 17  2  0
 17 18  1  0
 18 19  1  0
 19 20  1  0
 20 21  2  0
 21 22  1  0
 22 23  2  0
 23 24  1  0
 23 25  1  0
 19 26  2  0
 15 27  1  0
 27 28  1  0
 28 29  1  0
 29 30  1  0
 30 31  1  0
 13  8  1  0
 26 16  1  0
 31 27  1  0
 31 11  1  0
 25 20  1  0
  1 32  1  0
  1 33  1  0
  1 34  1  0
  3 35  1  0
  3 36  1  0
  3 37  1  0
  4 38  1  0
  4 39  1  0
  4 40  1  0
  5 41  1  0
  5 42  1  0
  6 43  1  0
  6 44  1  0
  7 45  1  0
  7 46  1  0
 11 47  1  1
 12 48  1  1
 15 49  1  6
 17 50  1  0
 21 51  1  0
 22 52  1  0
 27 53  1  6
 28 54  1  0
 28 55  1  0
 29 56  1  0
 29 57  1  0
 30 58  1  0
 30 59  1  0
 31 60  1  6
M  CHG  2   2   1  27   1
M  END
>  <meeko>  (3) 
{"is_sidechain": [false], "free_energy": -7.593, "intermolecular_energy": -10.341, "internal_energy": -0.543}

$$$$
2y5h_ligand
     RDKit          3D

 60 64  0  0  0  0  0  0  0  0999 V2000
   -8.9860   12.1580   20.3970 C   0  0  0  0  0  0  0  0  0  0  0  0
   -8.6650   12.9100   21.6840 N   0  0  0  0  0  0  0  0  0  0  0  0
   -9.8870   13.7120   22.1260 C   0  0  0  0  0  0  0  0  0  0  0  0
   -8.3710   11.8670   22.7760 C   0  0  0  0  0  0  0  0  0  0  0  0
   -7.4180   13.7990   21.5380 C   0  0  0  0  0  0  0  0  0  0  0  0
   -6.1120   13.1200   21.9590 C   0  0  0  0  0  0  0  0  0  0  0  0
   -5.3800   13.9780   22.9990 C   0  0  0  0  0  0  0  0  0  0  0  0
   -4.2020   13.3110   23.5340 N   0  0  0  0  0  0  0  0  0  0  0  0
   -4.2620   12.3530   24.5050 C   0  0  0  0  0  0  0  0  0  0  0  0
   -5.2630   11.9560   25.0770 O   0  0  0  0  0  0  0  0  0  0  0  0
   -2.8670   11.8860   24.8080 C   0  0  2  0  0  0  0  0  0  0  0  0
   -2.0320   12.4540   23.6680 C   0  0  2  0  0  0  0  0  0  0  0  0
   -2.9440   13.4570   23.0230 C   0  0  0  0  0  0  0  0  0  0  0  0
   -2.5930   14.2200   22.1390 O   0  0  0  0  0  0  0  0  0  0  0  0
   -1.6650   11.2880   22.7550 C   0  0  2  0  0  0  0  0  0  0  0  0
   -2.6060   11.0400   21.6170 C   0  0  0  0  0  0  0  0  0  0  0  0
   -2.7260   11.6660   20.4010 C   0  0  0  0  0  0  0  0  0  0  0  0
   -3.7400   11.0630   19.7210 O   0  0  0  0  0  0  0  0  0  0  0  0
   -4.2090   10.0820   20.5640 C   0  0  0  0  0  0  0  0  0  0  0  0
   -5.3210    9.2340   20.2390 C   0  0  0  0  0  0  0  0  0  0  0  0
   -6.5970    9.2860   20.7720 C   0  0  0  0  0  0  0  0  0  0  0  0
   -7.4540    8.2770   20.2320 C   0  0  0  0  0  0  0  0  0  0  0  0
   -6.7860    7.5020   19.3210 C   0  0  0  0  0  0  0  0  0  0  0  0
   -7.4210    6.1700   18.4450 Cl  0  0  0  0  0  0  0  0  0  0  0  0
   -5.1750    7.9600   19.0960 S   0  0  0  0  0  0  0  0  0  0  0  0
   -3.5400   10.0310   21.7080 N   0  0  0  0  0  0  0  0  0  0  0  0
   -1.6980   10.0850   23.6960 N   0  0  1  0  0  0  0  0  0  0  0  0
   -0.4020    9.6920   24.3680 C   0  0  0  0  0  0  0  0  0  0  0  0
   -0.6280    9.9940   25.8370 C   0  0  0  0  0  0  0  0  0  0  0  0
   -2.1170    9.7690   26.0260 C   0  0  0  0  0  0  0  0  0  0  0  0
   -2.7450   10.3710   24.7750 C   0  0  1  0  0  0  0  0  0  0  0  0
   -9.4069   11.1721   20.6436 H   0  0  0  0  0  0  0  0  0  0  0  0
   -9.7174   12.7323   19.8094 H   0  0  0  0  0  0  0  0  0  0  0  0
   -8.0653   12.0271   19.8094 H   0  0  0  0  0  0  0  0  0  0  0  0
   -9.9295   13.7399   23.2248 H   0  0  0  0  0  0  0  0  0  0  0  0
   -9.8131   14.7378   21.7358 H   0  0  0  0  0  0  0  0  0  0  0  0
  -10.7987   13.2361   21.7358 H   0  0  0  0  0  0  0  0  0  0  0  0
   -8.5007   12.3269   23.7668 H   0  0  0  0  0  0  0  0  0  0  0  0
   -9.0655   11.0205   22.6710 H   0  0  0  0  0  0  0  0  0  0  0  0
   -7.3366   11.5078   22.6710 H   0  0  0  0  0  0  0  0  0  0  0  0
   -7.3278   14.0966   20.4829 H   0  0  0  0  0  0  0  0  0  0  0  0
   -7.5602   14.6570   22.2115 H   0  0  0  0  0  0  0  0  0  0  0  0
   -6.3383   12.1355   22.3945 H   0  0  0  0  0  0  0  0  0  0  0  0
   -5.4683   13.0007   21.0750 H   0  0  0  0  0  0  0  0  0  0  0  0
   -5.0683   14.9201   22.5244 H   0  0  0  0  0  0  0  0  0  0  0  0
   -6.0728   14.1593   23.8340 H   0  0  0  0  0  0  0  0  0  0  0  0
   -2.5567   12.2092   25.8126 H   0  0  0  0  0  0  0  0  0  0  0  0
   -1.0874   12.9382   23.9565 H   0  0  0  0  0  0  0  0  0  0  0  0
   -0.7022   11.4922   22.2638 H   0  0  0  0  0  0  0  0  0  0  0  0
   -2.1126   12.5049   20.0404 H   0  0  0  0  0  0  0  0  0  0  0  0
   -6.9159   10.0207   21.5260 H   0  0  0  0  0  0  0  0  0  0  0  0
   -8.5093    8.1411   20.5109 H   0  0  0  0  0  0  0  0  0  0  0  0
   -2.0350    9.2750   23.1480 H   0  0  0  0  0  0  0  0  0  0  0  0
   -0.1956    8.6219   24.2185 H   0  0  0  0  0  0  0  0  0  0  0  0
    0.4626   10.2346   23.9580 H   0  0  0  0  0  0  0  0  0  0  0  0
   -0.0445    9.3112   26.4721 H   0  0  0  0  0  0  0  0  0  0  0  0
   -0.3116   11.0097   26.1168 H   0  0  0  0  0  0  0  0  0  0  0  0
   -2.3436    8.6951   26.0987 H   0  0  0  0  0  0  0  0  0  0  0  0
   -2.4989   10.2247   26.9515 H   0  0  0  0  0  0  0  0  0  0  0  0
   -3.7555    9.9586   24.6381 H   0  0  0  0  0  0  0  0  0  0  0  0
  1  2  1  0
  2  3  1  0
  2  4  1  0
  2  5  1  0
  5  6  1  0
  6  7  1  0
  7  8  1  0
  8  9  1  0
  9 10  2  0
  9 11  1  0
 11 12  1  0
 12 13  1  0
 13 14  2  0
 12 15  1  0
 15 16  1  0
 16 17  2  0
 17 18  1  0
 18 19  1  0
 19 20  1  0
 20 21  2  0
 21 22  1  0
 22 23  2  0
 23 24  1  0
 23 25  1  0
 19 26  2  0
 15 27  1  0
 27 28  1  0
 28 29  1  0
 29 30  1  0
 30 31  1  0
 13  8  1  0
 26 16  1  0
 31 27  1  0
 31 11  1  0
 25 20  1  0
  1 32  1  0
  1 33  1  0
  1 34  1  0
  3 35  1  0
  3 36  1  0
  3 37  1  0
  4 38  1  0
  4 39  1  0
  4 40  1  0
  5 41  1  0
  5 42  1  0
  6 43  1  0
  6 44  1  0
  7 45  1  0
  7 46  1  0
 11 47  1  1
 12 48  1  1
 15 49  1  6
 17 50  1  0
 21 51  1  0
 22 52  1  0
 27 53  1  6
 28 54  1  0
 28 55  1  0
 29 56  1  0
 29 57  1  0
 30 58  1  0
 30 59  1  0
 31 60  1  6
M  CHG  2   2   1  27   1
M  END
>  <meeko>  (4) 
{"is_sidechain": [false], "free_energy": -7.506, "intermolecular_energy": -9.848, "internal_energy": -0.919}

$$$$
2y5h_ligand
     RDKit          3D

 60 64  0  0  0  0  0  0  0  0999 V2000
   -9.3460   12.1710   23.2850 C   0  0  0  0  0  0  0  0  0  0  0  0
  -10.5880   11.9570   22.4260 N   0  0  0  0  0  0  0  0  0  0  0  0
  -10.9160   10.4670   22.3620 C   0  0  0  0  0  0  0  0  0  0  0  0
  -11.7650   12.6650   23.1180 C   0  0  0  0  0  0  0  0  0  0  0  0
  -10.4320   12.5700   21.0230 C   0  0  0  0  0  0  0  0  0  0  0  0
  -10.3130   11.5370   19.8980 C   0  0  0  0  0  0  0  0  0  0  0  0
   -8.8460   11.3710   19.4840 C   0  0  0  0  0  0  0  0  0  0  0  0
   -8.4530    9.9710   19.3940 N   0  0  0  0  0  0  0  0  0  0  0  0
   -8.5420    9.2430   18.2410 C   0  0  0  0  0  0  0  0  0  0  0  0
   -8.9820    9.6240   17.1700 O   0  0  0  0  0  0  0  0  0  0  0  0
   -8.0500    7.8510   18.5130 C   0  0  2  0  0  0  0  0  0  0  0  0
   -7.3660    7.9580   19.8680 C   0  0  2  0  0  0  0  0  0  0  0  0
   -7.8190    9.2900   20.3930 C   0  0  0  0  0  0  0  0  0  0  0  0
   -7.5820    9.6900   21.5200 O   0  0  0  0  0  0  0  0  0  0  0  0
   -5.8630    7.8810   19.6210 C   0  0  2  0  0  0  0  0  0  0  0  0
   -5.1700    9.1960   19.4410 C   0  0  0  0  0  0  0  0  0  0  0  0
   -5.0360    9.9930   18.3310 C   0  0  0  0  0  0  0  0  0  0  0  0
   -4.3130   11.0880   18.6890 O   0  0  0  0  0  0  0  0  0  0  0  0
   -4.0240   10.9120   20.0230 C   0  0  0  0  0  0  0  0  0  0  0  0
   -3.2290   11.8340   20.7830 C   0  0  0  0  0  0  0  0  0  0  0  0
   -3.6700   12.9580   21.4600 C   0  0  0  0  0  0  0  0  0  0  0  0
   -2.6020   13.6600   22.1020 C   0  0  0  0  0  0  0  0  0  0  0  0
   -1.4010   13.0410   21.8750 C   0  0  0  0  0  0  0  0  0  0  0  0
    0.1380   13.5480   22.4390 Cl  0  0  0  0  0  0  0  0  0  0  0  0
   -1.5280   11.6470   20.9280 S   0  0  0  0  0  0  0  0  0  0  0  0
   -4.5370    9.7900   20.5100 N   0  0  0  0  0  0  0  0  0  0  0  0
   -5.7640    7.0870   18.3190 N   0  0  1  0  0  0  0  0  0  0  0  0
   -5.6110    5.5870   18.4300 C   0  0  0  0  0  0  0  0  0  0  0  0
   -6.9110    5.0300   17.8830 C   0  0  0  0  0  0  0  0  0  0  0  0
   -7.3330    6.0530   16.8440 C   0  0  0  0  0  0  0  0  0  0  0  0
   -7.0170    7.3940   17.4950 C   0  0  1  0  0  0  0  0  0  0  0  0
   -9.6230   12.1233   24.3485 H   0  0  0  0  0  0  0  0  0  0  0  0
   -8.6071   11.3869   23.0630 H   0  0  0  0  0  0  0  0  0  0  0  0
   -8.9121   13.1571   23.0630 H   0  0  0  0  0  0  0  0  0  0  0  0
  -11.0041   10.0668   23.3828 H   0  0  0  0  0  0  0  0  0  0  0  0
  -11.8672   10.3235   21.8285 H   0  0  0  0  0  0  0  0  0  0  0  0
  -10.1129    9.9374   21.8285 H   0  0  0  0  0  0  0  0  0  0  0  0
  -11.6457   12.5933   24.2092 H   0  0  0  0  0  0  0  0  0  0  0  0
  -11.7826   13.7237   22.8199 H   0  0  0  0  0  0  0  0  0  0  0  0
  -12.7085   12.1844   22.8199 H   0  0  0  0  0  0  0  0  0  0  0  0
  -11.3110   13.2000   20.8218 H   0  0  0  0  0  0  0  0  0  0  0  0
   -9.4919   13.1412   21.0295 H   0  0  0  0  0  0  0  0  0  0  0  0
  -10.7028   10.5704   20.2497 H   0  0  0  0  0  0  0  0  0  0  0  0
  -10.8937   11.8831   19.0302 H   0  0  0  0  0  0  0  0  0  0  0  0
   -8.6999   11.8435   18.5015 H   0  0  0  0  0  0  0  0  0  0  0  0
   -8.2223   11.8472   20.2549 H   0  0  0  0  0  0  0  0  0  0  0  0
   -8.8793    7.1295   18.4718 H   0  0  0  0  0  0  0  0  0  0  0  0
   -7.6078    7.1672   20.5934 H   0  0  0  0  0  0  0  0  0  0  0  0
   -5.3676    7.4383   20.4977 H   0  0  0  0  0  0  0  0  0  0  0  0
   -5.4413    9.7832   17.3301 H   0  0  0  0  0  0  0  0  0  0  0  0
   -4.7225   13.2753   21.4997 H   0  0  0  0  0  0  0  0  0  0  0  0
   -2.7281   14.5754   22.6988 H   0  0  0  0  0  0  0  0  0  0  0  0
   -4.9530    7.4560   17.7950 H   0  0  0  0  0  0  0  0  0  0  0  0
   -4.7565    5.2382   17.8316 H   0  0  0  0  0  0  0  0  0  0  0  0
   -5.4191    5.2619   19.4632 H   0  0  0  0  0  0  0  0  0  0  0  0
   -6.7517    4.0446   17.4209 H   0  0  0  0  0  0  0  0  0  0  0  0
   -7.6709    4.8774   18.6636 H   0  0  0  0  0  0  0  0  0  0  0  0
   -6.7592    5.9252   15.9143 H   0  0  0  0  0  0  0  0  0  0  0  0
   -8.3925    5.9584   16.5636 H   0  0  0  0  0  0  0  0  0  0  0  0
   -6.9492    8.1701   16.7184 H   0  0  0  0  0  0  0  0  0  0  0  0
  1  2  1  0
  2  3  1  0
  2  4  1  0
  2  5  1  0
  5  6  1  0
  6  7  1  0
  7  8  1  0
  8  9  1  0
  9 10  2  0
  9 11  1  0
 11 12  1  0
 12 13  1  0
 13 14  2  0
 12 15  1  0
 15 16  1  0
 16 17  2  0
 17 18  1  0
 18 19  1  0
 19 20  1  0
 20 21  2  0
 21 22  1  0
 22 23  2  0
 23 24  1  0
 23 25  1  0
 19 26  2  0
 15 27  1  0
 27 28  1  0
 28 29  1  0
 29 30  1  0
 30 31  1  0
 13  8  1  0
 26 16  1  0
 31 27  1  0
 31 11  1  0
 25 20  1  0
  1 32  1  0
  1 33  1  0
  1 34  1  0
  3 35  1  0
  3 36  1  0
  3 37  1  0
  4 38  1  0
  4 39  1  0
  4 40  1  0
  5 41  1  0
  5 42  1  0
  6 43  1  0
  6 44  1  0
  7 45  1  0
  7 46  1  0
 11 47  1  1
 12 48  1  1
 15 49  1  1
 17 50  1  0
 21 51  1  0
 22 52  1  0
 27 53  1  6
 28 54  1  0
 28 55  1  0
 29 56  1  0
 29 57  1  0
 30 58  1  0
 30 59  1  0
 31 60  1  6
M  CHG  2   2   1  27   1
M  END
>  <meeko>  (5) 
{"is_sidechain": [false], "free_energy": -7.241, "intermolecular_energy": -9.438, "internal_energy": -0.971}

$$$$
2y5h_ligand
     RDKit          3D

 60 64  0  0  0  0  0  0  0  0999 V2000
    0.2320   12.9080   16.2040 C   0  0  0  0  0  0  0  0  0  0  0  0
   -0.7380   14.0540   15.9370 N   0  0  0  0  0  0  0  0  0  0  0  0
   -0.1010   15.0480   14.9670 C   0  0  0  0  0  0  0  0  0  0  0  0
   -1.9830   13.4660   15.2520 C   0  0  0  0  0  0  0  0  0  0  0  0
   -1.1970   14.7370   17.2380 C   0  0  0  0  0  0  0  0  0  0  0  0
   -1.0190   13.8770   18.4920 C   0  0  0  0  0  0  0  0  0  0  0  0
   -2.3570   13.2420   18.8930 C   0  0  0  0  0  0  0  0  0  0  0  0
   -2.4980   13.1180   20.3370 N   0  0  0  0  0  0  0  0  0  0  0  0
   -3.1060   14.0650   21.1120 C   0  0  0  0  0  0  0  0  0  0  0  0
   -3.5660   15.1290   20.7370 O   0  0  0  0  0  0  0  0  0  0  0  0
   -3.0760   13.6070   22.5420 C   0  0  2  0  0  0  0  0  0  0  0  0
   -2.6710   12.1420   22.4540 C   0  0  2  0  0  0  0  0  0  0  0  0
   -2.1830   11.9910   21.0420 C   0  0  0  0  0  0  0  0  0  0  0  0
   -1.6520   10.9820   20.6130 O   0  0  0  0  0  0  0  0  0  0  0  0
   -3.9140   11.3130   22.7600 C   0  0  2  0  0  0  0  0  0  0  0  0
   -4.7280   10.9070   21.5710 C   0  0  0  0  0  0  0  0  0  0  0  0
   -5.6020   11.6290   20.7950 C   0  0  0  0  0  0  0  0  0  0  0  0
   -6.0870   10.7980   19.8320 O   0  0  0  0  0  0  0  0  0  0  0  0
   -5.4870    9.5830   20.0640 C   0  0  0  0  0  0  0  0  0  0  0  0
   -5.7640    8.4080   19.2880 C   0  0  0  0  0  0  0  0  0  0  0  0
   -4.8670    7.4230   18.9100 C   0  0  0  0  0  0  0  0  0  0  0  0
   -5.4820    6.4000   18.1240 C   0  0  0  0  0  0  0  0  0  0  0  0
   -6.8140    6.6590   17.9340 C   0  0  0  0  0  0  0  0  0  0  0  0
   -7.9290    5.7090   17.0410 Cl  0  0  0  0  0  0  0  0  0  0  0  0
   -7.3370    8.0840   18.6800 S   0  0  0  0  0  0  0  0  0  0  0  0
   -4.6510    9.6170   21.0950 N   0  0  0  0  0  0  0  0  0  0  0  0
   -4.7490   12.2460   23.6360 N   0  0  1  0  0  0  0  0  0  0  0  0
   -4.5670   12.1420   25.1320 C   0  0  0  0  0  0  0  0  0  0  0  0
   -3.9140   13.4520   25.5290 C   0  0  0  0  0  0  0  0  0  0  0  0
   -4.4590   14.4460   24.5200 C   0  0  0  0  0  0  0  0  0  0  0  0
   -4.4440   13.6810   23.2020 C   0  0  1  0  0  0  0  0  0  0  0  0
    0.3479   12.7711   17.2893 H   0  0  0  0  0  0  0  0  0  0  0  0
   -0.1617   11.9829   15.7577 H   0  0  0  0  0  0  0  0  0  0  0  0
    1.2094   13.1434   15.7577 H   0  0  0  0  0  0  0  0  0  0  0  0
    0.4071   15.8408   15.5355 H   0  0  0  0  0  0  0  0  0  0  0  0
    0.6304   14.5248   14.3336 H   0  0  0  0  0  0  0  0  0  0  0  0
   -0.8819   15.4940   14.3336 H   0  0  0  0  0  0  0  0  0  0  0  0
   -2.6975   13.1285   16.0172 H   0  0  0  0  0  0  0  0  0  0  0  0
   -2.4545   14.2366   14.6244 H   0  0  0  0  0  0  0  0  0  0  0  0
   -1.6874   12.6123   14.6244 H   0  0  0  0  0  0  0  0  0  0  0  0
   -0.6143   15.6610   17.3672 H   0  0  0  0  0  0  0  0  0  0  0  0
   -2.2756   14.9260   17.1335 H   0  0  0  0  0  0  0  0  0  0  0  0
   -0.2866   13.0823   18.2867 H   0  0  0  0  0  0  0  0  0  0  0  0
   -0.6621   14.5128   19.3157 H   0  0  0  0  0  0  0  0  0  0  0  0
   -3.1754   13.8694   18.5101 H   0  0  0  0  0  0  0  0  0  0  0  0
   -2.3921   12.2302   18.4629 H   0  0  0  0  0  0  0  0  0  0  0  0
   -2.3995   14.2370   23.1382 H   0  0  0  0  0  0  0  0  0  0  0  0
   -1.8913   11.8140   23.1572 H   0  0  0  0  0  0  0  0  0  0  0  0
   -3.6162   10.3574   23.2163 H   0  0  0  0  0  0  0  0  0  0  0  0
   -5.8632   12.6892   20.9280 H   0  0  0  0  0  0  0  0  0  0  0  0
   -3.8016    7.4275   19.1837 H   0  0  0  0  0  0  0  0  0  0  0  0
   -4.9555    5.5208   17.7243 H   0  0  0  0  0  0  0  0  0  0  0  0
   -5.7430   12.0640   23.4190 H   0  0  0  0  0  0  0  0  0  0  0  0
   -5.5385   12.0243   25.6343 H   0  0  0  0  0  0  0  0  0  0  0  0
   -3.9615   11.2697   25.4193 H   0  0  0  0  0  0  0  0  0  0  0  0
   -4.1974   13.7371   26.5529 H   0  0  0  0  0  0  0  0  0  0  0  0
   -2.8153   13.3991   25.5246 H   0  0  0  0  0  0  0  0  0  0  0  0
   -5.4828   14.7494   24.7841 H   0  0  0  0  0  0  0  0  0  0  0  0
   -3.8681   15.3728   24.4778 H   0  0  0  0  0  0  0  0  0  0  0  0
   -5.1310   14.1633   22.4910 H   0  0  0  0  0  0  0  0  0  0  0  0
  1  2  1  0
  2  3  1  0
  2  4  1  0
  2  5  1  0
  5  6  1  0
  6  7  1  0
  7  8  1  0
  8  9  1  0
  9 10  2  0
  9 11  1  0
 11 12  1  0
 12 13  1  0
 13 14  2  0
 12 15  1  0
 15 16  1  0
 16 17  2  0
 17 18  1  0
 18 19  1  0
 19 20  1  0
 20 21  2  0
 21 22  1  0
 22 23  2  0
 23 24  1  0
 23 25  1  0
 19 26  2  0
 15 27  1  0
 27 28  1  0
 28 29  1  0
 29 30  1  0
 30 31  1  0
 13  8  1  0
 26 16  1  0
 31 27  1  0
 31 11  1  0
 25 20  1  0
  1 32  1  0
  1 33  1  0
  1 34  1  0
  3 35  1  0
  3 36  1  0
  3 37  1  0
  4 38  1  0
  4 39  1  0
  4 40  1  0
  5 41  1  0
  5 42  1  0
  6 43  1  0
  6 44  1  0
  7 45  1  0
  7 46  1  0
 11 47  1  1
 12 48  1  1
 15 49  1  1
 17 50  1  0
 21 51  1  0
 22 52  1  0
 27 53  1  1
 28 54  1  0
 28 55  1  0
 29 56  1  0
 29 57  1  0
 30 58  1  0
 30 59  1  0
 31 60  1  6
M  CHG  2   2   1  27   1
M  END
>  <meeko>  (6) 
{"is_sidechain": [false], "free_energy": -7.171, "intermolecular_energy": -9.596, "internal_energy": -0.717}

$$$$
2y5h_ligand
     RDKit          3D

 60 64  0  0  0  0  0  0  0  0999 V2000
   -4.9070   14.2850   19.6530 C   0  0  0  0  0  0  0  0  0  0  0  0
   -5.6870   14.1630   20.9570 N   0  0  0  0  0  0  0  0  0  0  0  0
   -4.7210   14.2050   22.1390 C   0  0  0  0  0  0  0  0  0  0  0  0
   -6.6140   15.3860   21.0660 C   0  0  0  0  0  0  0  0  0  0  0  0
   -6.5710   12.9030   20.9840 C   0  0  0  0  0  0  0  0  0  0  0  0
   -7.1380   12.5060   19.6190 C   0  0  0  0  0  0  0  0  0  0  0  0
   -8.4380   11.7110   19.7950 C   0  0  0  0  0  0  0  0  0  0  0  0
   -8.2440   10.2830   19.5890 N   0  0  0  0  0  0  0  0  0  0  0  0
   -8.3760    9.6780   18.3710 C   0  0  0  0  0  0  0  0  0  0  0  0
   -8.7030   10.2120   17.3250 O   0  0  0  0  0  0  0  0  0  0  0  0
   -8.1020    8.2110   18.5300 C   0  0  2  0  0  0  0  0  0  0  0  0
   -7.4790    8.0980   19.9140 C   0  0  2  0  0  0  0  0  0  0  0  0
   -7.7650    9.4310   20.5440 C   0  0  0  0  0  0  0  0  0  0  0  0
   -7.5310    9.6920   21.7110 O   0  0  0  0  0  0  0  0  0  0  0  0
   -5.9920    7.8240   19.7180 C   0  0  2  0  0  0  0  0  0  0  0  0
   -5.1110    9.0340   19.6870 C   0  0  0  0  0  0  0  0  0  0  0  0
   -4.8700    9.9420   18.6860 C   0  0  0  0  0  0  0  0  0  0  0  0
   -3.9870   10.8620   19.1610 O   0  0  0  0  0  0  0  0  0  0  0  0
   -3.7130   10.4700   20.4510 C   0  0  0  0  0  0  0  0  0  0  0  0
   -2.7810   11.1560   21.2990 C   0  0  0  0  0  0  0  0  0  0  0  0
   -2.6720   11.0570   22.6760 C   0  0  0  0  0  0  0  0  0  0  0  0
   -1.6410   11.8960   23.2010 C   0  0  0  0  0  0  0  0  0  0  0  0
   -1.0200   12.5980   22.2020 C   0  0  0  0  0  0  0  0  0  0  0  0
    0.2570   13.7290   22.3810 Cl  0  0  0  0  0  0  0  0  0  0  0  0
   -1.6370   12.2680   20.6630 S   0  0  0  0  0  0  0  0  0  0  0  0
   -4.3850    9.3820   20.8050 N   0  0  0  0  0  0  0  0  0  0  0  0
   -5.9410    7.1410   18.3520 N   0  0  1  0  0  0  0  0  0  0  0  0
   -6.0080    5.6310   18.3280 C   0  0  0  0  0  0  0  0  0  0  0  0
   -7.3450    5.3190   17.6820 C   0  0  0  0  0  0  0  0  0  0  0  0
   -7.5640    6.4800   16.7290 C   0  0  0  0  0  0  0  0  0  0  0  0
   -7.0940    7.6980   17.5140 C   0  0  1  0  0  0  0  0  0  0  0  0
   -3.8429   14.4514   19.8765 H   0  0  0  0  0  0  0  0  0  0  0  0
   -5.0188   13.3584   19.0708 H   0  0  0  0  0  0  0  0  0  0  0  0
   -5.2964   15.1332   19.0708 H   0  0  0  0  0  0  0  0  0  0  0  0
   -5.2910   14.1802   23.0795 H   0  0  0  0  0  0  0  0  0  0  0  0
   -4.0491   13.3352   22.0945 H   0  0  0  0  0  0  0  0  0  0  0  0
   -4.1271   15.1298   22.0945 H   0  0  0  0  0  0  0  0  0  0  0  0
   -6.7905   15.6189   22.1265 H   0  0  0  0  0  0  0  0  0  0  0  0
   -6.1414   16.2493   20.5747 H   0  0  0  0  0  0  0  0  0  0  0  0
   -7.5729   15.1642   20.5747 H   0  0  0  0  0  0  0  0  0  0  0  0
   -5.9670   12.0657   21.3636 H   0  0  0  0  0  0  0  0  0  0  0  0
   -7.4315   13.1340   21.6291 H   0  0  0  0  0  0  0  0  0  0  0  0
   -7.3441   13.4140   19.0333 H   0  0  0  0  0  0  0  0  0  0  0  0
   -6.4025   11.8787   19.0940 H   0  0  0  0  0  0  0  0  0  0  0  0
   -8.8166   11.8731   20.8150 H   0  0  0  0  0  0  0  0  0  0  0  0
   -9.1546   12.0659   19.0396 H   0  0  0  0  0  0  0  0  0  0  0  0
   -9.0227    7.6255   18.3902 H   0  0  0  0  0  0  0  0  0  0  0  0
   -7.8667    7.2905   20.5525 H   0  0  0  0  0  0  0  0  0  0  0  0
   -5.6100    7.2392   20.5677 H   0  0  0  0  0  0  0  0  0  0  0  0
   -5.3121    9.9283   17.6789 H   0  0  0  0  0  0  0  0  0  0  0  0
   -3.3069   10.4064   23.2954 H   0  0  0  0  0  0  0  0  0  0  0  0
   -1.3804   11.9685   24.2672 H   0  0  0  0  0  0  0  0  0  0  0  0
   -5.0600    7.4310   17.8960 H   0  0  0  0  0  0  0  0  0  0  0  0
   -5.1821    5.2148   17.7324 H   0  0  0  0  0  0  0  0  0  0  0  0
   -5.9171    5.1928   19.3328 H   0  0  0  0  0  0  0  0  0  0  0  0
   -7.3035    4.3653   17.1354 H   0  0  0  0  0  0  0  0  0  0  0  0
   -8.1577    5.2104   18.4153 H   0  0  0  0  0  0  0  0  0  0  0  0
   -6.9680    6.3516   15.8134 H   0  0  0  0  0  0  0  0  0  0  0  0
   -8.6107    6.5664   16.4019 H   0  0  0  0  0  0  0  0  0  0  0  0
   -6.8769    8.5204   16.8165 H   0  0  0  0  0  0  0  0  0  0  0  0
  1  2  1  0
  2  3  1  0
  2  4  1  0
  2  5  1  0
  5  6  1  0
  6  7  1  0
  7  8  1  0
  8  9  1  0
  9 10  2  0
  9 11  1  0
 11 12  1  0
 12 13  1  0
 13 14  2  0
 12 15  1  0
 15 16  1  0
 16 17  2  0
 17 18  1  0
 18 19  1  0
 19 20  1  0
 20 21  2  0
 21 22  1  0
 22 23  2  0
 23 24  1  0
 23 25  1  0
 19 26  2  0
 15 27  1  0
 27 28  1  0
 28 29  1  0
 29 30  1  0
 30 31  1  0
 13  8  1  0
 26 16  1  0
 31 27  1  0
 31 11  1  0
 25 20  1  0
  1 32  1  0
  1 33  1  0
  1 34  1  0
  3 35  1  0
  3 36  1  0
  3 37  1  0
  4 38  1  0
  4 39  1  0
  4 40  1  0
  5 41  1  0
  5 42  1  0
  6 43  1  0
  6 44  1  0
  7 45  1  0
  7 46  1  0
 11 47  1  1
 12 48  1  1
 15 49  1  1
 17 50  1  0
 21 51  1  0
 22 52  1  0
 27 53  1  6
 28 54  1  0
 28 55  1  0
 29 56  1  0
 29 57  1  0
 30 58  1  0
 30 59  1  0
 31 60  1  6
M  CHG  2   2   1  27   1
M  END
>  <meeko>  (7) 
{"is_sidechain": [false], "free_energy": -6.933, "intermolecular_energy": -8.635, "internal_energy": -1.357}

$$$$
2y5h_ligand
     RDKit          3D

 60 64  0  0  0  0  0  0  0  0999 V2000
   -5.4600   16.1540   26.0630 C   0  0  0  0  0  0  0  0  0  0  0  0
   -6.5900   15.9170   25.0660 N   0  0  0  0  0  0  0  0  0  0  0  0
   -7.8030   16.7580   25.4580 C   0  0  0  0  0  0  0  0  0  0  0  0
   -6.1090   16.4050   23.6880 C   0  0  0  0  0  0  0  0  0  0  0  0
   -6.9430   14.4250   24.9370 C   0  0  0  0  0  0  0  0  0  0  0  0
   -7.2130   13.9670   23.5020 C   0  0  0  0  0  0  0  0  0  0  0  0
   -6.3490   12.7460   23.1640 C   0  0  0  0  0  0  0  0  0  0  0  0
   -5.0740   13.1190   22.5680 N   0  0  0  0  0  0  0  0  0  0  0  0
   -3.9000   13.1420   23.2660 C   0  0  0  0  0  0  0  0  0  0  0  0
   -3.7530   12.9040   24.4530 O   0  0  0  0  0  0  0  0  0  0  0  0
   -2.7970   13.5660   22.3400 C   0  0  2  0  0  0  0  0  0  0  0  0
   -3.4200   13.4690   20.9540 C   0  0  2  0  0  0  0  0  0  0  0  0
   -4.8890   13.3340   21.2310 C   0  0  0  0  0  0  0  0  0  0  0  0
   -5.7460   13.3540   20.3650 O   0  0  0  0  0  0  0  0  0  0  0  0
   -2.8140   12.2450   20.2730 C   0  0  2  0  0  0  0  0  0  0  0  0
   -3.5790   10.9690   20.4400 C   0  0  0  0  0  0  0  0  0  0  0  0
   -3.8090   10.2010   21.5550 C   0  0  0  0  0  0  0  0  0  0  0  0
   -4.5660    9.1350   21.1780 O   0  0  0  0  0  0  0  0  0  0  0  0
   -4.7660    9.2920   19.8260 C   0  0  0  0  0  0  0  0  0  0  0  0
   -5.4880    8.3460   19.0230 C   0  0  0  0  0  0  0  0  0  0  0  0
   -5.1500    7.0260   18.7780 C   0  0  0  0  0  0  0  0  0  0  0  0
   -6.0880    6.3750   17.9180 C   0  0  0  0  0  0  0  0  0  0  0  0
   -7.0890    7.2330   17.5440 C   0  0  0  0  0  0  0  0  0  0  0  0
   -8.4110    6.8800   16.5080 Cl  0  0  0  0  0  0  0  0  0  0  0  0
   -6.9330    8.7820   18.2030 S   0  0  0  0  0  0  0  0  0  0  0  0
   -4.1980   10.3940   19.3520 N   0  0  0  0  0  0  0  0  0  0  0  0
   -1.4570   12.1010   20.9600 N   0  0  1  0  0  0  0  0  0  0  0  0
   -0.2750   12.7850   20.3130 C   0  0  0  0  0  0  0  0  0  0  0  0
    0.1070   13.8860   21.2840 C   0  0  0  0  0  0  0  0  0  0  0  0
   -0.2720   13.3180   22.6400 C   0  0  0  0  0  0  0  0  0  0  0  0
   -1.6050   12.6240   22.3910 C   0  0  1  0  0  0  0  0  0  0  0  0
   -5.8518   16.0718   27.0876 H   0  0  0  0  0  0  0  0  0  0  0  0
   -4.6723   15.4015   25.9102 H   0  0  0  0  0  0  0  0  0  0  0  0
   -5.0411   17.1596   25.9102 H   0  0  0  0  0  0  0  0  0  0  0  0
   -7.8755   16.8082   26.5545 H   0  0  0  0  0  0  0  0  0  0  0  0
   -7.6919   17.7739   25.0509 H   0  0  0  0  0  0  0  0  0  0  0  0
   -8.7154   16.2977   25.0509 H   0  0  0  0  0  0  0  0  0  0  0  0
   -5.3425   17.1826   23.8214 H   0  0  0  0  0  0  0  0  0  0  0  0
   -5.6807   15.5601   23.1288 H   0  0  0  0  0  0  0  0  0  0  0  0
   -6.9600   16.8211   23.1288 H   0  0  0  0  0  0  0  0  0  0  0  0
   -6.1036   13.8361   25.3351 H   0  0  0  0  0  0  0  0  0  0  0  0
   -7.8758   14.2707   25.4993 H   0  0  0  0  0  0  0  0  0  0  0  0
   -8.2752   13.7000   23.3997 H   0  0  0  0  0  0  0  0  0  0  0  0
   -6.9631   14.7857   22.8111 H   0  0  0  0  0  0  0  0  0  0  0  0
   -6.1558   12.1825   24.0887 H   0  0  0  0  0  0  0  0  0  0  0  0
   -6.8983   12.1379   22.4302 H   0  0  0  0  0  0  0  0  0  0  0  0
   -2.4247   14.5655   22.6090 H   0  0  0  0  0  0  0  0  0  0  0  0
   -3.2420   14.3237   20.2848 H   0  0  0  0  0  0  0  0  0  0  0  0
   -2.7925   12.4012   19.1844 H   0  0  0  0  0  0  0  0  0  0  0  0
   -3.4459   10.4104   22.5720 H   0  0  0  0  0  0  0  0  0  0  0  0
   -4.2603    6.5338   19.1977 H   0  0  0  0  0  0  0  0  0  0  0  0
   -6.0159    5.3248   17.5988 H   0  0  0  0  0  0  0  0  0  0  0  0
   -1.2490   11.0900   21.0220 H   0  0  0  0  0  0  0  0  0  0  0  0
    0.5575   12.0785   20.1796 H   0  0  0  0  0  0  0  0  0  0  0  0
   -0.5143   13.1749   19.3126 H   0  0  0  0  0  0  0  0  0  0  0  0
    1.1856   14.0959   21.2343 H   0  0  0  0  0  0  0  0  0  0  0  0
   -0.3957   14.8398   21.0659 H   0  0  0  0  0  0  0  0  0  0  0  0
    0.4841   12.5986   22.9875 H   0  0  0  0  0  0  0  0  0  0  0  0
   -0.3372   14.0917   23.4192 H   0  0  0  0  0  0  0  0  0  0  0  0
   -1.7917   11.8938   23.1922 H   0  0  0  0  0  0  0  0  0  0  0  0
  1  2  1  0
  2  3  1  0
  2  4  1  0
  2  5  1  0
  5  6  1  0
  6  7  1  0
  7  8  1  0
  8  9  1  0
  9 10  2  0
  9 11  1  0
 11 12  1  0
 12 13  1  0
 13 14  2  0
 12 15  1  0
 15 16  1  0
 16 17  2  0
 17 18  1  0
 18 19  1  0
 19 20  1  0
 20 21  2  0
 21 22  1  0
 22 23  2  0
 23 24  1  0
 23 25  1  0
 19 26  2  0
 15 27  1  0
 27 28  1  0
 28 29  1  0
 29 30  1  0
 30 31  1  0
 13  8  1  0
 26 16  1  0
 31 27  1  0
 31 11  1  0
 25 20  1  0
  1 32  1  0
  1 33  1  0
  1 34  1  0
  3 35  1  0
  3 36  1  0
  3 37  1  0
  4 38  1  0
  4 39  1  0
  4 40  1  0
  5 41  1  0
  5 42  1  0
  6 43  1  0
  6 44  1  0
  7 45  1  0
  7 46  1  0
 11 47  1  1
 12 48  1  6
 15 49  1  6
 17 50  1  0
 21 51  1  0
 22 52  1  0
 27 53  1  1
 28 54  1  0
 28 55  1  0
 29 56  1  0
 29 57  1  0
 30 58  1  0
 30 59  1  0
 31 60  1  1
M  CHG  2   2   1  27   1
M  END
>  <meeko>  (8) 
{"is_sidechain": [false], "free_energy": -6.8, "intermolecular_energy": -9.083, "internal_energy": -0.73}

$$$$
2y5h_ligand
     RDKit          3D

 60 64  0  0  0  0  0  0  0  0999 V2000
   -2.9370   12.4280   24.0100 C   0  0  0  0  0  0  0  0  0  0  0  0
   -1.9030   11.5070   23.3720 N   0  0  0  0  0  0  0  0  0  0  0  0
   -0.8720   12.3400   22.6130 C   0  0  0  0  0  0  0  0  0  0  0  0
   -1.1670   10.7720   24.5050 C   0  0  0  0  0  0  0  0  0  0  0  0
   -2.5560   10.4430   22.4710 C   0  0  0  0  0  0  0  0  0  0  0  0
   -2.6180   10.8290   20.9910 C   0  0  0  0  0  0  0  0  0  0  0  0
   -4.0670   11.1150   20.5780 C   0  0  0  0  0  0  0  0  0  0  0  0
   -4.6080   10.0800   19.7080 N   0  0  0  0  0  0  0  0  0  0  0  0
   -5.1470    8.9160   20.1770 C   0  0  0  0  0  0  0  0  0  0  0  0
   -5.2190    8.5620   21.3410 O   0  0  0  0  0  0  0  0  0  0  0  0
   -5.6050    8.0920   19.0070 C   0  0  2  0  0  0  0  0  0  0  0  0
   -5.5610    9.0610   17.8330 C   0  0  2  0  0  0  0  0  0  0  0  0
   -4.7730   10.2250   18.3600 C   0  0  0  0  0  0  0  0  0  0  0  0
   -4.4110   11.1640   17.6720 O   0  0  0  0  0  0  0  0  0  0  0  0
   -7.0040    9.4110   17.4850 C   0  0  2  0  0  0  0  0  0  0  0  0
   -7.5520   10.6320   18.1560 C   0  0  0  0  0  0  0  0  0  0  0  0
   -7.8940   11.8600   17.6450 C   0  0  0  0  0  0  0  0  0  0  0  0
   -8.3450   12.6280   18.6730 O   0  0  0  0  0  0  0  0  0  0  0  0
   -8.2550   11.8300   19.7900 C   0  0  0  0  0  0  0  0  0  0  0  0
   -8.5970   12.2830   21.1090 C   0  0  0  0  0  0  0  0  0  0  0  0
   -9.7680   12.0310   21.8030 C   0  0  0  0  0  0  0  0  0  0  0  0
   -9.7810   12.6510   23.0910 C   0  0  0  0  0  0  0  0  0  0  0  0
   -8.6240   13.3510   23.3110 C   0  0  0  0  0  0  0  0  0  0  0  0
   -8.2230   14.2580   24.7110 Cl  0  0  0  0  0  0  0  0  0  0  0  0
   -7.5310   13.2710   22.0230 S   0  0  0  0  0  0  0  0  0  0  0  0
   -7.7950   10.6170   19.5120 N   0  0  0  0  0  0  0  0  0  0  0  0
   -7.7850    8.1890   17.9660 N   0  0  1  0  0  0  0  0  0  0  0  0
   -8.0330    7.0840   16.9650 C   0  0  0  0  0  0  0  0  0  0  0  0
   -7.2080    5.9170   17.4740 C   0  0  0  0  0  0  0  0  0  0  0  0
   -7.2090    6.1040   18.9800 C   0  0  0  0  0  0  0  0  0  0  0  0
   -7.0370    7.6070   19.1670 C   0  0  1  0  0  0  0  0  0  0  0  0
   -2.8616   12.3608   25.1054 H   0  0  0  0  0  0  0  0  0  0  0  0
   -2.7503   13.4645   23.6925 H   0  0  0  0  0  0  0  0  0  0  0  0
   -3.9451   12.1232   23.6925 H   0  0  0  0  0  0  0  0  0  0  0  0
   -0.2236   12.8638   23.3308 H   0  0  0  0  0  0  0  0  0  0  0  0
   -0.2605   11.6794   21.9808 H   0  0  0  0  0  0  0  0  0  0  0  0
   -1.3894   13.0766   21.9808 H   0  0  0  0  0  0  0  0  0  0  0  0
   -1.5321   11.1366   25.4765 H   0  0  0  0  0  0  0  0  0  0  0  0
   -1.3559    9.6913   24.4244 H   0  0  0  0  0  0  0  0  0  0  0  0
   -0.0866   10.9624   24.4244 H   0  0  0  0  0  0  0  0  0  0  0  0
   -1.9773    9.5119   22.5611 H   0  0  0  0  0  0  0  0  0  0  0  0
   -3.5955   10.3324   22.8135 H   0  0  0  0  0  0  0  0  0  0  0  0
   -2.0084   11.7294   20.8246 H   0  0  0  0  0  0  0  0  0  0  0  0
   -2.2305    9.9957   20.3864 H   0  0  0  0  0  0  0  0  0  0  0  0
   -4.6877   11.1756   21.4841 H   0  0  0  0  0  0  0  0  0  0  0  0
   -4.0772   12.0630   20.0201 H   0  0  0  0  0  0  0  0  0  0  0  0
   -4.9762    7.1970   18.8902 H   0  0  0  0  0  0  0  0  0  0  0  0
   -5.0967    8.6808   16.9111 H   0  0  0  0  0  0  0  0  0  0  0  0
   -7.0787    9.6423   16.4122 H   0  0  0  0  0  0  0  0  0  0  0  0
   -7.8169   12.1677   16.5917 H   0  0  0  0  0  0  0  0  0  0  0  0
  -10.5949   11.4225   21.4080 H   0  0  0  0  0  0  0  0  0  0  0  0
  -10.6100   12.5760   23.8101 H   0  0  0  0  0  0  0  0  0  0  0  0
   -8.7010    8.5250   18.3080 H   0  0  0  0  0  0  0  0  0  0  0  0
   -9.1006    6.8207   16.9333 H   0  0  0  0  0  0  0  0  0  0  0  0
   -7.7556    7.3771   15.9417 H   0  0  0  0  0  0  0  0  0  0  0  0
   -7.6720    4.9587   17.1976 H   0  0  0  0  0  0  0  0  0  0  0  0
   -6.1939    5.8946   17.0483 H   0  0  0  0  0  0  0  0  0  0  0  0
   -8.1596    5.7624   19.4155 H   0  0  0  0  0  0  0  0  0  0  0  0
   -6.4191    5.5230   19.4785 H   0  0  0  0  0  0  0  0  0  0  0  0
   -7.3752    7.8920   20.1742 H   0  0  0  0  0  0  0  0  0  0  0  0
  1  2  1  0
  2  3  1  0
  2  4  1  0
  2  5  1  0
  5  6  1  0
  6  7  1  0
  7  8  1  0
  8  9  1  0
  9 10  2  0
  9 11  1  0
 11 12  1  0
 12 13  1  0
 13 14  2  0
 12 15  1  0
 15 16  1  0
 16 17  2  0
 17 18  1  0
 18 19  1  0
 19 20  1  0
 20 21  2  0
 21 22  1  0
 22 23  2  0
 23 24  1  0
 23 25  1  0
 19 26  2  0
 15 27  1  0
 27 28  1  0
 28 29  1  0
 29 30  1  0
 30 31  1  0
 13  8  1  0
 26 16  1  0
 31 27  1  0
 31 11  1  0
 25 20  1  0
  1 32  1  0
  1 33  1  0
  1 34  1  0
  3 35  1  0
  3 36  1  0
  3 37  1  0
  4 38  1  0
  4 39  1  0
  4 40  1  0
  5 41  1  0
  5 42  1  0
  6 43  1  0
  6 44  1  0
  7 45  1  0
  7 46  1  0
 11 47  1  6
 12 48  1  6
 15 49  1  6
 17 50  1  0
 21 51  1  0
 22 52  1  0
 27 53  1  1
 28 54  1  0
 28 55  1  0
 29 56  1  0
 29 57  1  0
 30 58  1  0
 30 59  1  0
 31 60  1  1
M  CHG  2   2   1  27   1
M  END
>  <meeko>  (9) 
{"is_sidechain": [false], "free_energy": -6.797, "intermolecular_energy": -9.218, "internal_energy": -0.59}

$$$$
