5tmn_ligand
     RDKit          3D

 64 64  0  0  0  0  0  0  0  0999 V2000
   52.8010   11.7050   -0.2520 C   0  0  0  0  0  0  0  0  0  0  0  0
   52.0940   12.0230   -1.5670 C   0  0  0  0  0  0  0  0  0  0  0  0
   50.8930   11.0980   -1.7570 C   0  0  0  0  0  0  0  0  0  0  0  0
   51.7610   13.5220   -1.7590 C   0  0  0  0  0  0  0  0  0  0  0  0
   52.6810   14.4010   -2.6210 C   0  0  2  0  0  0  0  0  0  0  0  0
   52.4230   15.8410   -2.4230 N   0  0  0  0  0  0  0  0  0  0  0  0
   53.3410   16.8300   -2.7130 C   0  0  0  0  0  0  0  0  0  0  0  0
   54.5170   16.5950   -2.9800 O   0  0  0  0  0  0  0  0  0  0  0  0
   52.7450   18.2520   -2.6240 C   0  0  2  0  0  0  0  0  0  0  0  0
   52.0970   18.5800   -1.2750 C   0  0  0  0  0  0  0  0  0  0  0  0
   53.0520   18.9470   -0.1150 C   0  0  0  0  0  0  0  0  0  0  0  0
   53.1860   17.8560    0.9450 C   0  0  0  0  0  0  0  0  0  0  0  0
   54.4340   19.3760   -0.6090 C   0  0  0  0  0  0  0  0  0  0  0  0
   51.8070   18.4460   -3.7620 N   0  0  0  0  0  0  0  0  0  0  0  0
   52.2630   18.2710   -5.4150 P   0  0  1  0  0  5  0  0  0  0  0  0
   53.7450   18.4910   -5.5620 O   0  0  0  0  0  0  0  0  0  0  0  0
   51.6410   16.9560   -5.8340 O   0  0  0  0  0  0  0  0  0  0  0  0
   51.3300   19.5700   -6.3580 C   0  0  0  0  0  0  0  0  0  0  0  0
   51.4800   19.1900   -7.7600 N   0  0  0  0  0  0  0  0  0  0  0  0
   50.3800   18.7870   -8.4520 C   0  0  0  0  0  0  0  0  0  0  0  0
   49.4290   18.1600   -8.0050 O   0  0  0  0  0  0  0  0  0  0  0  0
   50.5110   19.1680   -9.7460 O   0  0  0  0  0  0  0  0  0  0  0  0
   50.7970   20.5570   -9.8960 C   0  0  0  0  0  0  0  0  0  0  0  0
   50.7640   20.9120  -11.3640 C   0  0  0  0  0  0  0  0  0  0  0  0
   49.8560   20.2940  -12.2360 C   0  0  0  0  0  0  0  0  0  0  0  0
   49.8160   20.6500  -13.5860 C   0  0  0  0  0  0  0  0  0  0  0  0
   50.6770   21.6310  -14.0760 C   0  0  0  0  0  0  0  0  0  0  0  0
   51.5780   22.2590  -13.2180 C   0  0  0  0  0  0  0  0  0  0  0  0
   51.6190   21.9040  -11.8680 C   0  0  0  0  0  0  0  0  0  0  0  0
   52.7350   14.0030   -4.1320 C   0  0  0  0  0  0  0  0  0  0  0  0
   53.8850   13.8140   -4.6240 O   0  0  0  0  0  0  0  0  0  0  0  0
   51.5980   13.9360   -4.6980 O   0  0  0  0  0  0  0  0  0  0  0  0
   52.1560   11.9951    0.5905 H   0  0  0  0  0  0  0  0  0  0  0  0
   53.0098   10.6263   -0.1995 H   0  0  0  0  0  0  0  0  0  0  0  0
   53.7466   12.2645   -0.1995 H   0  0  0  0  0  0  0  0  0  0  0  0
   52.8070   11.8178   -2.3792 H   0  0  0  0  0  0  0  0  0  0  0  0
   50.5026   10.7973   -0.7736 H   0  0  0  0  0  0  0  0  0  0  0  0
   50.1078   11.6269   -2.3171 H   0  0  0  0  0  0  0  0  0  0  0  0
   51.2039   10.2038   -2.3171 H   0  0  0  0  0  0  0  0  0  0  0  0
   50.7587   13.5712   -2.2095 H   0  0  0  0  0  0  0  0  0  0  0  0
   51.8772   13.9421   -0.7490 H   0  0  0  0  0  0  0  0  0  0  0  0
   53.6955   14.1965   -2.2483 H   0  0  0  0  0  0  0  0  0  0  0  0
   51.4280   16.0540   -2.4770 H   0  0  0  0  0  0  0  0  0  0  0  0
   53.5760   18.9692   -2.6959 H   0  0  0  0  0  0  0  0  0  0  0  0
   51.4184   19.4318   -1.4298 H   0  0  0  0  0  0  0  0  0  0  0  0
   51.6030   17.6495   -0.9585 H   0  0  0  0  0  0  0  0  0  0  0  0
   52.5716   19.8087    0.3715 H   0  0  0  0  0  0  0  0  0  0  0  0
   53.1304   18.3086    1.9460 H   0  0  0  0  0  0  0  0  0  0  0  0
   52.3706   17.1273    0.8263 H   0  0  0  0  0  0  0  0  0  0  0  0
   54.1535   17.3463    0.8263 H   0  0  0  0  0  0  0  0  0  0  0  0
   55.0854   19.5782    0.2540 H   0  0  0  0  0  0  0  0  0  0  0  0
   54.8717   18.5714   -1.2182 H   0  0  0  0  0  0  0  0  0  0  0  0
   54.3391   20.2870   -1.2182 H   0  0  0  0  0  0  0  0  0  0  0  0
   51.2180   19.2770   -3.6770 H   0  0  0  0  0  0  0  0  0  0  0  0
   50.2689   19.5726   -6.0682 H   0  0  0  0  0  0  0  0  0  0  0  0
   51.7102   20.5827   -6.1584 H   0  0  0  0  0  0  0  0  0  0  0  0
   51.9870   19.9140   -8.2670 H   0  0  0  0  0  0  0  0  0  0  0  0
   50.0427   21.1488   -9.3567 H   0  0  0  0  0  0  0  0  0  0  0  0
   51.7926   20.7773   -9.4834 H   0  0  0  0  0  0  0  0  0  0  0  0
   49.1703   19.5233  -11.8540 H   0  0  0  0  0  0  0  0  0  0  0  0
   49.1042   20.1557  -14.2635 H   0  0  0  0  0  0  0  0  0  0  0  0
   50.6452   21.9093  -15.1397 H   0  0  0  0  0  0  0  0  0  0  0  0
   52.2566   23.0340  -13.6040 H   0  0  0  0  0  0  0  0  0  0  0  0
   52.3280   22.4066  -11.1936 H   0  0  0  0  0  0  0  0  0  0  0  0
  1  2  1  0
  2  3  1  0
  2  4  1  0
  4  5  1  0
  5  6  1  0
  6  7  1  0
  7  8  2  0
  7  9  1  0
  9 10  1  0
 10 11  1  0
 11 12  1  0
 11 13  1  0
  9 14  1  0
 14 15  1  0
 15 16  2  0
 15 17  1  6
 15 18  1  0
 18 19  1  0
 19 20  1  0
 20 21  2  0
 20 22  1  0
 22 23  1  0
 23 24  1  0
 24 25  2  0
 25 26  1  0
 26 27  2  0
 27 28  1  0
 28 29  2  0
  5 30  1  0
 30 31  2  0
 30 32  1  0
 29 24  1  0
  1 33  1  0
  1 34  1  0
  1 35  1  0
  2 36  1  0
  3 37  1  0
  3 38  1  0
  3 39  1  0
  4 40  1  0
  4 41  1  0
  5 42  1  1
  6 43  1  0
  9 44  1  6
 10 45  1  0
 10 46  1  0
 11 47  1  0
 12 48  1  0
 12 49  1  0
 12 50  1  0
 13 51  1  0
 13 52  1  0
 13 53  1  0
 14 54  1  0
 18 55  1  0
 18 56  1  0
 19 57  1  0
 23 58  1  0
 23 59  1  0
 25 60  1  0
 26 61  1  0
 27 62  1  0
 28 63  1  0
 29 64  1  0
M  CHG  2  17  -1  32  -1
M  END
>  <meeko>  (1) 
{"is_sidechain": [false], "free_energy": -8.82, "intermolecular_energy": -16.038, "internal_energy": -1.367}

$$$$
5tmn_ligand
     RDKit          3D

 64 64  0  0  0  0  0  0  0  0999 V2000
   51.5600   22.1980  -13.1050 C   0  0  0  0  0  0  0  0  0  0  0  0
   50.9710   21.5450  -11.8570 C   0  0  0  0  0  0  0  0  0  0  0  0
   50.3660   22.6090  -10.9430 C   0  0  0  0  0  0  0  0  0  0  0  0
   50.0170   20.3630  -12.1520 C   0  0  0  0  0  0  0  0  0  0  0  0
   48.5530   20.4330  -11.6880 C   0  0  2  0  0  0  0  0  0  0  0  0
   48.1690   19.2620  -10.8770 N   0  0  0  0  0  0  0  0  0  0  0  0
   48.2290   17.9600  -11.3350 C   0  0  0  0  0  0  0  0  0  0  0  0
   48.4230   17.6740  -12.5140 O   0  0  0  0  0  0  0  0  0  0  0  0
   47.9850   16.9170  -10.2220 C   0  0  2  0  0  0  0  0  0  0  0  0
   46.5270   16.4630  -10.0940 C   0  0  0  0  0  0  0  0  0  0  0  0
   45.6120   17.3090   -9.1780 C   0  0  0  0  0  0  0  0  0  0  0  0
   44.4210   17.9330   -9.9010 C   0  0  0  0  0  0  0  0  0  0  0  0
   45.1380   16.5320   -7.9480 C   0  0  0  0  0  0  0  0  0  0  0  0
   48.5240   17.4510   -8.9430 N   0  0  0  0  0  0  0  0  0  0  0  0
   50.2040   17.4830   -8.5560 P   0  0  1  0  0  5  0  0  0  0  0  0
   50.8670   16.2260   -9.0510 O   0  0  0  0  0  0  0  0  0  0  0  0
   50.6710   18.8370   -9.0470 O   0  0  0  0  0  0  0  0  0  0  0  0
   50.3140   17.5750   -6.7050 C   0  0  0  0  0  0  0  0  0  0  0  0
   51.7460   17.6280   -6.4210 N   0  0  0  0  0  0  0  0  0  0  0  0
   52.2710   18.7740   -5.9100 C   0  0  0  0  0  0  0  0  0  0  0  0
   51.9080   19.9160   -6.1600 O   0  0  0  0  0  0  0  0  0  0  0  0
   53.2990   18.4570   -5.0870 O   0  0  0  0  0  0  0  0  0  0  0  0
   52.9670   17.4460   -4.1380 C   0  0  0  0  0  0  0  0  0  0  0  0
   53.2810   17.9490   -2.7480 C   0  0  0  0  0  0  0  0  0  0  0  0
   54.1700   19.0150   -2.5510 C   0  0  0  0  0  0  0  0  0  0  0  0
   54.4320   19.4900   -1.2640 C   0  0  0  0  0  0  0  0  0  0  0  0
   53.8040   18.9090   -0.1630 C   0  0  0  0  0  0  0  0  0  0  0  0
   52.9120   17.8550   -0.3470 C   0  0  0  0  0  0  0  0  0  0  0  0
   52.6490   17.3790   -1.6330 C   0  0  0  0  0  0  0  0  0  0  0  0
   47.5230   20.7430  -12.8230 C   0  0  0  0  0  0  0  0  0  0  0  0
   46.3290   20.9440  -12.4590 O   0  0  0  0  0  0  0  0  0  0  0  0
   48.0160   20.7340  -13.9950 O   0  0  0  0  0  0  0  0  0  0  0  0
   52.2693   22.9843  -12.8074 H   0  0  0  0  0  0  0  0  0  0  0  0
   52.0845   21.4385  -13.7034 H   0  0  0  0  0  0  0  0  0  0  0  0
   50.7506   22.6416  -13.7034 H   0  0  0  0  0  0  0  0  0  0  0  0
   51.8006   21.0680  -11.3146 H   0  0  0  0  0  0  0  0  0  0  0  0
   50.5275   22.3250   -9.8926 H   0  0  0  0  0  0  0  0  0  0  0  0
   50.8482   23.5780  -11.1391 H   0  0  0  0  0  0  0  0  0  0  0  0
   49.2867   22.6902  -11.1391 H   0  0  0  0  0  0  0  0  0  0  0  0
   49.9998   20.2316  -13.2440 H   0  0  0  0  0  0  0  0  0  0  0  0
   50.4363   19.5397  -11.5550 H   0  0  0  0  0  0  0  0  0  0  0  0
   48.5072   21.3141  -11.0311 H   0  0  0  0  0  0  0  0  0  0  0  0
   48.2790   19.4430   -9.8800 H   0  0  0  0  0  0  0  0  0  0  0  0
   48.5218   15.9979  -10.4998 H   0  0  0  0  0  0  0  0  0  0  0  0
   46.0866   16.4694  -11.1020 H   0  0  0  0  0  0  0  0  0  0  0  0
   46.5743   15.4723   -9.6184 H   0  0  0  0  0  0  0  0  0  0  0  0
   46.2516   18.1383   -8.8417 H   0  0  0  0  0  0  0  0  0  0  0  0
   43.6999   18.3108   -9.1612 H   0  0  0  0  0  0  0  0  0  0  0  0
   44.7693   18.7645  -10.5314 H   0  0  0  0  0  0  0  0  0  0  0  0
   43.9357   17.1733  -10.5314 H   0  0  0  0  0  0  0  0  0  0  0  0
   45.4586   17.0575   -7.0364 H   0  0  0  0  0  0  0  0  0  0  0  0
   44.0406   16.4577   -7.9617 H   0  0  0  0  0  0  0  0  0  0  0  0
   45.5741   15.5222   -7.9617 H   0  0  0  0  0  0  0  0  0  0  0  0
   48.0090   17.1440   -8.1160 H   0  0  0  0  0  0  0  0  0  0  0  0
   49.8106   18.4787   -6.3309 H   0  0  0  0  0  0  0  0  0  0  0  0
   49.8240   16.7202   -6.2159 H   0  0  0  0  0  0  0  0  0  0  0  0
   52.0230   16.8190   -5.8660 H   0  0  0  0  0  0  0  0  0  0  0  0
   51.8950   17.2104   -4.2109 H   0  0  0  0  0  0  0  0  0  0  0  0
   53.5527   16.5380   -4.3442 H   0  0  0  0  0  0  0  0  0  0  0  0
   54.6647   19.4806   -3.4162 H   0  0  0  0  0  0  0  0  0  0  0  0
   55.1348   20.3237   -1.1187 H   0  0  0  0  0  0  0  0  0  0  0  0
   54.0128   19.2827    0.8503 H   0  0  0  0  0  0  0  0  0  0  0  0
   52.4147   17.3976    0.5210 H   0  0  0  0  0  0  0  0  0  0  0  0
   51.9400   16.5497   -1.7730 H   0  0  0  0  0  0  0  0  0  0  0  0
  1  2  1  0
  2  3  1  0
  2  4  1  0
  4  5  1  0
  5  6  1  0
  6  7  1  0
  7  8  2  0
  7  9  1  0
  9 10  1  0
 10 11  1  0
 11 12  1  0
 11 13  1  0
  9 14  1  0
 14 15  1  0
 15 16  2  0
 15 17  1  6
 15 18  1  0
 18 19  1  0
 19 20  1  0
 20 21  2  0
 20 22  1  0
 22 23  1  0
 23 24  1  0
 24 25  2  0
 25 26  1  0
 26 27  2  0
 27 28  1  0
 28 29  2  0
  5 30  1  0
 30 31  2  0
 30 32  1  0
 29 24  1  0
  1 33  1  0
  1 34  1  0
  1 35  1  0
  2 36  1  0
  3 37  1  0
  3 38  1  0
  3 39  1  0
  4 40  1  0
  4 41  1  0
  5 42  1  1
  6 43  1  0
  9 44  1  6
 10 45  1  0
 10 46  1  0
 11 47  1  0
 12 48  1  0
 12 49  1  0
 12 50  1  0
 13 51  1  0
 13 52  1  0
 13 53  1  0
 14 54  1  0
 18 55  1  0
 18 56  1  0
 19 57  1  0
 23 58  1  0
 23 59  1  0
 25 60  1  0
 26 61  1  0
 27 62  1  0
 28 63  1  0
 29 64  1  0
M  CHG  2  17  -1  32  -1
M  END
>  <meeko>  (2) 
{"is_sidechain": [false], "free_energy": -8.196, "intermolecular_energy": -14.855, "internal_energy": -1.416}

$$$$
5tmn_ligand
     RDKit          3D

 64 64  0  0  0  0  0  0  0  0999 V2000
   44.8630   17.8420  -12.7480 C   0  0  0  0  0  0  0  0  0  0  0  0
   44.3930   18.7840  -11.6430 C   0  0  0  0  0  0  0  0  0  0  0  0
   44.8210   18.2490  -10.2780 C   0  0  0  0  0  0  0  0  0  0  0  0
   44.7680   20.2680  -11.8750 C   0  0  0  0  0  0  0  0  0  0  0  0
   46.1380   20.6200  -12.4770 C   0  0  2  0  0  0  0  0  0  0  0  0
   47.2410   20.3950  -11.5230 N   0  0  0  0  0  0  0  0  0  0  0  0
   48.3660   19.6490  -11.8150 C   0  0  0  0  0  0  0  0  0  0  0  0
   48.4630   18.9490  -12.8210 O   0  0  0  0  0  0  0  0  0  0  0  0
   49.4590   19.7540  -10.7290 C   0  0  2  0  0  0  0  0  0  0  0  0
   50.6330   20.6650  -11.1040 C   0  0  0  0  0  0  0  0  0  0  0  0
   50.3270   21.8340  -12.0700 C   0  0  0  0  0  0  0  0  0  0  0  0
   50.4430   23.2130  -11.4270 C   0  0  0  0  0  0  0  0  0  0  0  0
   51.1680   21.7720  -13.3460 C   0  0  0  0  0  0  0  0  0  0  0  0
   49.9030   18.3820  -10.3670 N   0  0  0  0  0  0  0  0  0  0  0  0
   49.6560   17.6790   -8.8120 P   0  0  1  0  0  5  0  0  0  0  0  0
   48.1890   17.4330   -8.5890 O   0  0  0  0  0  0  0  0  0  0  0  0
   50.6390   16.5280   -8.7660 O   0  0  0  0  0  0  0  0  0  0  0  0
   50.2910   18.9080   -7.5740 C   0  0  0  0  0  0  0  0  0  0  0  0
   51.3080   18.1810   -6.8170 N   0  0  0  0  0  0  0  0  0  0  0  0
   51.9540   18.8200   -5.8040 C   0  0  0  0  0  0  0  0  0  0  0  0
   52.2510   20.0060   -5.7640 O   0  0  0  0  0  0  0  0  0  0  0  0
   52.2510   17.9190   -4.8370 O   0  0  0  0  0  0  0  0  0  0  0  0
   53.5770   18.0580   -4.3300 C   0  0  0  0  0  0  0  0  0  0  0  0
   53.5160   18.2610   -2.8340 C   0  0  0  0  0  0  0  0  0  0  0  0
   52.6310   17.5160   -2.0410 C   0  0  0  0  0  0  0  0  0  0  0  0
   52.6010   17.6920   -0.6550 C   0  0  0  0  0  0  0  0  0  0  0  0
   53.4600   18.6080   -0.0490 C   0  0  0  0  0  0  0  0  0  0  0  0
   54.3500   19.3480   -0.8250 C   0  0  0  0  0  0  0  0  0  0  0  0
   54.3800   19.1720   -2.2100 C   0  0  0  0  0  0  0  0  0  0  0  0
   46.2090   22.0260  -13.1570 C   0  0  0  0  0  0  0  0  0  0  0  0
   47.1660   22.7740  -12.8040 O   0  0  0  0  0  0  0  0  0  0  0  0
   45.2690   22.2600  -13.9800 O   0  0  0  0  0  0  0  0  0  0  0  0
   45.3111   16.9438  -12.2981 H   0  0  0  0  0  0  0  0  0  0  0  0
   44.0046   17.5507  -13.3712 H   0  0  0  0  0  0  0  0  0  0  0  0
   45.6120   18.3526  -13.3712 H   0  0  0  0  0  0  0  0  0  0  0  0
   43.2934   18.7958  -11.6693 H   0  0  0  0  0  0  0  0  0  0  0  0
   44.3447   18.8443   -9.4851 H   0  0  0  0  0  0  0  0  0  0  0  0
   44.5119   17.1976  -10.1829 H   0  0  0  0  0  0  0  0  0  0  0  0
   45.9146   18.3197  -10.1829 H   0  0  0  0  0  0  0  0  0  0  0  0
   44.0060   20.6887  -12.5476 H   0  0  0  0  0  0  0  0  0  0  0  0
   44.8203   20.6822  -10.8573 H   0  0  0  0  0  0  0  0  0  0  0  0
   46.2730   19.9089  -13.3053 H   0  0  0  0  0  0  0  0  0  0  0  0
   47.3090   21.1510  -10.8430 H   0  0  0  0  0  0  0  0  0  0  0  0
   49.0146   20.2474   -9.8520 H   0  0  0  0  0  0  0  0  0  0  0  0
   51.0295   21.0972  -10.1734 H   0  0  0  0  0  0  0  0  0  0  0  0
   51.3371   20.0184  -11.6481 H   0  0  0  0  0  0  0  0  0  0  0  0
   49.2700   21.6960  -12.3414 H   0  0  0  0  0  0  0  0  0  0  0  0
   50.4342   23.1089  -10.3320 H   0  0  0  0  0  0  0  0  0  0  0  0
   51.3842   23.6868  -11.7428 H   0  0  0  0  0  0  0  0  0  0  0  0
   49.5942   23.8374  -11.7428 H   0  0  0  0  0  0  0  0  0  0  0  0
   52.2325   21.6935  -13.0801 H   0  0  0  0  0  0  0  0  0  0  0  0
   50.8721   20.8932  -13.9378 H   0  0  0  0  0  0  0  0  0  0  0  0
   51.0042   22.6847  -13.9378 H   0  0  0  0  0  0  0  0  0  0  0  0
   50.8520   18.1590  -10.6740 H   0  0  0  0  0  0  0  0  0  0  0  0
   50.7335   19.7773   -8.0824 H   0  0  0  0  0  0  0  0  0  0  0  0
   49.4912   19.2985   -6.9276 H   0  0  0  0  0  0  0  0  0  0  0  0
   50.9380   17.2830   -6.5070 H   0  0  0  0  0  0  0  0  0  0  0  0
   54.1545   17.1492   -4.5551 H   0  0  0  0  0  0  0  0  0  0  0  0
   54.0651   18.9236   -4.8017 H   0  0  0  0  0  0  0  0  0  0  0  0
   51.9555   16.7877   -2.5136 H   0  0  0  0  0  0  0  0  0  0  0  0
   51.8993   17.1076   -0.0417 H   0  0  0  0  0  0  0  0  0  0  0  0
   53.4351   18.7465    1.0420 H   0  0  0  0  0  0  0  0  0  0  0  0
   55.0283   20.0701   -0.3470 H   0  0  0  0  0  0  0  0  0  0  0  0
   55.0887   19.7540   -2.8176 H   0  0  0  0  0  0  0  0  0  0  0  0
  1  2  1  0
  2  3  1  0
  2  4  1  0
  4  5  1  0
  5  6  1  0
  6  7  1  0
  7  8  2  0
  7  9  1  0
  9 10  1  0
 10 11  1  0
 11 12  1  0
 11 13  1  0
  9 14  1  0
 14 15  1  0
 15 16  2  0
 15 17  1  6
 15 18  1  0
 18 19  1  0
 19 20  1  0
 20 21  2  0
 20 22  1  0
 22 23  1  0
 23 24  1  0
 24 25  2  0
 25 26  1  0
 26 27  2  0
 27 28  1  0
 28 29  2  0
  5 30  1  0
 30 31  2  0
 30 32  1  0
 29 24  1  0
  1 33  1  0
  1 34  1  0
  1 35  1  0
  2 36  1  0
  3 37  1  0
  3 38  1  0
  3 39  1  0
  4 40  1  0
  4 41  1  0
  5 42  1  6
  6 43  1  0
  9 44  1  1
 10 45  1  0
 10 46  1  0
 11 47  1  0
 12 48  1  0
 12 49  1  0
 12 50  1  0
 13 51  1  0
 13 52  1  0
 13 53  1  0
 14 54  1  0
 18 55  1  0
 18 56  1  0
 19 57  1  0
 23 58  1  0
 23 59  1  0
 25 60  1  0
 26 61  1  0
 27 62  1  0
 28 63  1  0
 29 64  1  0
M  CHG  2  17  -1  32  -1
M  END
>  <meeko>  (3) 
{"is_sidechain": [false], "free_energy": -8.179, "intermolecular_energy": -14.938, "internal_energy": -1.304}

$$$$
5tmn_ligand
     RDKit          3D

 64 64  0  0  0  0  0  0  0  0999 V2000
   44.3000   17.8350  -12.2890 C   0  0  0  0  0  0  0  0  0  0  0  0
   43.9870   19.0990  -11.4930 C   0  0  0  0  0  0  0  0  0  0  0  0
   42.9070   18.8120  -10.4510 C   0  0  0  0  0  0  0  0  0  0  0  0
   45.2360   19.8070  -10.9150 C   0  0  0  0  0  0  0  0  0  0  0  0
   46.5400   19.8350  -11.7290 C   0  0  2  0  0  0  0  0  0  0  0  0
   47.7150   20.1430  -10.8910 N   0  0  0  0  0  0  0  0  0  0  0  0
   48.9730   19.6210  -11.1150 C   0  0  0  0  0  0  0  0  0  0  0  0
   49.1880   18.7100  -11.9110 O   0  0  0  0  0  0  0  0  0  0  0  0
   50.0630   20.2720  -10.2350 C   0  0  2  0  0  0  0  0  0  0  0  0
   51.0530   21.1510  -11.0060 C   0  0  0  0  0  0  0  0  0  0  0  0
   50.4620   22.0780  -12.0940 C   0  0  0  0  0  0  0  0  0  0  0  0
   50.9190   23.5300  -11.9860 C   0  0  0  0  0  0  0  0  0  0  0  0
   50.7080   21.5490  -13.5080 C   0  0  0  0  0  0  0  0  0  0  0  0
   50.7440   19.2050   -9.4560 N   0  0  0  0  0  0  0  0  0  0  0  0
   50.9410   19.2530   -7.7440 P   0  0  1  0  0  5  0  0  0  0  0  0
   52.3630   18.9150   -7.3830 O   0  0  0  0  0  0  0  0  0  0  0  0
   50.3460   20.5850   -7.3390 O   0  0  0  0  0  0  0  0  0  0  0  0
   49.7870   17.9760   -7.0470 C   0  0  0  0  0  0  0  0  0  0  0  0
   48.9660   17.5600   -8.1810 N   0  0  0  0  0  0  0  0  0  0  0  0
   49.2590   16.3880   -8.8080 C   0  0  0  0  0  0  0  0  0  0  0  0
   50.3730   15.9090   -8.9710 O   0  0  0  0  0  0  0  0  0  0  0  0
   48.1090   15.8340   -9.2610 O   0  0  0  0  0  0  0  0  0  0  0  0
   47.1230   16.8000   -9.6190 C   0  0  0  0  0  0  0  0  0  0  0  0
   45.7530   16.2480   -9.3000 C   0  0  0  0  0  0  0  0  0  0  0  0
   45.2160   15.1810  -10.0340 C   0  0  0  0  0  0  0  0  0  0  0  0
   43.9600   14.6610   -9.7130 C   0  0  0  0  0  0  0  0  0  0  0  0
   43.2310   15.1990   -8.6530 C   0  0  0  0  0  0  0  0  0  0  0  0
   43.7570   16.2540   -7.9110 C   0  0  0  0  0  0  0  0  0  0  0  0
   45.0130   16.7740   -8.2300 C   0  0  0  0  0  0  0  0  0  0  0  0
   46.4800   20.7090  -13.0250 C   0  0  0  0  0  0  0  0  0  0  0  0
   46.7710   20.1280  -14.1090 O   0  0  0  0  0  0  0  0  0  0  0  0
   46.1600   21.9230  -12.8240 O   0  0  0  0  0  0  0  0  0  0  0  0
   44.5052   17.0063  -11.5954 H   0  0  0  0  0  0  0  0  0  0  0  0
   43.4384   17.5780  -12.9227 H   0  0  0  0  0  0  0  0  0  0  0  0
   45.1820   18.0097  -12.9227 H   0  0  0  0  0  0  0  0  0  0  0  0
   43.5828   19.8386  -12.1999 H   0  0  0  0  0  0  0  0  0  0  0  0
   43.3314   18.9248   -9.4424 H   0  0  0  0  0  0  0  0  0  0  0  0
   42.0754   19.5203  -10.5802 H   0  0  0  0  0  0  0  0  0  0  0  0
   42.5367   17.7843  -10.5802 H   0  0  0  0  0  0  0  0  0  0  0  0
   44.9526   20.8537  -10.7303 H   0  0  0  0  0  0  0  0  0  0  0  0
   45.4944   19.1956  -10.0378 H   0  0  0  0  0  0  0  0  0  0  0  0
   46.6640   18.8062  -12.0981 H   0  0  0  0  0  0  0  0  0  0  0  0
   47.6270   21.0540  -10.4420 H   0  0  0  0  0  0  0  0  0  0  0  0
   49.5664   20.9764   -9.5515 H   0  0  0  0  0  0  0  0  0  0  0  0
   51.5736   21.7864  -10.2744 H   0  0  0  0  0  0  0  0  0  0  0  0
   51.7009   20.4469  -11.5487 H   0  0  0  0  0  0  0  0  0  0  0  0
   49.3791   22.0699  -11.9009 H   0  0  0  0  0  0  0  0  0  0  0  0
   51.0068   23.8089  -10.9256 H   0  0  0  0  0  0  0  0  0  0  0  0
   51.8965   23.6442  -12.4773 H   0  0  0  0  0  0  0  0  0  0  0  0
   50.1831   24.1835  -12.4773 H   0  0  0  0  0  0  0  0  0  0  0  0
   51.1712   20.5529  -13.4514 H   0  0  0  0  0  0  0  0  0  0  0  0
   49.7504   21.4781  -14.0447 H   0  0  0  0  0  0  0  0  0  0  0  0
   51.3792   22.2356  -14.0447 H   0  0  0  0  0  0  0  0  0  0  0  0
   51.6200   18.8830   -9.8710 H   0  0  0  0  0  0  0  0  0  0  0  0
   50.3512   17.1226   -6.6428 H   0  0  0  0  0  0  0  0  0  0  0  0
   49.1818   18.3704   -6.2175 H   0  0  0  0  0  0  0  0  0  0  0  0
   47.9780   17.6060   -7.9340 H   0  0  0  0  0  0  0  0  0  0  0  0
   47.2895   17.7255   -9.0483 H   0  0  0  0  0  0  0  0  0  0  0  0
   47.1930   17.0207  -10.6944 H   0  0  0  0  0  0  0  0  0  0  0  0
   45.7881   14.7501  -10.8689 H   0  0  0  0  0  0  0  0  0  0  0  0
   43.5454   13.8261  -10.2971 H   0  0  0  0  0  0  0  0  0  0  0  0
   42.2408   14.7904   -8.4029 H   0  0  0  0  0  0  0  0  0  0  0  0
   43.1829   16.6775   -7.0737 H   0  0  0  0  0  0  0  0  0  0  0  0
   45.4261   17.6034   -7.6372 H   0  0  0  0  0  0  0  0  0  0  0  0
  1  2  1  0
  2  3  1  0
  2  4  1  0
  4  5  1  0
  5  6  1  0
  6  7  1  0
  7  8  2  0
  7  9  1  0
  9 10  1  0
 10 11  1  0
 11 12  1  0
 11 13  1  0
  9 14  1  0
 14 15  1  0
 15 16  2  0
 15 17  1  1
 15 18  1  0
 18 19  1  0
 19 20  1  0
 20 21  2  0
 20 22  1  0
 22 23  1  0
 23 24  1  0
 24 25  2  0
 25 26  1  0
 26 27  2  0
 27 28  1  0
 28 29  2  0
  5 30  1  0
 30 31  2  0
 30 32  1  0
 29 24  1  0
  1 33  1  0
  1 34  1  0
  1 35  1  0
  2 36  1  0
  3 37  1  0
  3 38  1  0
  3 39  1  0
  4 40  1  0
  4 41  1  0
  5 42  1  6
  6 43  1  0
  9 44  1  1
 10 45  1  0
 10 46  1  0
 11 47  1  0
 12 48  1  0
 12 49  1  0
 12 50  1  0
 13 51  1  0
 13 52  1  0
 13 53  1  0
 14 54  1  0
 18 55  1  0
 18 56  1  0
 19 57  1  0
 23 58  1  0
 23 59  1  0
 25 60  1  0
 26 61  1  0
 27 62  1  0
 28 63  1  0
 29 64  1  0
M  CHG  2  17  -1  32  -1
M  END
>  <meeko>  (4) 
{"is_sidechain": [false], "free_energy": -8.108, "intermolecular_energy": -13.172, "internal_energy": -2.94}

$$$$
5tmn_ligand
     RDKit          3D

 64 64  0  0  0  0  0  0  0  0999 V2000
   47.8070   23.3500  -13.5420 C   0  0  0  0  0  0  0  0  0  0  0  0
   47.6710   21.9860  -12.8700 C   0  0  0  0  0  0  0  0  0  0  0  0
   46.2220   21.5080  -12.9360 C   0  0  0  0  0  0  0  0  0  0  0  0
   48.6960   20.9340  -13.3600 C   0  0  0  0  0  0  0  0  0  0  0  0
   49.6980   20.3280  -12.3640 C   0  0  2  0  0  0  0  0  0  0  0  0
   49.0540   19.3890  -11.4260 N   0  0  0  0  0  0  0  0  0  0  0  0
   48.6860   18.1010  -11.7630 C   0  0  0  0  0  0  0  0  0  0  0  0
   48.6860   17.6860  -12.9200 O   0  0  0  0  0  0  0  0  0  0  0  0
   48.2380   17.2630  -10.5460 C   0  0  2  0  0  0  0  0  0  0  0  0
   46.7460   16.9160  -10.5350 C   0  0  0  0  0  0  0  0  0  0  0  0
   45.8190   17.8530   -9.7260 C   0  0  0  0  0  0  0  0  0  0  0  0
   45.0480   18.8530  -10.5840 C   0  0  0  0  0  0  0  0  0  0  0  0
   44.8580   17.0830   -8.8180 C   0  0  0  0  0  0  0  0  0  0  0  0
   48.6640   17.9620   -9.3050 N   0  0  0  0  0  0  0  0  0  0  0  0
   50.2050   17.7370   -8.5650 P   0  0  1  0  0  5  0  0  0  0  0  0
   50.7880   16.4160   -8.9870 O   0  0  0  0  0  0  0  0  0  0  0  0
   50.9460   19.0260   -8.8540 O   0  0  0  0  0  0  0  0  0  0  0  0
   49.9130   17.7490   -6.7310 C   0  0  0  0  0  0  0  0  0  0  0  0
   51.1370   17.1940   -6.1570 N   0  0  0  0  0  0  0  0  0  0  0  0
   52.0130   18.0350   -5.5440 C   0  0  0  0  0  0  0  0  0  0  0  0
   52.2520   19.1930   -5.8570 O   0  0  0  0  0  0  0  0  0  0  0  0
   52.6180   17.3730   -4.5270 O   0  0  0  0  0  0  0  0  0  0  0  0
   53.7500   18.0630   -4.0030 C   0  0  0  0  0  0  0  0  0  0  0  0
   53.6080   18.1790   -2.5030 C   0  0  0  0  0  0  0  0  0  0  0  0
   52.6800   17.3940   -1.8040 C   0  0  0  0  0  0  0  0  0  0  0  0
   52.5750   17.4900   -0.4140 C   0  0  0  0  0  0  0  0  0  0  0  0
   53.4010   18.3660    0.2900 C   0  0  0  0  0  0  0  0  0  0  0  0
   54.3330   19.1440   -0.3930 C   0  0  0  0  0  0  0  0  0  0  0  0
   54.4390   19.0490   -1.7820 C   0  0  0  0  0  0  0  0  0  0  0  0
   50.6090   21.3730  -11.6390 C   0  0  0  0  0  0  0  0  0  0  0  0
   51.6200   21.7790  -12.2810 O   0  0  0  0  0  0  0  0  0  0  0  0
   50.2270   21.6760  -10.4650 O   0  0  0  0  0  0  0  0  0  0  0  0
   47.8850   24.1319  -12.7722 H   0  0  0  0  0  0  0  0  0  0  0  0
   48.7107   23.3614  -14.1690 H   0  0  0  0  0  0  0  0  0  0  0  0
   46.9233   23.5396  -14.1690 H   0  0  0  0  0  0  0  0  0  0  0  0
   47.9331   22.1171  -11.8098 H   0  0  0  0  0  0  0  0  0  0  0  0
   45.8316   21.3792  -11.9157 H   0  0  0  0  0  0  0  0  0  0  0  0
   45.6140   22.2532  -13.4699 H   0  0  0  0  0  0  0  0  0  0  0  0
   46.1768   20.5473  -13.4699 H   0  0  0  0  0  0  0  0  0  0  0  0
   48.1187   20.0976  -13.7810 H   0  0  0  0  0  0  0  0  0  0  0  0
   49.3342   21.5008  -14.0538 H   0  0  0  0  0  0  0  0  0  0  0  0
   50.3933   19.7432  -12.9841 H   0  0  0  0  0  0  0  0  0  0  0  0
   49.2960   19.5990  -10.4590 H   0  0  0  0  0  0  0  0  0  0  0  0
   48.7331   16.2830  -10.6130 H   0  0  0  0  0  0  0  0  0  0  0  0
   46.3955   16.9200  -11.5777 H   0  0  0  0  0  0  0  0  0  0  0  0
   46.6807   15.9405  -10.0310 H   0  0  0  0  0  0  0  0  0  0  0  0
   46.5048   18.4365   -9.0942 H   0  0  0  0  0  0  0  0  0  0  0  0
   44.5069   19.5548   -9.9323 H   0  0  0  0  0  0  0  0  0  0  0  0
   45.7520   19.4108  -11.2190 H   0  0  0  0  0  0  0  0  0  0  0  0
   44.3295   18.3140  -11.2190 H   0  0  0  0  0  0  0  0  0  0  0  0
   45.1080   17.2833   -7.7657 H   0  0  0  0  0  0  0  0  0  0  0  0
   43.8259   17.4069   -9.0178 H   0  0  0  0  0  0  0  0  0  0  0  0
   44.9491   16.0051   -9.0178 H   0  0  0  0  0  0  0  0  0  0  0  0
   47.9540   17.9730   -8.5710 H   0  0  0  0  0  0  0  0  0  0  0  0
   49.7465   18.7751   -6.3714 H   0  0  0  0  0  0  0  0  0  0  0  0
   49.0210   17.1709   -6.4477 H   0  0  0  0  0  0  0  0  0  0  0  0
   50.9150   16.3970   -5.5620 H   0  0  0  0  0  0  0  0  0  0  0  0
   54.6662   17.5039   -4.2441 H   0  0  0  0  0  0  0  0  0  0  0  0
   53.8105   19.0671   -4.4481 H   0  0  0  0  0  0  0  0  0  0  0  0
   52.0299   16.6975   -2.3539 H   0  0  0  0  0  0  0  0  0  0  0  0
   51.8403   16.8742    0.1255 H   0  0  0  0  0  0  0  0  0  0  0  0
   53.3165   18.4425    1.3841 H   0  0  0  0  0  0  0  0  0  0  0  0
   54.9858   19.8336    0.1622 H   0  0  0  0  0  0  0  0  0  0  0  0
   55.1806   19.6617   -2.3154 H   0  0  0  0  0  0  0  0  0  0  0  0
  1  2  1  0
  2  3  1  0
  2  4  1  0
  4  5  1  0
  5  6  1  0
  6  7  1  0
  7  8  2  0
  7  9  1  0
  9 10  1  0
 10 11  1  0
 11 12  1  0
 11 13  1  0
  9 14  1  0
 14 15  1  0
 15 16  2  0
 15 17  1  1
 15 18  1  0
 18 19  1  0
 19 20  1  0
 20 21  2  0
 20 22  1  0
 22 23  1  0
 23 24  1  0
 24 25  2  0
 25 26  1  0
 26 27  2  0
 27 28  1  0
 28 29  2  0
  5 30  1  0
 30 31  2  0
 30 32  1  0
 29 24  1  0
  1 33  1  0
  1 34  1  0
  1 35  1  0
  2 36  1  0
  3 37  1  0
  3 38  1  0
  3 39  1  0
  4 40  1  0
  4 41  1  0
  5 42  1  6
  6 43  1  0
  9 44  1  6
 10 45  1  0
 10 46  1  0
 11 47  1  0
 12 48  1  0
 12 49  1  0
 12 50  1  0
 13 51  1  0
 13 52  1  0
 13 53  1  0
 14 54  1  0
 18 55  1  0
 18 56  1  0
 19 57  1  0
 23 58  1  0
 23 59  1  0
 25 60  1  0
 26 61  1  0
 27 62  1  0
 28 63  1  0
 29 64  1  0
M  CHG  2  17  -1  32  -1
M  END
>  <meeko>  (5) 
{"is_sidechain": [false], "free_energy": -7.955, "intermolecular_energy": -14.302, "internal_energy": -1.531}

$$$$
5tmn_ligand
     RDKit          3D

 64 64  0  0  0  0  0  0  0  0999 V2000
   46.2110   18.1490  -13.8450 C   0  0  0  0  0  0  0  0  0  0  0  0
   45.3380   17.4850  -12.7840 C   0  0  0  0  0  0  0  0  0  0  0  0
   44.4060   16.4630  -13.4320 C   0  0  0  0  0  0  0  0  0  0  0  0
   46.1260   16.9290  -11.5740 C   0  0  0  0  0  0  0  0  0  0  0  0
   46.3760   17.8260  -10.3510 C   0  0  2  0  0  0  0  0  0  0  0  0
   47.7440   18.3820  -10.3380 N   0  0  0  0  0  0  0  0  0  0  0  0
   48.0570   19.6560  -10.7700 C   0  0  0  0  0  0  0  0  0  0  0  0
   47.2640   20.3700  -11.3790 O   0  0  0  0  0  0  0  0  0  0  0  0
   49.5100   20.0630  -10.4450 C   0  0  2  0  0  0  0  0  0  0  0  0
   50.3740   20.3490  -11.6780 C   0  0  0  0  0  0  0  0  0  0  0  0
   51.1090   21.7090  -11.7140 C   0  0  0  0  0  0  0  0  0  0  0  0
   51.5170   22.1550  -13.1160 C   0  0  0  0  0  0  0  0  0  0  0  0
   50.3210   22.8180  -11.0140 C   0  0  0  0  0  0  0  0  0  0  0  0
   50.1090   19.0260   -9.5650 N   0  0  0  0  0  0  0  0  0  0  0  0
   50.7140   19.3500   -7.9840 P   0  0  1  0  0  5  0  0  0  0  0  0
   52.2130   19.2190   -7.9730 O   0  0  0  0  0  0  0  0  0  0  0  0
   50.0590   20.6600   -7.5970 O   0  0  0  0  0  0  0  0  0  0  0  0
   49.9560   18.0800   -6.8610 C   0  0  0  0  0  0  0  0  0  0  0  0
   50.8130   18.0730   -5.6770 N   0  0  0  0  0  0  0  0  0  0  0  0
   51.6490   17.0190   -5.4790 C   0  0  0  0  0  0  0  0  0  0  0  0
   51.4340   15.8520   -5.7780 O   0  0  0  0  0  0  0  0  0  0  0  0
   52.7720   17.4590   -4.8610 O   0  0  0  0  0  0  0  0  0  0  0  0
   52.6260   18.7600   -4.2940 C   0  0  0  0  0  0  0  0  0  0  0  0
   52.9790   18.7010   -2.8260 C   0  0  0  0  0  0  0  0  0  0  0  0
   52.0270   18.3210   -1.8690 C   0  0  0  0  0  0  0  0  0  0  0  0
   52.3710   18.2440   -0.5180 C   0  0  0  0  0  0  0  0  0  0  0  0
   53.6720   18.5390   -0.1110 C   0  0  0  0  0  0  0  0  0  0  0  0
   54.6290   18.9090   -1.0520 C   0  0  0  0  0  0  0  0  0  0  0  0
   54.2870   18.9860   -2.4030 C   0  0  0  0  0  0  0  0  0  0  0  0
   45.9730   17.1890   -8.9810 C   0  0  0  0  0  0  0  0  0  0  0  0
   46.9130   16.6990   -8.2910 O   0  0  0  0  0  0  0  0  0  0  0  0
   44.7270   17.2230   -8.7330 O   0  0  0  0  0  0  0  0  0  0  0  0
   46.9947   18.7451  -13.3545 H   0  0  0  0  0  0  0  0  0  0  0  0
   46.6775   17.3754  -14.4726 H   0  0  0  0  0  0  0  0  0  0  0  0
   45.5901   18.8051  -14.4726 H   0  0  0  0  0  0  0  0  0  0  0  0
   44.7131   18.2719  -12.3364 H   0  0  0  0  0  0  0  0  0  0  0  0
   43.8858   15.8926  -12.6484 H   0  0  0  0  0  0  0  0  0  0  0  0
   43.6669   16.9854  -14.0571 H   0  0  0  0  0  0  0  0  0  0  0  0
   44.9941   15.7750  -14.0571 H   0  0  0  0  0  0  0  0  0  0  0  0
   45.5777   16.0455  -11.2149 H   0  0  0  0  0  0  0  0  0  0  0  0
   47.1347   16.7622  -11.9799 H   0  0  0  0  0  0  0  0  0  0  0  0
   45.6811   18.6698  -10.4737 H   0  0  0  0  0  0  0  0  0  0  0  0
   48.3190   17.9460   -9.6200 H   0  0  0  0  0  0  0  0  0  0  0  0
   49.4782   21.0281   -9.9182 H   0  0  0  0  0  0  0  0  0  0  0  0
   51.1352   19.5575  -11.7418 H   0  0  0  0  0  0  0  0  0  0  0  0
   49.6695   20.3801  -12.5222 H   0  0  0  0  0  0  0  0  0  0  0  0
   52.0380   21.5324  -11.1520 H   0  0  0  0  0  0  0  0  0  0  0  0
   52.2578   22.9648  -13.0421 H   0  0  0  0  0  0  0  0  0  0  0  0
   51.9563   21.3045  -13.6580 H   0  0  0  0  0  0  0  0  0  0  0  0
   50.6309   22.5170  -13.6580 H   0  0  0  0  0  0  0  0  0  0  0  0
   50.4070   22.6970   -9.9241 H   0  0  0  0  0  0  0  0  0  0  0  0
   50.7269   23.7974  -11.3073 H   0  0  0  0  0  0  0  0  0  0  0  0
   49.2626   22.7570  -11.3073 H   0  0  0  0  0  0  0  0  0  0  0  0
   50.7690   18.4080  -10.0410 H   0  0  0  0  0  0  0  0  0  0  0  0
   48.9273   18.3632   -6.5936 H   0  0  0  0  0  0  0  0  0  0  0  0
   49.8933   17.0895   -7.3353 H   0  0  0  0  0  0  0  0  0  0  0  0
   51.3130   18.9580   -5.6010 H   0  0  0  0  0  0  0  0  0  0  0  0
   53.2988   19.4631   -4.8068 H   0  0  0  0  0  0  0  0  0  0  0  0
   51.5872   19.1018   -4.4123 H   0  0  0  0  0  0  0  0  0  0  0  0
   51.0010   18.0817   -2.1852 H   0  0  0  0  0  0  0  0  0  0  0  0
   51.6155   17.9505    0.2258 H   0  0  0  0  0  0  0  0  0  0  0  0
   53.9420   18.4793    0.9537 H   0  0  0  0  0  0  0  0  0  0  0  0
   55.6552   19.1408   -0.7306 H   0  0  0  0  0  0  0  0  0  0  0  0
   55.0490   19.2725   -3.1428 H   0  0  0  0  0  0  0  0  0  0  0  0
  1  2  1  0
  2  3  1  0
  2  4  1  0
  4  5  1  0
  5  6  1  0
  6  7  1  0
  7  8  2  0
  7  9  1  0
  9 10  1  0
 10 11  1  0
 11 12  1  0
 11 13  1  0
  9 14  1  0
 14 15  1  0
 15 16  2  0
 15 17  1  1
 15 18  1  0
 18 19  1  0
 19 20  1  0
 20 21  2  0
 20 22  1  0
 22 23  1  0
 23 24  1  0
 24 25  2  0
 25 26  1  0
 26 27  2  0
 27 28  1  0
 28 29  2  0
  5 30  1  0
 30 31  2  0
 30 32  1  0
 29 24  1  0
  1 33  1  0
  1 34  1  0
  1 35  1  0
  2 36  1  0
  3 37  1  0
  3 38  1  0
  3 39  1  0
  4 40  1  0
  4 41  1  0
  5 42  1  6
  6 43  1  0
  9 44  1  1
 10 45  1  0
 10 46  1  0
 11 47  1  0
 12 48  1  0
 12 49  1  0
 12 50  1  0
 13 51  1  0
 13 52  1  0
 13 53  1  0
 14 54  1  0
 18 55  1  0
 18 56  1  0
 19 57  1  0
 23 58  1  0
 23 59  1  0
 25 60  1  0
 26 61  1  0
 27 62  1  0
 28 63  1  0
 29 64  1  0
M  CHG  2  17  -1  32  -1
M  END
>  <meeko>  (6) 
{"is_sidechain": [false], "free_energy": -7.875, "intermolecular_energy": -14.133, "internal_energy": -1.554}

$$$$
5tmn_ligand
     RDKit          3D

 64 64  0  0  0  0  0  0  0  0999 V2000
   43.2320   15.5680  -12.1210 C   0  0  0  0  0  0  0  0  0  0  0  0
   44.2770   16.6180  -11.7560 C   0  0  0  0  0  0  0  0  0  0  0  0
   44.7210   17.3760  -13.0070 C   0  0  0  0  0  0  0  0  0  0  0  0
   43.8650   17.5410  -10.5840 C   0  0  0  0  0  0  0  0  0  0  0  0
   44.7380   17.5990   -9.3200 C   0  0  2  0  0  0  0  0  0  0  0  0
   46.1800   17.5690   -9.6360 N   0  0  0  0  0  0  0  0  0  0  0  0
   46.9150   18.6900   -9.9670 C   0  0  0  0  0  0  0  0  0  0  0  0
   46.4010   19.7780  -10.2160 O   0  0  0  0  0  0  0  0  0  0  0  0
   48.4340   18.4180  -10.0330 C   0  0  2  0  0  0  0  0  0  0  0  0
   49.0680   18.7180  -11.3950 C   0  0  0  0  0  0  0  0  0  0  0  0
   49.9200   20.0050  -11.4990 C   0  0  0  0  0  0  0  0  0  0  0  0
   49.1620   21.2050  -12.0620 C   0  0  0  0  0  0  0  0  0  0  0  0
   50.5850   20.3740  -10.1720 C   0  0  0  0  0  0  0  0  0  0  0  0
   48.6870   17.0220   -9.5880 N   0  0  0  0  0  0  0  0  0  0  0  0
   49.6470   16.6190   -8.2140 P   0  0  1  0  0  5  0  0  0  0  0  0
   48.9400   15.5850   -7.3820 O   0  0  0  0  0  0  0  0  0  0  0  0
   51.0170   16.3280   -8.7920 O   0  0  0  0  0  0  0  0  0  0  0  0
   49.8560   18.1860   -7.2410 C   0  0  0  0  0  0  0  0  0  0  0  0
   50.6360   17.7950   -6.0700 N   0  0  0  0  0  0  0  0  0  0  0  0
   51.8070   18.4410   -5.8160 C   0  0  0  0  0  0  0  0  0  0  0  0
   52.5920   18.8770   -6.6460 O   0  0  0  0  0  0  0  0  0  0  0  0
   51.9910   18.5030   -4.4750 O   0  0  0  0  0  0  0  0  0  0  0  0
   53.3520   18.3250   -4.0870 C   0  0  0  0  0  0  0  0  0  0  0  0
   53.4510   18.4070   -2.5810 C   0  0  0  0  0  0  0  0  0  0  0  0
   52.6000   17.6530   -1.7600 C   0  0  0  0  0  0  0  0  0  0  0  0
   52.7180   17.7160   -0.3700 C   0  0  0  0  0  0  0  0  0  0  0  0
   53.6910   18.5270    0.2130 C   0  0  0  0  0  0  0  0  0  0  0  0
   54.5480   19.2740   -0.5920 C   0  0  0  0  0  0  0  0  0  0  0  0
   54.4310   19.2120   -1.9820 C   0  0  0  0  0  0  0  0  0  0  0  0
   44.3440   16.5730   -8.2080 C   0  0  0  0  0  0  0  0  0  0  0  0
   43.1300   16.2230   -8.1700 O   0  0  0  0  0  0  0  0  0  0  0  0
   45.3050   16.2240   -7.4510 O   0  0  0  0  0  0  0  0  0  0  0  0
   42.8058   15.1398  -11.2017 H   0  0  0  0  0  0  0  0  0  0  0  0
   42.4318   16.0372  -12.7122 H   0  0  0  0  0  0  0  0  0  0  0  0
   43.7050   14.7700  -12.7122 H   0  0  0  0  0  0  0  0  0  0  0  0
   45.1519   16.0829  -11.3583 H   0  0  0  0  0  0  0  0  0  0  0  0
   45.2565   18.2902  -12.7111 H   0  0  0  0  0  0  0  0  0  0  0  0
   45.3880   16.7377  -13.6051 H   0  0  0  0  0  0  0  0  0  0  0  0
   43.8380   17.6456  -13.6051 H   0  0  0  0  0  0  0  0  0  0  0  0
   43.8155   18.5640  -10.9852 H   0  0  0  0  0  0  0  0  0  0  0  0
   42.9238   17.0980  -10.2264 H   0  0  0  0  0  0  0  0  0  0  0  0
   44.5226   18.5808   -8.8732 H   0  0  0  0  0  0  0  0  0  0  0  0
   46.6470   16.7850   -9.1820 H   0  0  0  0  0  0  0  0  0  0  0  0
   48.9314   19.1240   -9.3518 H   0  0  0  0  0  0  0  0  0  0  0  0
   49.7159   17.8680  -11.6550 H   0  0  0  0  0  0  0  0  0  0  0  0
   48.2208   18.8775  -12.0782 H   0  0  0  0  0  0  0  0  0  0  0  0
   50.7065   19.7543  -12.2261 H   0  0  0  0  0  0  0  0  0  0  0  0
   48.7758   21.8164  -11.2332 H   0  0  0  0  0  0  0  0  0  0  0  0
   49.8414   21.8112  -12.6792 H   0  0  0  0  0  0  0  0  0  0  0  0
   48.3227   20.8519  -12.6792 H   0  0  0  0  0  0  0  0  0  0  0  0
   49.9576   20.0259   -9.3382 H   0  0  0  0  0  0  0  0  0  0  0  0
   51.5736   19.8954  -10.1117 H   0  0  0  0  0  0  0  0  0  0  0  0
   50.7020   21.4661  -10.1117 H   0  0  0  0  0  0  0  0  0  0  0  0
   48.9260   16.3820  -10.3470 H   0  0  0  0  0  0  0  0  0  0  0  0
   50.3957   18.9404   -7.8322 H   0  0  0  0  0  0  0  0  0  0  0  0
   48.8909   18.6367   -6.9662 H   0  0  0  0  0  0  0  0  0  0  0  0
   50.0420   17.7750   -5.2430 H   0  0  0  0  0  0  0  0  0  0  0  0
   53.7062   17.3405   -4.4265 H   0  0  0  0  0  0  0  0  0  0  0  0
   53.9733   19.1100   -4.5428 H   0  0  0  0  0  0  0  0  0  0  0  0
   51.8340   17.0073   -2.2143 H   0  0  0  0  0  0  0  0  0  0  0  0
   52.0424   17.1250    0.2659 H   0  0  0  0  0  0  0  0  0  0  0  0
   53.7818   18.5769    1.3081 H   0  0  0  0  0  0  0  0  0  0  0  0
   55.3168   19.9127   -0.1327 H   0  0  0  0  0  0  0  0  0  0  0  0
   55.1137   19.7999   -2.6131 H   0  0  0  0  0  0  0  0  0  0  0  0
  1  2  1  0
  2  3  1  0
  2  4  1  0
  4  5  1  0
  5  6  1  0
  6  7  1  0
  7  8  2  0
  7  9  1  0
  9 10  1  0
 10 11  1  0
 11 12  1  0
 11 13  1  0
  9 14  1  0
 14 15  1  0
 15 16  2  0
 15 17  1  6
 15 18  1  0
 18 19  1  0
 19 20  1  0
 20 21  2  0
 20 22  1  0
 22 23  1  0
 23 24  1  0
 24 25  2  0
 25 26  1  0
 26 27  2  0
 27 28  1  0
 28 29  2  0
  5 30  1  0
 30 31  2  0
 30 32  1  0
 29 24  1  0
  1 33  1  0
  1 34  1  0
  1 35  1  0
  2 36  1  0
  3 37  1  0
  3 38  1  0
  3 39  1  0
  4 40  1  0
  4 41  1  0
  5 42  1  1
  6 43  1  0
  9 44  1  1
 10 45  1  0
 10 46  1  0
 11 47  1  0
 12 48  1  0
 12 49  1  0
 12 50  1  0
 13 51  1  0
 13 52  1  0
 13 53  1  0
 14 54  1  0
 18 55  1  0
 18 56  1  0
 19 57  1  0
 23 58  1  0
 23 59  1  0
 25 60  1  0
 26 61  1  0
 27 62  1  0
 28 63  1  0
 29 64  1  0
M  CHG  2  17  -1  32  -1
M  END
>  <meeko>  (7) 
{"is_sidechain": [false], "free_energy": -7.762, "intermolecular_energy": -13.954, "internal_energy": -1.527}

$$$$
5tmn_ligand
     RDKit          3D

 64 64  0  0  0  0  0  0  0  0999 V2000
   51.1300   21.0860  -10.6370 C   0  0  0  0  0  0  0  0  0  0  0  0
   50.7750   21.7880  -11.9450 C   0  0  0  0  0  0  0  0  0  0  0  0
   52.0360   22.3410  -12.6060 C   0  0  0  0  0  0  0  0  0  0  0  0
   49.8940   20.9430  -12.8970 C   0  0  0  0  0  0  0  0  0  0  0  0
   48.5620   20.3670  -12.3900 C   0  0  2  0  0  0  0  0  0  0  0  0
   48.7060   18.9840  -11.8930 N   0  0  0  0  0  0  0  0  0  0  0  0
   48.1650   18.5380  -10.7040 C   0  0  0  0  0  0  0  0  0  0  0  0
   47.6820   19.2920   -9.8630 O   0  0  0  0  0  0  0  0  0  0  0  0
   48.2720   17.0070  -10.5290 C   0  0  2  0  0  0  0  0  0  0  0  0
   47.2360   16.2080  -11.3270 C   0  0  0  0  0  0  0  0  0  0  0  0
   47.7810   15.1470  -12.3110 C   0  0  0  0  0  0  0  0  0  0  0  0
   48.5490   15.7350  -13.4920 C   0  0  0  0  0  0  0  0  0  0  0  0
   48.6230   14.0790  -11.6110 C   0  0  0  0  0  0  0  0  0  0  0  0
   48.2320   16.6900   -9.0770 N   0  0  0  0  0  0  0  0  0  0  0  0
   49.6360   16.6030   -8.0810 P   0  0  1  0  0  5  0  0  0  0  0  0
   49.4750   15.5050   -7.0650 O   0  0  0  0  0  0  0  0  0  0  0  0
   50.7870   16.5720   -9.0650 O   0  0  0  0  0  0  0  0  0  0  0  0
   49.7750   18.2450   -7.2260 C   0  0  0  0  0  0  0  0  0  0  0  0
   50.6110   17.9850   -6.0560 N   0  0  0  0  0  0  0  0  0  0  0  0
   51.8250   18.5920   -5.9680 C   0  0  0  0  0  0  0  0  0  0  0  0
   52.5750   18.8570   -6.8980 O   0  0  0  0  0  0  0  0  0  0  0  0
   52.0990   18.8390   -4.6650 O   0  0  0  0  0  0  0  0  0  0  0  0
   53.2630   18.1600   -4.1970 C   0  0  0  0  0  0  0  0  0  0  0  0
   53.3960   18.3750   -2.7070 C   0  0  0  0  0  0  0  0  0  0  0  0
   52.5550   17.7080   -1.8050 C   0  0  0  0  0  0  0  0  0  0  0  0
   52.7040   17.8930   -0.4280 C   0  0  0  0  0  0  0  0  0  0  0  0
   53.6980   18.7410    0.0590 C   0  0  0  0  0  0  0  0  0  0  0  0
   54.5450   19.4030   -0.8270 C   0  0  0  0  0  0  0  0  0  0  0  0
   54.3980   19.2180   -2.2030 C   0  0  0  0  0  0  0  0  0  0  0  0
   47.3630   20.5280  -13.3800 C   0  0  0  0  0  0  0  0  0  0  0  0
   47.1630   19.5700  -14.1810 O   0  0  0  0  0  0  0  0  0  0  0  0
   46.7380   21.6300  -13.2720 O   0  0  0  0  0  0  0  0  0  0  0  0
   50.8142   21.7105   -9.7883 H   0  0  0  0  0  0  0  0  0  0  0  0
   50.6143   20.1155  -10.5900 H   0  0  0  0  0  0  0  0  0  0  0  0
   52.2173   20.9261  -10.5900 H   0  0  0  0  0  0  0  0  0  0  0  0
   50.1273   22.6405  -11.6924 H   0  0  0  0  0  0  0  0  0  0  0  0
   52.7498   22.6540  -11.8297 H   0  0  0  0  0  0  0  0  0  0  0  0
   52.4939   21.5611  -13.2322 H   0  0  0  0  0  0  0  0  0  0  0  0
   51.7725   23.2062  -13.2322 H   0  0  0  0  0  0  0  0  0  0  0  0
   49.6577   21.5796  -13.7624 H   0  0  0  0  0  0  0  0  0  0  0  0
   50.5053   20.0481  -13.0856 H   0  0  0  0  0  0  0  0  0  0  0  0
   48.2915   20.9970  -11.5298 H   0  0  0  0  0  0  0  0  0  0  0  0
   48.8400   18.3230  -12.6570 H   0  0  0  0  0  0  0  0  0  0  0  0
   49.2341   16.6874  -10.9559 H   0  0  0  0  0  0  0  0  0  0  0  0
   46.5871   15.6903  -10.6053 H   0  0  0  0  0  0  0  0  0  0  0  0
   46.7241   16.9496  -11.9578 H   0  0  0  0  0  0  0  0  0  0  0  0
   46.8804   14.6678  -12.7225 H   0  0  0  0  0  0  0  0  0  0  0  0
   49.3705   16.3640  -13.1185 H   0  0  0  0  0  0  0  0  0  0  0  0
   48.9609   14.9192  -14.1042 H   0  0  0  0  0  0  0  0  0  0  0  0
   47.8689   16.3455  -14.1042 H   0  0  0  0  0  0  0  0  0  0  0  0
   48.5310   14.1957  -10.5211 H   0  0  0  0  0  0  0  0  0  0  0  0
   48.2665   13.0806  -11.9043 H   0  0  0  0  0  0  0  0  0  0  0  0
   49.6771   14.1927  -11.9043 H   0  0  0  0  0  0  0  0  0  0  0  0
   47.6200   15.9070   -8.8400 H   0  0  0  0  0  0  0  0  0  0  0  0
   50.2502   18.9865   -7.8851 H   0  0  0  0  0  0  0  0  0  0  0  0
   48.7921   18.6558   -6.9519 H   0  0  0  0  0  0  0  0  0  0  0  0
   50.0710   18.1200   -5.2020 H   0  0  0  0  0  0  0  0  0  0  0  0
   53.1712   17.0842   -4.4071 H   0  0  0  0  0  0  0  0  0  0  0  0
   54.1530   18.5546   -4.7091 H   0  0  0  0  0  0  0  0  0  0  0  0
   51.7724   17.0343   -2.1840 H   0  0  0  0  0  0  0  0  0  0  0  0
   52.0367   17.3693    0.2723 H   0  0  0  0  0  0  0  0  0  0  0  0
   53.8134   18.8873    1.1431 H   0  0  0  0  0  0  0  0  0  0  0  0
   55.3295   20.0714   -0.4425 H   0  0  0  0  0  0  0  0  0  0  0  0
   55.0737   19.7377   -2.8982 H   0  0  0  0  0  0  0  0  0  0  0  0
  1  2  1  0
  2  3  1  0
  2  4  1  0
  4  5  1  0
  5  6  1  0
  6  7  1  0
  7  8  2  0
  7  9  1  0
  9 10  1  0
 10 11  1  0
 11 12  1  0
 11 13  1  0
  9 14  1  0
 14 15  1  0
 15 16  2  0
 15 17  1  6
 15 18  1  0
 18 19  1  0
 19 20  1  0
 20 21  2  0
 20 22  1  0
 22 23  1  0
 23 24  1  0
 24 25  2  0
 25 26  1  0
 26 27  2  0
 27 28  1  0
 28 29  2  0
  5 30  1  0
 30 31  2  0
 30 32  1  0
 29 24  1  0
  1 33  1  0
  1 34  1  0
  1 35  1  0
  2 36  1  0
  3 37  1  0
  3 38  1  0
  3 39  1  0
  4 40  1  0
  4 41  1  0
  5 42  1  1
  6 43  1  0
  9 44  1  6
 10 45  1  0
 10 46  1  0
 11 47  1  0
 12 48  1  0
 12 49  1  0
 12 50  1  0
 13 51  1  0
 13 52  1  0
 13 53  1  0
 14 54  1  0
 18 55  1  0
 18 56  1  0
 19 57  1  0
 23 58  1  0
 23 59  1  0
 25 60  1  0
 26 61  1  0
 27 62  1  0
 28 63  1  0
 29 64  1  0
M  CHG  2  17  -1  32  -1
M  END
>  <meeko>  (8) 
{"is_sidechain": [false], "free_energy": -7.745, "intermolecular_energy": -14.091, "internal_energy": -1.361}

$$$$
5tmn_ligand
     RDKit          3D

 64 64  0  0  0  0  0  0  0  0999 V2000
   49.5390   20.7780  -14.1230 C   0  0  0  0  0  0  0  0  0  0  0  0
   50.6560   21.0810  -13.1280 C   0  0  0  0  0  0  0  0  0  0  0  0
   51.5250   22.2270  -13.6440 C   0  0  0  0  0  0  0  0  0  0  0  0
   50.1700   21.2770  -11.6720 C   0  0  0  0  0  0  0  0  0  0  0  0
   50.2040   20.0930  -10.6930 C   0  0  2  0  0  0  0  0  0  0  0  0
   49.0310   19.2100  -10.8440 N   0  0  0  0  0  0  0  0  0  0  0  0
   48.8380   18.0590  -10.1060 C   0  0  0  0  0  0  0  0  0  0  0  0
   49.7120   17.5640   -9.3980 O   0  0  0  0  0  0  0  0  0  0  0  0
   47.4350   17.4450  -10.3000 C   0  0  2  0  0  0  0  0  0  0  0  0
   46.4650   17.7120   -9.1430 C   0  0  0  0  0  0  0  0  0  0  0  0
   45.9290   16.4760   -8.3840 C   0  0  0  0  0  0  0  0  0  0  0  0
   46.6510   16.1960   -7.0690 C   0  0  0  0  0  0  0  0  0  0  0  0
   44.4180   16.5420   -8.1550 C   0  0  0  0  0  0  0  0  0  0  0  0
   47.5860   15.9930  -10.5850 N   0  0  0  0  0  0  0  0  0  0  0  0
   48.4910   15.3720  -11.9140 P   0  0  1  0  0  5  0  0  0  0  0  0
   48.8810   16.4950  -12.8360 O   0  0  0  0  0  0  0  0  0  0  0  0
   49.5560   14.5100  -11.2670 O   0  0  0  0  0  0  0  0  0  0  0  0
   47.3750   14.1810  -12.7980 C   0  0  0  0  0  0  0  0  0  0  0  0
   46.5700   15.0160  -13.6860 N   0  0  0  0  0  0  0  0  0  0  0  0
   45.2190   14.8470  -13.6990 C   0  0  0  0  0  0  0  0  0  0  0  0
   44.6160   13.7940  -13.5450 O   0  0  0  0  0  0  0  0  0  0  0  0
   44.6300   16.0430  -13.9440 O   0  0  0  0  0  0  0  0  0  0  0  0
   45.5420   17.1380  -13.8950 C   0  0  0  0  0  0  0  0  0  0  0  0
   45.0550   18.1410  -12.8750 C   0  0  0  0  0  0  0  0  0  0  0  0
   45.6100   19.4270  -12.8050 C   0  0  0  0  0  0  0  0  0  0  0  0
   45.1340   20.3550  -11.8770 C   0  0  0  0  0  0  0  0  0  0  0  0
   44.0930   20.0110  -11.0150 C   0  0  0  0  0  0  0  0  0  0  0  0
   43.5260   18.7400  -11.0810 C   0  0  0  0  0  0  0  0  0  0  0  0
   44.0020   17.8110  -12.0090 C   0  0  0  0  0  0  0  0  0  0  0  0
   50.4730   20.4860   -9.2030 C   0  0  0  0  0  0  0  0  0  0  0  0
   49.6780   21.3250   -8.6910 O   0  0  0  0  0  0  0  0  0  0  0  0
   51.4880   19.9210   -8.6860 O   0  0  0  0  0  0  0  0  0  0  0  0
   48.6181   20.5282  -13.5756 H   0  0  0  0  0  0  0  0  0  0  0  0
   49.3618   21.6605  -14.7552 H   0  0  0  0  0  0  0  0  0  0  0  0
   49.8320   19.9269  -14.7552 H   0  0  0  0  0  0  0  0  0  0  0  0
   51.2879   20.1829  -13.0635 H   0  0  0  0  0  0  0  0  0  0  0  0
   51.9451   22.7811  -12.7917 H   0  0  0  0  0  0  0  0  0  0  0  0
   52.3434   21.8198  -14.2559 H   0  0  0  0  0  0  0  0  0  0  0  0
   50.9121   22.9051  -14.2559 H   0  0  0  0  0  0  0  0  0  0  0  0
   50.7903   22.0722  -11.2328 H   0  0  0  0  0  0  0  0  0  0  0  0
   49.0958   21.4849  -11.7859 H   0  0  0  0  0  0  0  0  0  0  0  0
   51.0903   19.5110  -10.9859 H   0  0  0  0  0  0  0  0  0  0  0  0
   48.2190   19.7210  -11.1870 H   0  0  0  0  0  0  0  0  0  0  0  0
   46.9647   17.9485  -11.1575 H   0  0  0  0  0  0  0  0  0  0  0  0
   46.9845   18.3510   -8.4138 H   0  0  0  0  0  0  0  0  0  0  0  0
   45.5801   18.1701   -9.6088 H   0  0  0  0  0  0  0  0  0  0  0  0
   46.1448   15.6296   -9.0526 H   0  0  0  0  0  0  0  0  0  0  0  0
   45.9913   16.4518   -6.2268 H   0  0  0  0  0  0  0  0  0  0  0  0
   46.9163   15.1298   -7.0162 H   0  0  0  0  0  0  0  0  0  0  0  0
   47.5658   16.8045   -7.0162 H   0  0  0  0  0  0  0  0  0  0  0  0
   44.2109   16.5510   -7.0747 H   0  0  0  0  0  0  0  0  0  0  0  0
   44.0174   17.4585   -8.6128 H   0  0  0  0  0  0  0  0  0  0  0  0
   43.9391   15.6639   -8.6128 H   0  0  0  0  0  0  0  0  0  0  0  0
   46.7160   15.4640  -10.5130 H   0  0  0  0  0  0  0  0  0  0  0  0
   47.9639   13.4545  -13.3770 H   0  0  0  0  0  0  0  0  0  0  0  0
   46.7556   13.5963  -12.1019 H   0  0  0  0  0  0  0  0  0  0  0  0
   46.8150   15.9970  -13.5620 H   0  0  0  0  0  0  0  0  0  0  0  0
   46.5394   16.7742  -13.6070 H   0  0  0  0  0  0  0  0  0  0  0  0
   45.6025   17.6148  -14.8844 H   0  0  0  0  0  0  0  0  0  0  0  0
   46.4268   19.7067  -13.4866 H   0  0  0  0  0  0  0  0  0  0  0  0
   45.5806   21.3589  -11.8256 H   0  0  0  0  0  0  0  0  0  0  0  0
   43.7198   20.7427  -10.2834 H   0  0  0  0  0  0  0  0  0  0  0  0
   42.7039   18.4683  -10.4026 H   0  0  0  0  0  0  0  0  0  0  0  0
   43.5468   16.8110  -12.0613 H   0  0  0  0  0  0  0  0  0  0  0  0
  1  2  1  0
  2  3  1  0
  2  4  1  0
  4  5  1  0
  5  6  1  0
  6  7  1  0
  7  8  2  0
  7  9  1  0
  9 10  1  0
 10 11  1  0
 11 12  1  0
 11 13  1  0
  9 14  1  0
 14 15  1  0
 15 16  2  0
 15 17  1  1
 15 18  1  0
 18 19  1  0
 19 20  1  0
 20 21  2  0
 20 22  1  0
 22 23  1  0
 23 24  1  0
 24 25  2  0
 25 26  1  0
 26 27  2  0
 27 28  1  0
 28 29  2  0
  5 30  1  0
 30 31  2  0
 30 32  1  0
 29 24  1  0
  1 33  1  0
  1 34  1  0
  1 35  1  0
  2 36  1  0
  3 37  1  0
  3 38  1  0
  3 39  1  0
  4 40  1  0
  4 41  1  0
  5 42  1  6
  6 43  1  0
  9 44  1  6
 10 45  1  0
 10 46  1  0
 11 47  1  0
 12 48  1  0
 12 49  1  0
 12 50  1  0
 13 51  1  0
 13 52  1  0
 13 53  1  0
 14 54  1  0
 18 55  1  0
 18 56  1  0
 19 57  1  0
 23 58  1  0
 23 59  1  0
 25 60  1  0
 26 61  1  0
 27 62  1  0
 28 63  1  0
 29 64  1  0
M  CHG  2  17  -1  32  -1
M  END
>  <meeko>  (9) 
{"is_sidechain": [false], "free_energy": -7.734, "intermolecular_energy": -13.118, "internal_energy": -2.314}

$$$$
