4jsz_ligand
     RDKit          3D

 17 17  0  0  0  0  0  0  0  0999 V2000
   16.5720    0.3950   13.9330 N   0  0  0  0  0  0  0  0  0  0  0  0
   16.2310    0.9610   15.4830 S   0  0  0  0  0  0  0  0  0  0  0  0
   14.9660    0.4040   15.8930 O   0  0  0  0  0  0  0  0  0  0  0  0
   17.4480    0.7720   16.2390 O   0  0  0  0  0  0  0  0  0  0  0  0
   16.0150    2.6950   15.1840 C   0  0  0  0  0  0  0  0  0  0  0  0
   14.7230    3.2310   15.1800 C   0  0  0  0  0  0  0  0  0  0  0  0
   14.5480    4.5950   14.9470 C   0  0  0  0  0  0  0  0  0  0  0  0
   15.6570    5.4140   14.7290 C   0  0  0  0  0  0  0  0  0  0  0  0
   16.9460    4.8750   14.7470 C   0  0  0  0  0  0  0  0  0  0  0  0
   17.1300    3.5120   14.9780 C   0  0  0  0  0  0  0  0  0  0  0  0
   17.3460    0.8870   13.4880 H   0  0  0  0  0  0  0  0  0  0  0  0
   16.7370   -0.6120   13.9800 H   0  0  0  0  0  0  0  0  0  0  0  0
   13.8527    2.5825   15.3590 H   0  0  0  0  0  0  0  0  0  0  0  0
   13.5358    5.0254   14.9350 H   0  0  0  0  0  0  0  0  0  0  0  0
   15.5156    6.4888   14.5422 H   0  0  0  0  0  0  0  0  0  0  0  0
   17.8164    5.5263   14.5788 H   0  0  0  0  0  0  0  0  0  0  0  0
   18.1431    3.0840   14.9979 H   0  0  0  0  0  0  0  0  0  0  0  0
  1  2  1  0
  2  3  2  0
  2  4  2  0
  2  5  1  0
  5  6  2  0
  6  7  1  0
  7  8  2  0
  8  9  1  0
  9 10  2  0
 10  5  1  0
  1 11  1  0
  1 12  1  0
  6 13  1  0
  7 14  1  0
  8 15  1  0
  9 16  1  0
 10 17  1  0
M  END
>  <meeko>  (1) 
{"is_sidechain": [false], "free_energy": -5.901, "intermolecular_energy": -6.418, "internal_energy": -0.031}

$$$$
4jsz_ligand
     RDKit          3D

 17 17  0  0  0  0  0  0  0  0999 V2000
   16.5780    0.4030   13.9400 N   0  0  0  0  0  0  0  0  0  0  0  0
   16.2600    0.9570   15.4990 S   0  0  0  0  0  0  0  0  0  0  0  0
   14.9950    0.4050   15.9190 O   0  0  0  0  0  0  0  0  0  0  0  0
   17.4840    0.7510   16.2390 O   0  0  0  0  0  0  0  0  0  0  0  0
   16.0530    2.6950   15.2180 C   0  0  0  0  0  0  0  0  0  0  0  0
   17.1720    3.4760   14.9140 C   0  0  0  0  0  0  0  0  0  0  0  0
   17.0140    4.8430   14.6900 C   0  0  0  0  0  0  0  0  0  0  0  0
   15.7450    5.4200   14.7630 C   0  0  0  0  0  0  0  0  0  0  0  0
   14.6280    4.6320   15.0550 C   0  0  0  0  0  0  0  0  0  0  0  0
   14.7780    3.2640   15.2810 C   0  0  0  0  0  0  0  0  0  0  0  0
   15.7340    0.2600   13.3860 H   0  0  0  0  0  0  0  0  0  0  0  0
   17.2260    1.0500   13.4870 H   0  0  0  0  0  0  0  0  0  0  0  0
   18.1691    3.0157   14.8520 H   0  0  0  0  0  0  0  0  0  0  0  0
   17.8892    5.4668   14.4558 H   0  0  0  0  0  0  0  0  0  0  0  0
   15.6235    6.4995   14.5900 H   0  0  0  0  0  0  0  0  0  0  0  0
   13.6298    5.0913   15.1066 H   0  0  0  0  0  0  0  0  0  0  0  0
   13.9014    2.6390   15.5066 H   0  0  0  0  0  0  0  0  0  0  0  0
  1  2  1  0
  2  3  2  0
  2  4  2  0
  2  5  1  0
  5  6  2  0
  6  7  1  0
  7  8  2  0
  8  9  1  0
  9 10  2  0
 10  5  1  0
  1 11  1  0
  1 12  1  0
  6 13  1  0
  7 14  1  0
  8 15  1  0
  9 16  1  0
 10 17  1  0
M  END
>  <meeko>  (2) 
{"is_sidechain": [false], "free_energy": -5.892, "intermolecular_energy": -6.408, "internal_energy": -0.031}

$$$$
4jsz_ligand
     RDKit          3D

 17 17  0  0  0  0  0  0  0  0999 V2000
   15.5300    0.2770   17.3800 N   0  0  0  0  0  0  0  0  0  0  0  0
   14.4690    1.5820   17.4630 S   0  0  0  0  0  0  0  0  0  0  0  0
   13.1920    1.1530   16.9480 O   0  0  0  0  0  0  0  0  0  0  0  0
   14.6300    2.1260   18.7930 O   0  0  0  0  0  0  0  0  0  0  0  0
   15.1990    2.7030   16.3010 C   0  0  0  0  0  0  0  0  0  0  0  0
   16.5060    2.4730   15.8580 C   0  0  0  0  0  0  0  0  0  0  0  0
   17.0830    3.3510   14.9410 C   0  0  0  0  0  0  0  0  0  0  0  0
   16.3550    4.4440   14.4680 C   0  0  0  0  0  0  0  0  0  0  0  0
   15.0460    4.6620   14.9040 C   0  0  0  0  0  0  0  0  0  0  0  0
   14.4610    3.7890   15.8210 C   0  0  0  0  0  0  0  0  0  0  0  0
   16.5080    0.5580   17.3210 H   0  0  0  0  0  0  0  0  0  0  0  0
   15.3580   -0.3380   18.1770 H   0  0  0  0  0  0  0  0  0  0  0  0
   17.0735    1.6072   16.2298 H   0  0  0  0  0  0  0  0  0  0  0  0
   18.1119    3.1822   14.5904 H   0  0  0  0  0  0  0  0  0  0  0  0
   16.8145    5.1373   13.7481 H   0  0  0  0  0  0  0  0  0  0  0  0
   14.4762    5.5227   14.5239 H   0  0  0  0  0  0  0  0  0  0  0  0
   13.4286    3.9534   16.1633 H   0  0  0  0  0  0  0  0  0  0  0  0
  1  2  1  0
  2  3  2  0
  2  4  2  0
  2  5  1  0
  5  6  2  0
  6  7  1  0
  7  8  2  0
  8  9  1  0
  9 10  2  0
 10  5  1  0
  1 11  1  0
  1 12  1  0
  6 13  1  0
  7 14  1  0
  8 15  1  0
  9 16  1  0
 10 17  1  0
M  END
>  <meeko>  (3) 
{"is_sidechain": [false], "free_energy": -5.446, "intermolecular_energy": -5.918, "internal_energy": -0.036}

$$$$
4jsz_ligand
     RDKit          3D

 17 17  0  0  0  0  0  0  0  0999 V2000
   17.8170    3.5260   14.7980 N   0  0  0  0  0  0  0  0  0  0  0  0
   16.5000    2.7690   14.0720 S   0  0  0  0  0  0  0  0  0  0  0  0
   15.7660    3.7640   13.3290 O   0  0  0  0  0  0  0  0  0  0  0  0
   17.0330    1.5740   13.4570 O   0  0  0  0  0  0  0  0  0  0  0  0
   15.5410    2.2990   15.4860 C   0  0  0  0  0  0  0  0  0  0  0  0
   15.6740    1.0060   16.0030 C   0  0  0  0  0  0  0  0  0  0  0  0
   14.9230    0.6330   17.1180 C   0  0  0  0  0  0  0  0  0  0  0  0
   14.0540    1.5490   17.7120 C   0  0  0  0  0  0  0  0  0  0  0  0
   13.9340    2.8430   17.1990 C   0  0  0  0  0  0  0  0  0  0  0  0
   14.6810    3.2240   16.0840 C   0  0  0  0  0  0  0  0  0  0  0  0
   17.6120    3.8770   15.7330 H   0  0  0  0  0  0  0  0  0  0  0  0
   18.6090    2.8810   14.7980 H   0  0  0  0  0  0  0  0  0  0  0  0
   16.3648    0.2895   15.5345 H   0  0  0  0  0  0  0  0  0  0  0  0
   15.0159   -0.3832   17.5289 H   0  0  0  0  0  0  0  0  0  0  0  0
   13.4603    1.2508   18.5887 H   0  0  0  0  0  0  0  0  0  0  0  0
   13.2503    3.5617   17.6744 H   0  0  0  0  0  0  0  0  0  0  0  0
   14.5938    4.2431   15.6793 H   0  0  0  0  0  0  0  0  0  0  0  0
  1  2  1  0
  2  3  2  0
  2  4  2  0
  2  5  1  0
  5  6  2  0
  6  7  1  0
  7  8  2  0
  8  9  1  0
  9 10  2  0
 10  5  1  0
  1 11  1  0
  1 12  1  0
  6 13  1  0
  7 14  1  0
  8 15  1  0
  9 16  1  0
 10 17  1  0
M  END
>  <meeko>  (4) 
{"is_sidechain": [false], "free_energy": -5.412, "intermolecular_energy": -5.886, "internal_energy": -0.03}

$$$$
4jsz_ligand
     RDKit          3D

 17 17  0  0  0  0  0  0  0  0999 V2000
   17.8300    3.5880   14.7140 N   0  0  0  0  0  0  0  0  0  0  0  0
   16.5150    2.8000   14.0160 S   0  0  0  0  0  0  0  0  0  0  0  0
   15.7450    3.7770   13.2860 O   0  0  0  0  0  0  0  0  0  0  0  0
   17.0610    1.6150   13.3940 O   0  0  0  0  0  0  0  0  0  0  0  0
   15.5960    2.3130   15.4510 C   0  0  0  0  0  0  0  0  0  0  0  0
   14.7060    3.2220   16.0340 C   0  0  0  0  0  0  0  0  0  0  0  0
   13.9790    2.8430   17.1610 C   0  0  0  0  0  0  0  0  0  0  0  0
   14.1360    1.5620   17.6950 C   0  0  0  0  0  0  0  0  0  0  0  0
   15.0160    0.6540   17.1010 C   0  0  0  0  0  0  0  0  0  0  0  0
   15.7480    1.0260   15.9730 C   0  0  0  0  0  0  0  0  0  0  0  0
   18.4720    2.9540   15.1870 H   0  0  0  0  0  0  0  0  0  0  0  0
   18.3000    4.1420   13.9960 H   0  0  0  0  0  0  0  0  0  0  0  0
   14.5812    4.2277   15.6062 H   0  0  0  0  0  0  0  0  0  0  0  0
   13.2816    3.5527   17.6299 H   0  0  0  0  0  0  0  0  0  0  0  0
   13.5643    1.2668   18.5872 H   0  0  0  0  0  0  0  0  0  0  0  0
   15.1319   -0.3552   17.5230 H   0  0  0  0  0  0  0  0  0  0  0  0
   16.4383    0.3127   15.4991 H   0  0  0  0  0  0  0  0  0  0  0  0
  1  2  1  0
  2  3  2  0
  2  4  2  0
  2  5  1  0
  5  6  2  0
  6  7  1  0
  7  8  2  0
  8  9  1  0
  9 10  2  0
 10  5  1  0
  1 11  1  0
  1 12  1  0
  6 13  1  0
  7 14  1  0
  8 15  1  0
  9 16  1  0
 10 17  1  0
M  END
>  <meeko>  (5) 
{"is_sidechain": [false], "free_energy": -5.4, "intermolecular_energy": -5.873, "internal_energy": -0.03}

$$$$
4jsz_ligand
     RDKit          3D

 17 17  0  0  0  0  0  0  0  0999 V2000
   15.9510    1.7860   11.0320 N   0  0  0  0  0  0  0  0  0  0  0  0
   16.8870    0.7830   12.0100 S   0  0  0  0  0  0  0  0  0  0  0  0
   16.4440   -0.5750   11.8100 O   0  0  0  0  0  0  0  0  0  0  0  0
   18.2550    1.1970   11.7900 O   0  0  0  0  0  0  0  0  0  0  0  0
   16.3900    1.3080   13.6280 C   0  0  0  0  0  0  0  0  0  0  0  0
   16.0150    2.6410   13.8290 C   0  0  0  0  0  0  0  0  0  0  0  0
   15.6210    3.0580   15.1000 C   0  0  0  0  0  0  0  0  0  0  0  0
   15.5960    2.1460   16.1570 C   0  0  0  0  0  0  0  0  0  0  0  0
   15.9590    0.8130   15.9470 C   0  0  0  0  0  0  0  0  0  0  0  0
   16.3550    0.3880   14.6790 C   0  0  0  0  0  0  0  0  0  0  0  0
   15.9890    2.7650   11.3100 H   0  0  0  0  0  0  0  0  0  0  0  0
   16.2360    1.6550   10.0590 H   0  0  0  0  0  0  0  0  0  0  0  0
   16.0309    3.3540   12.9915 H   0  0  0  0  0  0  0  0  0  0  0  0
   15.3300    4.1051   15.2698 H   0  0  0  0  0  0  0  0  0  0  0  0
   15.2891    2.4784   17.1597 H   0  0  0  0  0  0  0  0  0  0  0  0
   15.9324    0.0981   16.7826 H   0  0  0  0  0  0  0  0  0  0  0  0
   16.6370   -0.6614   14.5080 H   0  0  0  0  0  0  0  0  0  0  0  0
  1  2  1  0
  2  3  2  0
  2  4  2  0
  2  5  1  0
  5  6  2  0
  6  7  1  0
  7  8  2  0
  8  9  1  0
  9 10  2  0
 10  5  1  0
  1 11  1  0
  1 12  1  0
  6 13  1  0
  7 14  1  0
  8 15  1  0
  9 16  1  0
 10 17  1  0
M  END
>  <meeko>  (6) 
{"is_sidechain": [false], "free_energy": -4.977, "intermolecular_energy": -5.409, "internal_energy": -0.034}

$$$$
4jsz_ligand
     RDKit          3D

 17 17  0  0  0  0  0  0  0  0999 V2000
   15.8400    1.6110   11.2390 N   0  0  0  0  0  0  0  0  0  0  0  0
   16.7730    1.5280   12.6380 S   0  0  0  0  0  0  0  0  0  0  0  0
   16.4740    0.2820   13.3010 O   0  0  0  0  0  0  0  0  0  0  0  0
   18.1120    1.8920   12.2320 O   0  0  0  0  0  0  0  0  0  0  0  0
   16.0910    2.8550   13.5940 C   0  0  0  0  0  0  0  0  0  0  0  0
   15.2920    2.5580   14.7030 C   0  0  0  0  0  0  0  0  0  0  0  0
   14.7550    3.5990   15.4600 C   0  0  0  0  0  0  0  0  0  0  0  0
   15.0240    4.9240   15.1130 C   0  0  0  0  0  0  0  0  0  0  0  0
   15.8330    5.2150   14.0120 C   0  0  0  0  0  0  0  0  0  0  0  0
   16.3730    4.1790   13.2500 C   0  0  0  0  0  0  0  0  0  0  0  0
   15.4280    2.5300   11.0850 H   0  0  0  0  0  0  0  0  0  0  0  0
   16.4090    1.3110   10.4450 H   0  0  0  0  0  0  0  0  0  0  0  0
   15.0889    1.5119   14.9759 H   0  0  0  0  0  0  0  0  0  0  0  0
   14.1199    3.3760   16.3300 H   0  0  0  0  0  0  0  0  0  0  0  0
   14.5967    5.7434   15.7097 H   0  0  0  0  0  0  0  0  0  0  0  0
   16.0442    6.2612   13.7459 H   0  0  0  0  0  0  0  0  0  0  0  0
   17.0154    4.4028   12.3856 H   0  0  0  0  0  0  0  0  0  0  0  0
  1  2  1  0
  2  3  2  0
  2  4  2  0
  2  5  1  0
  5  6  2  0
  6  7  1  0
  7  8  2  0
  8  9  1  0
  9 10  2  0
 10  5  1  0
  1 11  1  0
  1 12  1  0
  6 13  1  0
  7 14  1  0
  8 15  1  0
  9 16  1  0
 10 17  1  0
M  END
>  <meeko>  (7) 
{"is_sidechain": [false], "free_energy": -4.945, "intermolecular_energy": -5.378, "internal_energy": -0.031}

$$$$
4jsz_ligand
     RDKit          3D

 17 17  0  0  0  0  0  0  0  0999 V2000
   16.0280    2.0360   10.9090 N   0  0  0  0  0  0  0  0  0  0  0  0
   16.8620    1.6880   12.3300 S   0  0  0  0  0  0  0  0  0  0  0  0
   16.4770    0.3660   12.7620 O   0  0  0  0  0  0  0  0  0  0  0  0
   18.2360    2.0530   12.0700 O   0  0  0  0  0  0  0  0  0  0  0  0
   16.1630    2.8730   13.4470 C   0  0  0  0  0  0  0  0  0  0  0  0
   16.3100    4.2370   13.1760 C   0  0  0  0  0  0  0  0  0  0  0  0
   15.7590    5.1730   14.0510 C   0  0  0  0  0  0  0  0  0  0  0  0
   15.0620    4.7450   15.1820 C   0  0  0  0  0  0  0  0  0  0  0  0
   14.9070    3.3810   15.4410 C   0  0  0  0  0  0  0  0  0  0  0  0
   15.4550    2.4380   14.5710 C   0  0  0  0  0  0  0  0  0  0  0  0
   16.0090    3.0310   10.6890 H   0  0  0  0  0  0  0  0  0  0  0  0
   16.4290    1.4850   10.1480 H   0  0  0  0  0  0  0  0  0  0  0  0
   16.8556    4.5689   12.2803 H   0  0  0  0  0  0  0  0  0  0  0  0
   15.8737    6.2483   13.8498 H   0  0  0  0  0  0  0  0  0  0  0  0
   14.6326    5.4854   15.8729 H   0  0  0  0  0  0  0  0  0  0  0  0
   14.3525    3.0502   16.3316 H   0  0  0  0  0  0  0  0  0  0  0  0
   15.3311    1.3628   14.7676 H   0  0  0  0  0  0  0  0  0  0  0  0
  1  2  1  0
  2  3  2  0
  2  4  2  0
  2  5  1  0
  5  6  2  0
  6  7  1  0
  7  8  2  0
  8  9  1  0
  9 10  2  0
 10  5  1  0
  1 11  1  0
  1 12  1  0
  6 13  1  0
  7 14  1  0
  8 15  1  0
  9 16  1  0
 10 17  1  0
M  END
>  <meeko>  (8) 
{"is_sidechain": [false], "free_energy": -4.91, "intermolecular_energy": -5.34, "internal_energy": -0.031}

$$$$
4jsz_ligand
     RDKit          3D

 17 17  0  0  0  0  0  0  0  0999 V2000
   14.8600    1.5450   15.8300 N   0  0  0  0  0  0  0  0  0  0  0  0
   16.4810    1.8060   15.4520 S   0  0  0  0  0  0  0  0  0  0  0  0
   16.7350    3.2240   15.5350 O   0  0  0  0  0  0  0  0  0  0  0  0
   17.2200    0.8360   16.2280 O   0  0  0  0  0  0  0  0  0  0  0  0
   16.5270    1.3230   13.7480 C   0  0  0  0  0  0  0  0  0  0  0  0
   16.5210    2.3110   12.7570 C   0  0  0  0  0  0  0  0  0  0  0  0
   16.5600    1.9360   11.4150 C   0  0  0  0  0  0  0  0  0  0  0  0
   16.6120    0.5840   11.0700 C   0  0  0  0  0  0  0  0  0  0  0  0
   16.6310   -0.3980   12.0630 C   0  0  0  0  0  0  0  0  0  0  0  0
   16.5920   -0.0310   13.4080 C   0  0  0  0  0  0  0  0  0  0  0  0
   14.2460    1.5970   15.0180 H   0  0  0  0  0  0  0  0  0  0  0  0
   14.7760    0.6490   16.3140 H   0  0  0  0  0  0  0  0  0  0  0  0
   16.4858    3.3748   13.0347 H   0  0  0  0  0  0  0  0  0  0  0  0
   16.5498    2.7047   10.6283 H   0  0  0  0  0  0  0  0  0  0  0  0
   16.6381    0.2906   10.0102 H   0  0  0  0  0  0  0  0  0  0  0  0
   16.6767   -1.4611   11.7842 H   0  0  0  0  0  0  0  0  0  0  0  0
   16.6122   -0.8003   14.1940 H   0  0  0  0  0  0  0  0  0  0  0  0
  1  2  1  0
  2  3  2  0
  2  4  2  0
  2  5  1  0
  5  6  2  0
  6  7  1  0
  7  8  2  0
  8  9  1  0
  9 10  2  0
 10  5  1  0
  1 11  1  0
  1 12  1  0
  6 13  1  0
  7 14  1  0
  8 15  1  0
  9 16  1  0
 10 17  1  0
M  END
>  <meeko>  (9) 
{"is_sidechain": [false], "free_energy": -4.899, "intermolecular_energy": -5.329, "internal_energy": -0.031}

$$$$
