4jia_ligand
     RDKit          3D

 58 62  0  0  0  0  0  0  0  0999 V2000
   16.7610  -20.9250  -22.4510 C   0  0  0  0  0  0  0  0  0  0  0  0
   15.5580  -21.6380  -22.7130 O   0  0  0  0  0  0  0  0  0  0  0  0
   15.4170  -22.8560  -22.1080 C   0  0  0  0  0  0  0  0  0  0  0  0
   14.1830  -23.4740  -22.3230 C   0  0  0  0  0  0  0  0  0  0  0  0
   13.9030  -24.7240  -21.7650 C   0  0  0  0  0  0  0  0  0  0  0  0
   14.8590  -25.3780  -20.9770 C   0  0  0  0  0  0  0  0  0  0  0  0
   14.5760  -26.7020  -20.3910 C   0  0  0  0  0  0  0  0  0  0  0  0
   15.5920  -27.5660  -20.1710 C   0  0  0  0  0  0  0  0  0  0  0  0
   15.3220  -28.8680  -19.5870 C   0  0  0  0  0  0  0  0  0  0  0  0
   14.0740  -29.2410  -19.2490 C   0  0  0  0  0  0  0  0  0  0  0  0
   12.9920  -28.3460  -19.4680 C   0  0  0  0  0  0  0  0  0  0  0  0
   11.7060  -28.4610  -19.2350 N   0  0  0  0  0  0  0  0  0  0  0  0
   11.1980  -27.2680  -19.6600 C   0  0  0  0  0  0  0  0  0  0  0  0
    9.8860  -26.9740  -19.6080 N   0  0  0  0  0  0  0  0  0  0  0  0
    9.1170  -25.9130  -20.1120 C   0  0  0  0  0  0  0  0  0  0  0  0
    7.7240  -25.9630  -19.9750 C   0  0  0  0  0  0  0  0  0  0  0  0
    6.8990  -24.9270  -20.4420 C   0  0  0  0  0  0  0  0  0  0  0  0
    7.4340  -23.7890  -21.0550 C   0  0  0  0  0  0  0  0  0  0  0  0
    6.6560  -22.7220  -21.5370 N   0  0  0  0  0  0  0  0  0  0  0  0
    6.8020  -21.4150  -20.8680 C   0  0  0  0  0  0  0  0  0  0  0  0
    5.6760  -20.4560  -21.3080 C   0  0  0  0  0  0  0  0  0  0  0  0
    5.6050  -20.3240  -22.8290 N   0  0  0  0  0  0  0  0  0  0  0  0
    6.6950  -19.4760  -23.4090 C   0  0  0  0  0  0  0  0  0  0  0  0
    5.4900  -21.7000  -23.4810 C   0  0  0  0  0  0  0  0  0  0  0  0
    6.6070  -22.6580  -23.0160 C   0  0  0  0  0  0  0  0  0  0  0  0
    8.8280  -23.7520  -21.2030 C   0  0  0  0  0  0  0  0  0  0  0  0
    9.6520  -24.7870  -20.7370 C   0  0  0  0  0  0  0  0  0  0  0  0
   12.0990  -26.4160  -20.1440 N   0  0  0  0  0  0  0  0  0  0  0  0
   13.2690  -27.0970  -20.0310 N   0  0  0  0  0  0  0  0  0  0  0  0
   16.0930  -24.7520  -20.7600 C   0  0  0  0  0  0  0  0  0  0  0  0
   16.3720  -23.5000  -21.3220 C   0  0  0  0  0  0  0  0  0  0  0  0
   16.9067  -20.8386  -21.3641 H   0  0  0  0  0  0  0  0  0  0  0  0
   17.6111  -21.4652  -22.8932 H   0  0  0  0  0  0  0  0  0  0  0  0
   16.6953  -19.9199  -22.8932 H   0  0  0  0  0  0  0  0  0  0  0  0
   13.4229  -22.9708  -22.9387 H   0  0  0  0  0  0  0  0  0  0  0  0
   12.9265  -25.1972  -21.9454 H   0  0  0  0  0  0  0  0  0  0  0  0
   16.6220  -27.2833  -20.4340 H   0  0  0  0  0  0  0  0  0  0  0  0
   16.1561  -29.5647  -19.4172 H   0  0  0  0  0  0  0  0  0  0  0  0
   13.8926  -30.2315  -18.8064 H   0  0  0  0  0  0  0  0  0  0  0  0
    9.3460  -27.6690  -19.1100 H   0  0  0  0  0  0  0  0  0  0  0  0
    7.2644  -26.8363  -19.4891 H   0  0  0  0  0  0  0  0  0  0  0  0
    5.8087  -25.0121  -20.3233 H   0  0  0  0  0  0  0  0  0  0  0  0
    6.7511  -21.5579  -19.7785 H   0  0  0  0  0  0  0  0  0  0  0  0
    7.7720  -20.9779  -21.1473 H   0  0  0  0  0  0  0  0  0  0  0  0
    4.7146  -20.8426  -20.9389 H   0  0  0  0  0  0  0  0  0  0  0  0
    5.8899  -19.4620  -20.8881 H   0  0  0  0  0  0  0  0  0  0  0  0
    4.7210  -19.8400  -23.0290 H   0  0  0  0  0  0  0  0  0  0  0  0
    7.2788  -19.0218  -22.5948 H   0  0  0  0  0  0  0  0  0  0  0  0
    7.3548  -20.1006  -24.0291 H   0  0  0  0  0  0  0  0  0  0  0  0
    6.2518  -18.6828  -24.0291 H   0  0  0  0  0  0  0  0  0  0  0  0
    4.5155  -22.1370  -23.2175 H   0  0  0  0  0  0  0  0  0  0  0  0
    5.5876  -21.5686  -24.5688 H   0  0  0  0  0  0  0  0  0  0  0  0
    6.4100  -23.6639  -23.4151 H   0  0  0  0  0  0  0  0  0  0  0  0
    7.5726  -22.2840  -23.3872 H   0  0  0  0  0  0  0  0  0  0  0  0
    9.2890  -22.8854  -21.6994 H   0  0  0  0  0  0  0  0  0  0  0  0
   10.7415  -24.7090  -20.8671 H   0  0  0  0  0  0  0  0  0  0  0  0
   16.8529  -25.2503  -20.1401 H   0  0  0  0  0  0  0  0  0  0  0  0
   17.3471  -23.0233  -21.1429 H   0  0  0  0  0  0  0  0  0  0  0  0
  1  2  1  0
  2  3  1  0
  3  4  2  0
  4  5  1  0
  5  6  2  0
  6  7  1  0
  7  8  2  0
  8  9  1  0
  9 10  2  0
 10 11  1  0
 11 12  2  0
 12 13  1  0
 13 14  1  0
 14 15  1  0
 15 16  2  0
 16 17  1  0
 17 18  2  0
 18 19  1  0
 19 20  1  0
 20 21  1  0
 21 22  1  0
 22 23  1  0
 22 24  1  0
 24 25  1  0
 18 26  1  0
 26 27  2  0
 13 28  2  0
 28 29  1  0
  6 30  1  0
 30 31  2  0
 31  3  1  0
 29  7  1  0
 29 11  1  0
 27 15  1  0
 25 19  1  0
  1 32  1  0
  1 33  1  0
  1 34  1  0
  4 35  1  0
  5 36  1  0
  8 37  1  0
  9 38  1  0
 10 39  1  0
 14 40  1  0
 16 41  1  0
 17 42  1  0
 20 43  1  0
 20 44  1  0
 21 45  1  0
 21 46  1  0
 22 47  1  0
 23 48  1  0
 23 49  1  0
 23 50  1  0
 24 51  1  0
 24 52  1  0
 25 53  1  0
 25 54  1  0
 26 55  1  0
 27 56  1  0
 30 57  1  0
 31 58  1  0
M  CHG  1  22   1
M  END
>  <meeko>  (1) 
{"is_sidechain": [false], "free_energy": -9.598, "intermolecular_energy": -12.404, "internal_energy": -0.072}

$$$$
4jia_ligand
     RDKit          3D

 58 62  0  0  0  0  0  0  0  0999 V2000
    7.3300  -24.3220  -20.3840 C   0  0  0  0  0  0  0  0  0  0  0  0
    8.5580  -23.8440  -20.9200 O   0  0  0  0  0  0  0  0  0  0  0  0
    9.6670  -24.6150  -20.7080 C   0  0  0  0  0  0  0  0  0  0  0  0
    9.4000  -25.9010  -20.2330 C   0  0  0  0  0  0  0  0  0  0  0  0
   10.4410  -26.7970  -19.9740 C   0  0  0  0  0  0  0  0  0  0  0  0
   11.7730  -26.4170  -20.1880 C   0  0  0  0  0  0  0  0  0  0  0  0
   12.8770  -27.3590  -19.9270 C   0  0  0  0  0  0  0  0  0  0  0  0
   12.6020  -28.5940  -19.4480 C   0  0  0  0  0  0  0  0  0  0  0  0
   13.6830  -29.5310  -19.1970 C   0  0  0  0  0  0  0  0  0  0  0  0
   14.9660  -29.2020  -19.4350 C   0  0  0  0  0  0  0  0  0  0  0  0
   15.2760  -27.9120  -19.9420 C   0  0  0  0  0  0  0  0  0  0  0  0
   16.4200  -27.3500  -20.2520 N   0  0  0  0  0  0  0  0  0  0  0  0
   16.0590  -26.1070  -20.6830 C   0  0  0  0  0  0  0  0  0  0  0  0
   16.9520  -25.1870  -21.0910 N   0  0  0  0  0  0  0  0  0  0  0  0
   17.0520  -23.7980  -20.9140 C   0  0  0  0  0  0  0  0  0  0  0  0
   16.6000  -22.9520  -21.9340 C   0  0  0  0  0  0  0  0  0  0  0  0
   16.6550  -21.5540  -21.8130 C   0  0  0  0  0  0  0  0  0  0  0  0
   17.1540  -20.9420  -20.6590 C   0  0  0  0  0  0  0  0  0  0  0  0
   17.2290  -19.5490  -20.4830 N   0  0  0  0  0  0  0  0  0  0  0  0
   16.8230  -19.0040  -19.1740 C   0  0  0  0  0  0  0  0  0  0  0  0
   16.6730  -17.4710  -19.2520 C   0  0  0  0  0  0  0  0  0  0  0  0
   17.9380  -16.8030  -19.7900 N   0  0  0  0  0  0  0  0  0  0  0  0
   19.0570  -16.7470  -18.7940 C   0  0  0  0  0  0  0  0  0  0  0  0
   18.3430  -17.4210  -21.1260 C   0  0  0  0  0  0  0  0  0  0  0  0
   18.4660  -18.9570  -21.0430 C   0  0  0  0  0  0  0  0  0  0  0  0
   17.6190  -21.7940  -19.6470 C   0  0  0  0  0  0  0  0  0  0  0  0
   17.5650  -23.1900  -19.7680 C   0  0  0  0  0  0  0  0  0  0  0  0
   14.7490  -25.8650  -20.6590 N   0  0  0  0  0  0  0  0  0  0  0  0
   14.2240  -27.0230  -20.1790 N   0  0  0  0  0  0  0  0  0  0  0  0
   12.0350  -25.1250  -20.6610 C   0  0  0  0  0  0  0  0  0  0  0  0
   10.9900  -24.2290  -20.9210 C   0  0  0  0  0  0  0  0  0  0  0  0
    7.3776  -24.3035  -19.2852 H   0  0  0  0  0  0  0  0  0  0  0  0
    6.5056  -23.6791  -20.7262 H   0  0  0  0  0  0  0  0  0  0  0  0
    7.1572  -25.3530  -20.7262 H   0  0  0  0  0  0  0  0  0  0  0  0
    8.3590  -26.2121  -20.0608 H   0  0  0  0  0  0  0  0  0  0  0  0
   10.2136  -27.8062  -19.6001 H   0  0  0  0  0  0  0  0  0  0  0  0
   11.5609  -28.8882  -19.2489 H   0  0  0  0  0  0  0  0  0  0  0  0
   13.4479  -30.5311  -18.8039 H   0  0  0  0  0  0  0  0  0  0  0  0
   15.7693  -29.9273  -19.2382 H   0  0  0  0  0  0  0  0  0  0  0  0
   17.7110  -25.5860  -21.6280 H   0  0  0  0  0  0  0  0  0  0  0  0
   16.1910  -23.3941  -22.8545 H   0  0  0  0  0  0  0  0  0  0  0  0
   16.2980  -20.9272  -22.6435 H   0  0  0  0  0  0  0  0  0  0  0  0
   15.8605  -19.4477  -18.8796 H   0  0  0  0  0  0  0  0  0  0  0  0
   17.5958  -19.2492  -18.4306 H   0  0  0  0  0  0  0  0  0  0  0  0
   15.8318  -17.2291  -19.9183 H   0  0  0  0  0  0  0  0  0  0  0  0
   16.4933  -17.0931  -18.2347 H   0  0  0  0  0  0  0  0  0  0  0  0
   17.6810  -15.8290  -19.9930 H   0  0  0  0  0  0  0  0  0  0  0  0
   18.6425  -16.7677  -17.7753 H   0  0  0  0  0  0  0  0  0  0  0  0
   19.7197  -17.6131  -18.9379 H   0  0  0  0  0  0  0  0  0  0  0  0
   19.6299  -15.8191  -18.9379 H   0  0  0  0  0  0  0  0  0  0  0  0
   17.5828  -17.1665  -21.8792 H   0  0  0  0  0  0  0  0  0  0  0  0
   19.3287  -17.0171  -21.4005 H   0  0  0  0  0  0  0  0  0  0  0  0
   18.6358  -19.3612  -22.0519 H   0  0  0  0  0  0  0  0  0  0  0  0
   19.3102  -19.2104  -20.3848 H   0  0  0  0  0  0  0  0  0  0  0  0
   18.0389  -21.3540  -18.7304 H   0  0  0  0  0  0  0  0  0  0  0  0
   17.9342  -23.8177  -18.9435 H   0  0  0  0  0  0  0  0  0  0  0  0
   13.0751  -24.8097  -20.8306 H   0  0  0  0  0  0  0  0  0  0  0  0
   11.2135  -23.2186  -21.2940 H   0  0  0  0  0  0  0  0  0  0  0  0
  1  2  1  0
  2  3  1  0
  3  4  2  0
  4  5  1  0
  5  6  2  0
  6  7  1  0
  7  8  2  0
  8  9  1  0
  9 10  2  0
 10 11  1  0
 11 12  2  0
 12 13  1  0
 13 14  1  0
 14 15  1  0
 15 16  2  0
 16 17  1  0
 17 18  2  0
 18 19  1  0
 19 20  1  0
 20 21  1  0
 21 22  1  0
 22 23  1  0
 22 24  1  0
 24 25  1  0
 18 26  1  0
 26 27  2  0
 13 28  2  0
 28 29  1  0
  6 30  1  0
 30 31  2  0
 31  3  1  0
 29  7  1  0
 29 11  1  0
 27 15  1  0
 25 19  1  0
  1 32  1  0
  1 33  1  0
  1 34  1  0
  4 35  1  0
  5 36  1  0
  8 37  1  0
  9 38  1  0
 10 39  1  0
 14 40  1  0
 16 41  1  0
 17 42  1  0
 20 43  1  0
 20 44  1  0
 21 45  1  0
 21 46  1  0
 22 47  1  0
 23 48  1  0
 23 49  1  0
 23 50  1  0
 24 51  1  0
 24 52  1  0
 25 53  1  0
 25 54  1  0
 26 55  1  0
 27 56  1  0
 30 57  1  0
 31 58  1  0
M  CHG  1  22   1
M  END
>  <meeko>  (2) 
{"is_sidechain": [false], "free_energy": -9.272, "intermolecular_energy": -11.761, "internal_energy": -0.294}

$$$$
4jia_ligand
     RDKit          3D

 58 62  0  0  0  0  0  0  0  0999 V2000
    9.0220  -22.4960  -20.7020 C   0  0  0  0  0  0  0  0  0  0  0  0
    8.6330  -23.8550  -20.8650 O   0  0  0  0  0  0  0  0  0  0  0  0
    9.5850  -24.8050  -20.6170 C   0  0  0  0  0  0  0  0  0  0  0  0
   10.9000  -24.3730  -20.8010 C   0  0  0  0  0  0  0  0  0  0  0  0
   11.9740  -25.2400  -20.5820 C   0  0  0  0  0  0  0  0  0  0  0  0
   11.7460  -26.5610  -20.1730 C   0  0  0  0  0  0  0  0  0  0  0  0
   12.8740  -27.4800  -19.9300 C   0  0  0  0  0  0  0  0  0  0  0  0
   12.6300  -28.7280  -19.4720 C   0  0  0  0  0  0  0  0  0  0  0  0
   13.7350  -29.6430  -19.2390 C   0  0  0  0  0  0  0  0  0  0  0  0
   15.0090  -29.2790  -19.4730 C   0  0  0  0  0  0  0  0  0  0  0  0
   15.2860  -27.9730  -19.9590 C   0  0  0  0  0  0  0  0  0  0  0  0
   16.4150  -27.3770  -20.2620 N   0  0  0  0  0  0  0  0  0  0  0  0
   16.0220  -26.1370  -20.6700 C   0  0  0  0  0  0  0  0  0  0  0  0
   16.8920  -25.1880  -21.0640 N   0  0  0  0  0  0  0  0  0  0  0  0
   16.8870  -23.7860  -20.9850 C   0  0  0  0  0  0  0  0  0  0  0  0
   17.5740  -23.1660  -19.9330 C   0  0  0  0  0  0  0  0  0  0  0  0
   17.6230  -21.7690  -19.8050 C   0  0  0  0  0  0  0  0  0  0  0  0
   16.9960  -20.9300  -20.7330 C   0  0  0  0  0  0  0  0  0  0  0  0
   17.0160  -19.5270  -20.6560 N   0  0  0  0  0  0  0  0  0  0  0  0
   15.9930  -18.7870  -21.4190 C   0  0  0  0  0  0  0  0  0  0  0  0
   16.3420  -17.2850  -21.4710 C   0  0  0  0  0  0  0  0  0  0  0  0
   16.5560  -16.7020  -20.0750 N   0  0  0  0  0  0  0  0  0  0  0  0
   15.2850  -16.4870  -19.3120 C   0  0  0  0  0  0  0  0  0  0  0  0
   17.5950  -17.5180  -19.3090 C   0  0  0  0  0  0  0  0  0  0  0  0
   17.2490  -19.0220  -19.2830 C   0  0  0  0  0  0  0  0  0  0  0  0
   16.2980  -21.5560  -21.7750 C   0  0  0  0  0  0  0  0  0  0  0  0
   16.2480  -22.9530  -21.9020 C   0  0  0  0  0  0  0  0  0  0  0  0
   14.7070  -25.9270  -20.6390 N   0  0  0  0  0  0  0  0  0  0  0  0
   14.2120  -27.1060  -20.1790 N   0  0  0  0  0  0  0  0  0  0  0  0
   10.4250  -26.9910  -19.9940 C   0  0  0  0  0  0  0  0  0  0  0  0
    9.3510  -26.1190  -20.2130 C   0  0  0  0  0  0  0  0  0  0  0  0
    9.0895  -22.2600  -19.6297 H   0  0  0  0  0  0  0  0  0  0  0  0
   10.0021  -22.3359  -21.1751 H   0  0  0  0  0  0  0  0  0  0  0  0
    8.2751  -21.8415  -21.1751 H   0  0  0  0  0  0  0  0  0  0  0  0
   11.0928  -23.3387  -21.1219 H   0  0  0  0  0  0  0  0  0  0  0  0
   13.0039  -24.8837  -20.7314 H   0  0  0  0  0  0  0  0  0  0  0  0
   11.5968  -29.0507  -19.2759 H   0  0  0  0  0  0  0  0  0  0  0  0
   13.5251  -30.6553  -18.8631 H   0  0  0  0  0  0  0  0  0  0  0  0
   15.8302  -29.9875  -19.2893 H   0  0  0  0  0  0  0  0  0  0  0  0
   17.7220  -25.5700  -21.4970 H   0  0  0  0  0  0  0  0  0  0  0  0
   18.0885  -23.7904  -19.1878 H   0  0  0  0  0  0  0  0  0  0  0  0
   18.1655  -21.3245  -18.9576 H   0  0  0  0  0  0  0  0  0  0  0  0
   15.9475  -19.1841  -22.4438 H   0  0  0  0  0  0  0  0  0  0  0  0
   15.0193  -18.9099  -20.9222 H   0  0  0  0  0  0  0  0  0  0  0  0
   17.2640  -17.1540  -22.0564 H   0  0  0  0  0  0  0  0  0  0  0  0
   15.4984  -16.7545  -21.9367 H   0  0  0  0  0  0  0  0  0  0  0  0
   16.9730  -15.7730  -20.2170 H   0  0  0  0  0  0  0  0  0  0  0  0
   15.4947  -16.5225  -18.2328 H   0  0  0  0  0  0  0  0  0  0  0  0
   14.8633  -15.5048  -19.5715 H   0  0  0  0  0  0  0  0  0  0  0  0
   14.5637  -17.2759  -19.5715 H   0  0  0  0  0  0  0  0  0  0  0  0
   18.5746  -17.3878  -19.7922 H   0  0  0  0  0  0  0  0  0  0  0  0
   17.6107  -17.1563  -18.2703 H   0  0  0  0  0  0  0  0  0  0  0  0
   18.0837  -19.5773  -18.8303 H   0  0  0  0  0  0  0  0  0  0  0  0
   16.3322  -19.1649  -18.6921 H   0  0  0  0  0  0  0  0  0  0  0  0
   15.7737  -20.9338  -22.5153 H   0  0  0  0  0  0  0  0  0  0  0  0
   15.6940  -23.3990  -22.7412 H   0  0  0  0  0  0  0  0  0  0  0  0
   10.2287  -28.0261  -19.6776 H   0  0  0  0  0  0  0  0  0  0  0  0
    8.3196  -26.4718  -20.0658 H   0  0  0  0  0  0  0  0  0  0  0  0
  1  2  1  0
  2  3  1  0
  3  4  2  0
  4  5  1  0
  5  6  2  0
  6  7  1  0
  7  8  2  0
  8  9  1  0
  9 10  2  0
 10 11  1  0
 11 12  2  0
 12 13  1  0
 13 14  1  0
 14 15  1  0
 15 16  2  0
 16 17  1  0
 17 18  2  0
 18 19  1  0
 19 20  1  0
 20 21  1  0
 21 22  1  0
 22 23  1  0
 22 24  1  0
 24 25  1  0
 18 26  1  0
 26 27  2  0
 13 28  2  0
 28 29  1  0
  6 30  1  0
 30 31  2  0
 31  3  1  0
 29  7  1  0
 29 11  1  0
 27 15  1  0
 25 19  1  0
  1 32  1  0
  1 33  1  0
  1 34  1  0
  4 35  1  0
  5 36  1  0
  8 37  1  0
  9 38  1  0
 10 39  1  0
 14 40  1  0
 16 41  1  0
 17 42  1  0
 20 43  1  0
 20 44  1  0
 21 45  1  0
 21 46  1  0
 22 47  1  0
 23 48  1  0
 23 49  1  0
 23 50  1  0
 24 51  1  0
 24 52  1  0
 25 53  1  0
 25 54  1  0
 26 55  1  0
 27 56  1  0
 30 57  1  0
 31 58  1  0
M  CHG  1  22   1
M  END
>  <meeko>  (3) 
{"is_sidechain": [false], "free_energy": -9.094, "intermolecular_energy": -11.478, "internal_energy": -0.346}

$$$$
4jia_ligand
     RDKit          3D

 58 62  0  0  0  0  0  0  0  0999 V2000
   15.0070  -18.2510  -18.8740 C   0  0  0  0  0  0  0  0  0  0  0  0
   15.3430  -18.7310  -20.1700 O   0  0  0  0  0  0  0  0  0  0  0  0
   15.8380  -20.0030  -20.2500 C   0  0  0  0  0  0  0  0  0  0  0  0
   15.7060  -20.6020  -21.5040 C   0  0  0  0  0  0  0  0  0  0  0  0
   16.1710  -21.9010  -21.7270 C   0  0  0  0  0  0  0  0  0  0  0  0
   16.7770  -22.6240  -20.6920 C   0  0  0  0  0  0  0  0  0  0  0  0
   17.2790  -23.9920  -20.9220 C   0  0  0  0  0  0  0  0  0  0  0  0
   18.5820  -24.1820  -21.2290 C   0  0  0  0  0  0  0  0  0  0  0  0
   19.0860  -25.5280  -21.4480 C   0  0  0  0  0  0  0  0  0  0  0  0
   18.2830  -26.6030  -21.3470 C   0  0  0  0  0  0  0  0  0  0  0  0
   16.9120  -26.4250  -21.0200 C   0  0  0  0  0  0  0  0  0  0  0  0
   15.9350  -27.2870  -20.8650 N   0  0  0  0  0  0  0  0  0  0  0  0
   14.8630  -26.5010  -20.5580 C   0  0  0  0  0  0  0  0  0  0  0  0
   13.6340  -27.0000  -20.3300 N   0  0  0  0  0  0  0  0  0  0  0  0
   12.3500  -26.4310  -20.3280 C   0  0  0  0  0  0  0  0  0  0  0  0
   12.1930  -25.1160  -20.7840 C   0  0  0  0  0  0  0  0  0  0  0  0
   10.9350  -24.4950  -20.8250 C   0  0  0  0  0  0  0  0  0  0  0  0
    9.7760  -25.1680  -20.4230 C   0  0  0  0  0  0  0  0  0  0  0  0
    8.4920  -24.5960  -20.4460 N   0  0  0  0  0  0  0  0  0  0  0  0
    8.2170  -23.5790  -21.4790 C   0  0  0  0  0  0  0  0  0  0  0  0
    6.8940  -22.8460  -21.1750 C   0  0  0  0  0  0  0  0  0  0  0  0
    5.7320  -23.8220  -21.0010 N   0  0  0  0  0  0  0  0  0  0  0  0
    5.2350  -24.4020  -22.2910 C   0  0  0  0  0  0  0  0  0  0  0  0
    6.0720  -24.8770  -19.9500 C   0  0  0  0  0  0  0  0  0  0  0  0
    7.4080  -25.5870  -20.2510 C   0  0  0  0  0  0  0  0  0  0  0  0
    9.9420  -26.4790  -19.9540 C   0  0  0  0  0  0  0  0  0  0  0  0
   11.1990  -27.0990  -19.9120 C   0  0  0  0  0  0  0  0  0  0  0  0
   15.1200  -25.1950  -20.5130 N   0  0  0  0  0  0  0  0  0  0  0  0
   16.4430  -25.1250  -20.8120 N   0  0  0  0  0  0  0  0  0  0  0  0
   16.9030  -22.0210  -19.4340 C   0  0  0  0  0  0  0  0  0  0  0  0
   16.4370  -20.7180  -19.2140 C   0  0  0  0  0  0  0  0  0  0  0  0
   15.4623  -18.9014  -18.1127 H   0  0  0  0  0  0  0  0  0  0  0  0
   15.3852  -17.2251  -18.7535 H   0  0  0  0  0  0  0  0  0  0  0  0
   13.9136  -18.2552  -18.7535 H   0  0  0  0  0  0  0  0  0  0  0  0
   15.2309  -20.0456  -22.3254 H   0  0  0  0  0  0  0  0  0  0  0  0
   16.0603  -22.3582  -22.7214 H   0  0  0  0  0  0  0  0  0  0  0  0
   19.2596  -23.3196  -21.3129 H   0  0  0  0  0  0  0  0  0  0  0  0
   20.1468  -25.6707  -21.7018 H   0  0  0  0  0  0  0  0  0  0  0  0
   18.6853  -27.6127  -21.5165 H   0  0  0  0  0  0  0  0  0  0  0  0
   13.6420  -27.9910  -20.1260 H   0  0  0  0  0  0  0  0  0  0  0  0
   13.0784  -24.5556  -21.1186 H   0  0  0  0  0  0  0  0  0  0  0  0
   10.8586  -23.4569  -21.1808 H   0  0  0  0  0  0  0  0  0  0  0  0
    9.0397  -22.8491  -21.4968 H   0  0  0  0  0  0  0  0  0  0  0  0
    8.1319  -24.0774  -22.4559 H   0  0  0  0  0  0  0  0  0  0  0  0
    7.0133  -22.2655  -20.2483 H   0  0  0  0  0  0  0  0  0  0  0  0
    6.6638  -22.1885  -22.0263 H   0  0  0  0  0  0  0  0  0  0  0  0
    4.9560  -23.2730  -20.6110 H   0  0  0  0  0  0  0  0  0  0  0  0
    4.5328  -25.2215  -22.0781 H   0  0  0  0  0  0  0  0  0  0  0  0
    4.7218  -23.6206  -22.8707 H   0  0  0  0  0  0  0  0  0  0  0  0
    6.0858  -24.7894  -22.8707 H   0  0  0  0  0  0  0  0  0  0  0  0
    6.1437  -24.3882  -18.9672 H   0  0  0  0  0  0  0  0  0  0  0  0
    5.2754  -25.6355  -19.9616 H   0  0  0  0  0  0  0  0  0  0  0  0
    7.6663  -26.2443  -19.4076 H   0  0  0  0  0  0  0  0  0  0  0  0
    7.2966  -26.1771  -21.1726 H   0  0  0  0  0  0  0  0  0  0  0  0
    9.0597  -27.0378  -19.6087 H   0  0  0  0  0  0  0  0  0  0  0  0
   11.2786  -28.1325  -19.5437 H   0  0  0  0  0  0  0  0  0  0  0  0
   17.3732  -22.5767  -18.6093 H   0  0  0  0  0  0  0  0  0  0  0  0
   16.5442  -20.2578  -18.2206 H   0  0  0  0  0  0  0  0  0  0  0  0
  1  2  1  0
  2  3  1  0
  3  4  2  0
  4  5  1  0
  5  6  2  0
  6  7  1  0
  7  8  2  0
  8  9  1  0
  9 10  2  0
 10 11  1  0
 11 12  2  0
 12 13  1  0
 13 14  1  0
 14 15  1  0
 15 16  2  0
 16 17  1  0
 17 18  2  0
 18 19  1  0
 19 20  1  0
 20 21  1  0
 21 22  1  0
 22 23  1  0
 22 24  1  0
 24 25  1  0
 18 26  1  0
 26 27  2  0
 13 28  2  0
 28 29  1  0
  6 30  1  0
 30 31  2  0
 31  3  1  0
 29  7  1  0
 29 11  1  0
 27 15  1  0
 25 19  1  0
  1 32  1  0
  1 33  1  0
  1 34  1  0
  4 35  1  0
  5 36  1  0
  8 37  1  0
  9 38  1  0
 10 39  1  0
 14 40  1  0
 16 41  1  0
 17 42  1  0
 20 43  1  0
 20 44  1  0
 21 45  1  0
 21 46  1  0
 22 47  1  0
 23 48  1  0
 23 49  1  0
 23 50  1  0
 24 51  1  0
 24 52  1  0
 25 53  1  0
 25 54  1  0
 26 55  1  0
 27 56  1  0
 30 57  1  0
 31 58  1  0
M  CHG  1  22   1
M  END
>  <meeko>  (4) 
{"is_sidechain": [false], "free_energy": -8.914, "intermolecular_energy": -11.123, "internal_energy": -0.469}

$$$$
4jia_ligand
     RDKit          3D

 58 62  0  0  0  0  0  0  0  0999 V2000
   15.3260  -29.2800  -19.6600 C   0  0  0  0  0  0  0  0  0  0  0  0
   15.1180  -28.0570  -20.3560 O   0  0  0  0  0  0  0  0  0  0  0  0
   13.8680  -27.5080  -20.2840 C   0  0  0  0  0  0  0  0  0  0  0  0
   13.6930  -26.3540  -21.0500 C   0  0  0  0  0  0  0  0  0  0  0  0
   12.4640  -25.6900  -21.0710 C   0  0  0  0  0  0  0  0  0  0  0  0
   11.3840  -26.1740  -20.3210 C   0  0  0  0  0  0  0  0  0  0  0  0
   10.0800  -25.4850  -20.3440 C   0  0  0  0  0  0  0  0  0  0  0  0
    8.9410  -26.2120  -20.2980 C   0  0  0  0  0  0  0  0  0  0  0  0
    7.6520  -25.5400  -20.3120 C   0  0  0  0  0  0  0  0  0  0  0  0
    7.5610  -24.1990  -20.3650 C   0  0  0  0  0  0  0  0  0  0  0  0
    8.7460  -23.4170  -20.4090 C   0  0  0  0  0  0  0  0  0  0  0  0
    8.9320  -22.1190  -20.4650 N   0  0  0  0  0  0  0  0  0  0  0  0
   10.2900  -21.9920  -20.4840 C   0  0  0  0  0  0  0  0  0  0  0  0
   10.9110  -20.8000  -20.5520 N   0  0  0  0  0  0  0  0  0  0  0  0
   12.2560  -20.4080  -20.4470 C   0  0  0  0  0  0  0  0  0  0  0  0
   13.0490  -20.4010  -21.6000 C   0  0  0  0  0  0  0  0  0  0  0  0
   14.3960  -20.0040  -21.5670 C   0  0  0  0  0  0  0  0  0  0  0  0
   15.0030  -19.5850  -20.3780 C   0  0  0  0  0  0  0  0  0  0  0  0
   16.3440  -19.1740  -20.2890 N   0  0  0  0  0  0  0  0  0  0  0  0
   17.2040  -19.3900  -21.4680 C   0  0  0  0  0  0  0  0  0  0  0  0
   18.6860  -19.1730  -21.1010 C   0  0  0  0  0  0  0  0  0  0  0  0
   18.9180  -17.8060  -20.4580 N   0  0  0  0  0  0  0  0  0  0  0  0
   18.8860  -16.6700  -21.4350 C   0  0  0  0  0  0  0  0  0  0  0  0
   17.9840  -17.6100  -19.2660 C   0  0  0  0  0  0  0  0  0  0  0  0
   16.5070  -17.8530  -19.6390 C   0  0  0  0  0  0  0  0  0  0  0  0
   14.2070  -19.6080  -19.2250 C   0  0  0  0  0  0  0  0  0  0  0  0
   12.8620  -20.0060  -19.2580 C   0  0  0  0  0  0  0  0  0  0  0  0
   10.9610  -23.1420  -20.4410 N   0  0  0  0  0  0  0  0  0  0  0  0
    9.9770  -24.0780  -20.3950 N   0  0  0  0  0  0  0  0  0  0  0  0
   11.5660  -27.3300  -19.5510 C   0  0  0  0  0  0  0  0  0  0  0  0
   12.7990  -27.9940  -19.5330 C   0  0  0  0  0  0  0  0  0  0  0  0
   15.2945  -29.0950  -18.5761 H   0  0  0  0  0  0  0  0  0  0  0  0
   14.5367  -29.9960  -19.9328 H   0  0  0  0  0  0  0  0  0  0  0  0
   16.3076  -29.6948  -19.9328 H   0  0  0  0  0  0  0  0  0  0  0  0
   14.5324  -25.9631  -21.6438 H   0  0  0  0  0  0  0  0  0  0  0  0
   12.3435  -24.7819  -21.6799 H   0  0  0  0  0  0  0  0  0  0  0  0
    8.9896  -27.3099  -20.2501 H   0  0  0  0  0  0  0  0  0  0  0  0
    6.7313  -26.1410  -20.2785 H   0  0  0  0  0  0  0  0  0  0  0  0
    6.5752  -23.7111  -20.3742 H   0  0  0  0  0  0  0  0  0  0  0  0
   10.2740  -20.0340  -20.7240 H   0  0  0  0  0  0  0  0  0  0  0  0
   12.6061  -20.7145  -22.5568 H   0  0  0  0  0  0  0  0  0  0  0  0
   14.9859  -20.0229  -22.4952 H   0  0  0  0  0  0  0  0  0  0  0  0
   17.0679  -20.4191  -21.8320 H   0  0  0  0  0  0  0  0  0  0  0  0
   16.9220  -18.6710  -22.2512 H   0  0  0  0  0  0  0  0  0  0  0  0
   18.9959  -19.9563  -20.3936 H   0  0  0  0  0  0  0  0  0  0  0  0
   19.2776  -19.2197  -22.0272 H   0  0  0  0  0  0  0  0  0  0  0  0
   19.8700  -17.8310  -20.0720 H   0  0  0  0  0  0  0  0  0  0  0  0
   18.8591  -15.7163  -20.8876 H   0  0  0  0  0  0  0  0  0  0  0  0
   19.7855  -16.7047  -22.0672 H   0  0  0  0  0  0  0  0  0  0  0  0
   17.9899  -16.7553  -22.0672 H   0  0  0  0  0  0  0  0  0  0  0  0
   18.2698  -18.3155  -18.4719 H   0  0  0  0  0  0  0  0  0  0  0  0
   18.0806  -16.5676  -18.9282 H   0  0  0  0  0  0  0  0  0  0  0  0
   15.8937  -17.8210  -18.7264 H   0  0  0  0  0  0  0  0  0  0  0  0
   16.1852  -17.0700  -20.3414 H   0  0  0  0  0  0  0  0  0  0  0  0
   14.6501  -19.3048  -18.2649 H   0  0  0  0  0  0  0  0  0  0  0  0
   12.2747  -20.0007  -18.3279 H   0  0  0  0  0  0  0  0  0  0  0  0
   10.7298  -27.7212  -18.9529 H   0  0  0  0  0  0  0  0  0  0  0  0
   12.9242  -28.9017  -18.9244 H   0  0  0  0  0  0  0  0  0  0  0  0
  1  2  1  0
  2  3  1  0
  3  4  2  0
  4  5  1  0
  5  6  2  0
  6  7  1  0
  7  8  2  0
  8  9  1  0
  9 10  2  0
 10 11  1  0
 11 12  2  0
 12 13  1  0
 13 14  1  0
 14 15  1  0
 15 16  2  0
 16 17  1  0
 17 18  2  0
 18 19  1  0
 19 20  1  0
 20 21  1  0
 21 22  1  0
 22 23  1  0
 22 24  1  0
 24 25  1  0
 18 26  1  0
 26 27  2  0
 13 28  2  0
 28 29  1  0
  6 30  1  0
 30 31  2  0
 31  3  1  0
 29  7  1  0
 29 11  1  0
 27 15  1  0
 25 19  1  0
  1 32  1  0
  1 33  1  0
  1 34  1  0
  4 35  1  0
  5 36  1  0
  8 37  1  0
  9 38  1  0
 10 39  1  0
 14 40  1  0
 16 41  1  0
 17 42  1  0
 20 43  1  0
 20 44  1  0
 21 45  1  0
 21 46  1  0
 22 47  1  0
 23 48  1  0
 23 49  1  0
 23 50  1  0
 24 51  1  0
 24 52  1  0
 25 53  1  0
 25 54  1  0
 26 55  1  0
 27 56  1  0
 30 57  1  0
 31 58  1  0
M  CHG  1  22   1
M  END
>  <meeko>  (5) 
{"is_sidechain": [false], "free_energy": -8.879, "intermolecular_energy": -10.981, "internal_energy": -0.565}

$$$$
4jia_ligand
     RDKit          3D

 58 62  0  0  0  0  0  0  0  0999 V2000
   15.6180  -26.6790  -20.7760 C   0  0  0  0  0  0  0  0  0  0  0  0
   14.6290  -27.4600  -20.1150 O   0  0  0  0  0  0  0  0  0  0  0  0
   13.3530  -26.9680  -20.1110 C   0  0  0  0  0  0  0  0  0  0  0  0
   13.1910  -25.7660  -20.8030 C   0  0  0  0  0  0  0  0  0  0  0  0
   11.9380  -25.1510  -20.8810 C   0  0  0  0  0  0  0  0  0  0  0  0
   10.8230  -25.7330  -20.2640 C   0  0  0  0  0  0  0  0  0  0  0  0
    9.4950  -25.0960  -20.3490 C   0  0  0  0  0  0  0  0  0  0  0  0
    8.3930  -25.8670  -20.4880 C   0  0  0  0  0  0  0  0  0  0  0  0
    7.0810  -25.2470  -20.5640 C   0  0  0  0  0  0  0  0  0  0  0  0
    6.9300  -23.9110  -20.4940 C   0  0  0  0  0  0  0  0  0  0  0  0
    8.0760  -23.0840  -20.3440 C   0  0  0  0  0  0  0  0  0  0  0  0
    8.2040  -21.7820  -20.2540 N   0  0  0  0  0  0  0  0  0  0  0  0
    9.5500  -21.6020  -20.1250 C   0  0  0  0  0  0  0  0  0  0  0  0
   10.1160  -20.3860  -20.0150 N   0  0  0  0  0  0  0  0  0  0  0  0
   11.4410  -19.9300  -20.1080 C   0  0  0  0  0  0  0  0  0  0  0  0
   12.0080  -19.2730  -19.0090 C   0  0  0  0  0  0  0  0  0  0  0  0
   13.3330  -18.8070  -19.0310 C   0  0  0  0  0  0  0  0  0  0  0  0
   14.1520  -18.9910  -20.1500 C   0  0  0  0  0  0  0  0  0  0  0  0
   15.4840  -18.5490  -20.2240 N   0  0  0  0  0  0  0  0  0  0  0  0
   16.2730  -18.5480  -18.9770 C   0  0  0  0  0  0  0  0  0  0  0  0
   17.5850  -17.7600  -19.1700 C   0  0  0  0  0  0  0  0  0  0  0  0
   18.3880  -18.2780  -20.3620 N   0  0  0  0  0  0  0  0  0  0  0  0
   19.0860  -19.5770  -20.0970 C   0  0  0  0  0  0  0  0  0  0  0  0
   17.5250  -18.2960  -21.6220 C   0  0  0  0  0  0  0  0  0  0  0  0
   16.2050  -19.0660  -21.4100 C   0  0  0  0  0  0  0  0  0  0  0  0
   13.5740  -19.6360  -21.2520 C   0  0  0  0  0  0  0  0  0  0  0  0
   12.2500  -20.1000  -21.2310 C   0  0  0  0  0  0  0  0  0  0  0  0
   10.2680  -22.7230  -20.1290 N   0  0  0  0  0  0  0  0  0  0  0  0
    9.3300  -23.6960  -20.2720 N   0  0  0  0  0  0  0  0  0  0  0  0
   10.9920  -26.9370  -19.5670 C   0  0  0  0  0  0  0  0  0  0  0  0
   12.2490  -27.5520  -19.4920 C   0  0  0  0  0  0  0  0  0  0  0  0
   16.2509  -26.1792  -20.0279 H   0  0  0  0  0  0  0  0  0  0  0  0
   16.2404  -27.3319  -21.4055 H   0  0  0  0  0  0  0  0  0  0  0  0
   15.1272  -25.9222  -21.4055 H   0  0  0  0  0  0  0  0  0  0  0  0
   14.0583  -25.2982  -21.2918 H   0  0  0  0  0  0  0  0  0  0  0  0
   11.8269  -24.2044  -21.4302 H   0  0  0  0  0  0  0  0  0  0  0  0
    8.4895  -26.9614  -20.5434 H   0  0  0  0  0  0  0  0  0  0  0  0
    6.1914  -25.8833  -20.6813 H   0  0  0  0  0  0  0  0  0  0  0  0
    5.9271  -23.4629  -20.5525 H   0  0  0  0  0  0  0  0  0  0  0  0
    9.4430  -19.6520  -19.8380 H   0  0  0  0  0  0  0  0  0  0  0  0
   11.4003  -19.1178  -18.1053 H   0  0  0  0  0  0  0  0  0  0  0  0
   13.7351  -18.2863  -18.1494 H   0  0  0  0  0  0  0  0  0  0  0  0
   15.6833  -18.0790  -18.1756 H   0  0  0  0  0  0  0  0  0  0  0  0
   16.5172  -19.5865  -18.7091 H   0  0  0  0  0  0  0  0  0  0  0  0
   17.3424  -16.7003  -19.3376 H   0  0  0  0  0  0  0  0  0  0  0  0
   18.1966  -17.8873  -18.2646 H   0  0  0  0  0  0  0  0  0  0  0  0
   19.1240  -17.5810  -20.5320 H   0  0  0  0  0  0  0  0  0  0  0  0
   19.1700  -19.7333  -19.0114 H   0  0  0  0  0  0  0  0  0  0  0  0
   18.5091  -20.4008  -20.5425 H   0  0  0  0  0  0  0  0  0  0  0  0
   20.0914  -19.5506  -20.5425 H   0  0  0  0  0  0  0  0  0  0  0  0
   17.2895  -17.2596  -21.9055 H   0  0  0  0  0  0  0  0  0  0  0  0
   18.0921  -18.8072  -22.4139 H   0  0  0  0  0  0  0  0  0  0  0  0
   15.5697  -18.9460  -22.2999 H   0  0  0  0  0  0  0  0  0  0  0  0
   16.4369  -20.1290  -21.2482 H   0  0  0  0  0  0  0  0  0  0  0  0
   14.1764  -19.7828  -22.1606 H   0  0  0  0  0  0  0  0  0  0  0  0
   11.8423  -20.6077  -22.1176 H   0  0  0  0  0  0  0  0  0  0  0  0
   10.1277  -27.4049  -19.0729 H   0  0  0  0  0  0  0  0  0  0  0  0
   12.3648  -28.4982  -18.9431 H   0  0  0  0  0  0  0  0  0  0  0  0
  1  2  1  0
  2  3  1  0
  3  4  2  0
  4  5  1  0
  5  6  2  0
  6  7  1  0
  7  8  2  0
  8  9  1  0
  9 10  2  0
 10 11  1  0
 11 12  2  0
 12 13  1  0
 13 14  1  0
 14 15  1  0
 15 16  2  0
 16 17  1  0
 17 18  2  0
 18 19  1  0
 19 20  1  0
 20 21  1  0
 21 22  1  0
 22 23  1  0
 22 24  1  0
 24 25  1  0
 18 26  1  0
 26 27  2  0
 13 28  2  0
 28 29  1  0
  6 30  1  0
 30 31  2  0
 31  3  1  0
 29  7  1  0
 29 11  1  0
 27 15  1  0
 25 19  1  0
  1 32  1  0
  1 33  1  0
  1 34  1  0
  4 35  1  0
  5 36  1  0
  8 37  1  0
  9 38  1  0
 10 39  1  0
 14 40  1  0
 16 41  1  0
 17 42  1  0
 20 43  1  0
 20 44  1  0
 21 45  1  0
 21 46  1  0
 22 47  1  0
 23 48  1  0
 23 49  1  0
 23 50  1  0
 24 51  1  0
 24 52  1  0
 25 53  1  0
 25 54  1  0
 26 55  1  0
 27 56  1  0
 30 57  1  0
 31 58  1  0
M  CHG  1  22   1
M  END
>  <meeko>  (6) 
{"is_sidechain": [false], "free_energy": -8.595, "intermolecular_energy": -10.582, "internal_energy": -0.597}

$$$$
4jia_ligand
     RDKit          3D

 58 62  0  0  0  0  0  0  0  0999 V2000
   14.3680  -29.2380  -19.2120 C   0  0  0  0  0  0  0  0  0  0  0  0
   15.5380  -28.9910  -19.9840 O   0  0  0  0  0  0  0  0  0  0  0  0
   16.0590  -27.7280  -19.9290 C   0  0  0  0  0  0  0  0  0  0  0  0
   15.3580  -26.7770  -20.6730 C   0  0  0  0  0  0  0  0  0  0  0  0
   15.7800  -25.4440  -20.7050 C   0  0  0  0  0  0  0  0  0  0  0  0
   16.9160  -25.0430  -19.9910 C   0  0  0  0  0  0  0  0  0  0  0  0
   17.3630  -23.6370  -20.0120 C   0  0  0  0  0  0  0  0  0  0  0  0
   18.6420  -23.3480  -20.3420 C   0  0  0  0  0  0  0  0  0  0  0  0
   19.0860  -21.9650  -20.3730 C   0  0  0  0  0  0  0  0  0  0  0  0
   18.2490  -20.9520  -20.0860 C   0  0  0  0  0  0  0  0  0  0  0  0
   16.9000  -21.2340  -19.7420 C   0  0  0  0  0  0  0  0  0  0  0  0
   15.9000  -20.4470  -19.4230 N   0  0  0  0  0  0  0  0  0  0  0  0
   14.8700  -21.3140  -19.2030 C   0  0  0  0  0  0  0  0  0  0  0  0
   13.6410  -20.9090  -18.8340 N   0  0  0  0  0  0  0  0  0  0  0  0
   12.3470  -21.2490  -19.2620 C   0  0  0  0  0  0  0  0  0  0  0  0
   11.5540  -20.2630  -19.8620 C   0  0  0  0  0  0  0  0  0  0  0  0
   10.2580  -20.5410  -20.3270 C   0  0  0  0  0  0  0  0  0  0  0  0
    9.7050  -21.8220  -20.2230 C   0  0  0  0  0  0  0  0  0  0  0  0
    8.4170  -22.1560  -20.6740 N   0  0  0  0  0  0  0  0  0  0  0  0
    8.3050  -23.2180  -21.6930 C   0  0  0  0  0  0  0  0  0  0  0  0
    6.8830  -23.2430  -22.2900 C   0  0  0  0  0  0  0  0  0  0  0  0
    5.8130  -23.3660  -21.2060 N   0  0  0  0  0  0  0  0  0  0  0  0
    5.7050  -24.7420  -20.6230 C   0  0  0  0  0  0  0  0  0  0  0  0
    5.9880  -22.2720  -20.1550 C   0  0  0  0  0  0  0  0  0  0  0  0
    7.4200  -22.2400  -19.5810 C   0  0  0  0  0  0  0  0  0  0  0  0
   10.4990  -22.8000  -19.6070 C   0  0  0  0  0  0  0  0  0  0  0  0
   11.7930  -22.5220  -19.1420 C   0  0  0  0  0  0  0  0  0  0  0  0
   15.1750  -22.6000  -19.3690 N   0  0  0  0  0  0  0  0  0  0  0  0
   16.4880  -22.5690  -19.7160 N   0  0  0  0  0  0  0  0  0  0  0  0
   17.6180  -26.0020  -19.2500 C   0  0  0  0  0  0  0  0  0  0  0  0
   17.1920  -27.3370  -19.2180 C   0  0  0  0  0  0  0  0  0  0  0  0
   14.6170  -29.1854  -18.1418 H   0  0  0  0  0  0  0  0  0  0  0  0
   13.6059  -28.4810  -19.4488 H   0  0  0  0  0  0  0  0  0  0  0  0
   13.9769  -30.2385  -19.4488 H   0  0  0  0  0  0  0  0  0  0  0  0
   14.4649  -27.0792  -21.2396 H   0  0  0  0  0  0  0  0  0  0  0  0
   15.2162  -24.7061  -21.2946 H   0  0  0  0  0  0  0  0  0  0  0  0
   19.3448  -24.1582  -20.5864 H   0  0  0  0  0  0  0  0  0  0  0  0
   20.1301  -21.7413  -20.6371 H   0  0  0  0  0  0  0  0  0  0  0  0
   18.6067  -19.9123  -20.1175 H   0  0  0  0  0  0  0  0  0  0  0  0
   13.6590  -20.2250  -18.0890 H   0  0  0  0  0  0  0  0  0  0  0  0
   11.9562  -19.2451  -19.9719 H   0  0  0  0  0  0  0  0  0  0  0  0
    9.6651  -19.7342  -20.7827 H   0  0  0  0  0  0  0  0  0  0  0  0
    9.0320  -23.0276  -22.4963 H   0  0  0  0  0  0  0  0  0  0  0  0
    8.5103  -24.1895  -21.2197 H   0  0  0  0  0  0  0  0  0  0  0  0
    6.7161  -22.3114  -22.8506 H   0  0  0  0  0  0  0  0  0  0  0  0
    6.8045  -24.1209  -22.9482 H   0  0  0  0  0  0  0  0  0  0  0  0
    4.9160  -23.1740  -21.6690 H   0  0  0  0  0  0  0  0  0  0  0  0
    5.7101  -24.6764  -19.5250 H   0  0  0  0  0  0  0  0  0  0  0  0
    4.7674  -25.2096  -20.9580 H   0  0  0  0  0  0  0  0  0  0  0  0
    6.5582  -25.3502  -20.9580 H   0  0  0  0  0  0  0  0  0  0  0  0
    5.7697  -21.2981  -20.6175 H   0  0  0  0  0  0  0  0  0  0  0  0
    5.2964  -22.4853  -19.3266 H   0  0  0  0  0  0  0  0  0  0  0  0
    7.5274  -21.3633  -18.9253 H   0  0  0  0  0  0  0  0  0  0  0  0
    7.5949  -23.1644  -19.0111 H   0  0  0  0  0  0  0  0  0  0  0  0
   10.0950  -23.8158  -19.4847 H   0  0  0  0  0  0  0  0  0  0  0  0
   12.3818  -23.3245  -18.6736 H   0  0  0  0  0  0  0  0  0  0  0  0
   18.5144  -25.7040  -18.6864 H   0  0  0  0  0  0  0  0  0  0  0  0
   17.7535  -28.0780  -18.6301 H   0  0  0  0  0  0  0  0  0  0  0  0
  1  2  1  0
  2  3  1  0
  3  4  2  0
  4  5  1  0
  5  6  2  0
  6  7  1  0
  7  8  2  0
  8  9  1  0
  9 10  2  0
 10 11  1  0
 11 12  2  0
 12 13  1  0
 13 14  1  0
 14 15  1  0
 15 16  2  0
 16 17  1  0
 17 18  2  0
 18 19  1  0
 19 20  1  0
 20 21  1  0
 21 22  1  0
 22 23  1  0
 22 24  1  0
 24 25  1  0
 18 26  1  0
 26 27  2  0
 13 28  2  0
 28 29  1  0
  6 30  1  0
 30 31  2  0
 31  3  1  0
 29  7  1  0
 29 11  1  0
 27 15  1  0
 25 19  1  0
  1 32  1  0
  1 33  1  0
  1 34  1  0
  4 35  1  0
  5 36  1  0
  8 37  1  0
  9 38  1  0
 10 39  1  0
 14 40  1  0
 16 41  1  0
 17 42  1  0
 20 43  1  0
 20 44  1  0
 21 45  1  0
 21 46  1  0
 22 47  1  0
 23 48  1  0
 23 49  1  0
 23 50  1  0
 24 51  1  0
 24 52  1  0
 25 53  1  0
 25 54  1  0
 26 55  1  0
 27 56  1  0
 30 57  1  0
 31 58  1  0
M  CHG  1  22   1
M  END
>  <meeko>  (7) 
{"is_sidechain": [false], "free_energy": -8.114, "intermolecular_energy": -9.961, "internal_energy": -0.596}

$$$$
4jia_ligand
     RDKit          3D

 58 62  0  0  0  0  0  0  0  0999 V2000
   17.7610  -27.3930  -18.7000 C   0  0  0  0  0  0  0  0  0  0  0  0
   18.4050  -26.1530  -18.4300 O   0  0  0  0  0  0  0  0  0  0  0  0
   17.6930  -25.0170  -18.6970 C   0  0  0  0  0  0  0  0  0  0  0  0
   17.2800  -24.3100  -17.5660 C   0  0  0  0  0  0  0  0  0  0  0  0
   16.5450  -23.1280  -17.6910 C   0  0  0  0  0  0  0  0  0  0  0  0
   16.2110  -22.6320  -18.9580 C   0  0  0  0  0  0  0  0  0  0  0  0
   15.4450  -21.3800  -19.1000 C   0  0  0  0  0  0  0  0  0  0  0  0
   16.1020  -20.2020  -19.1970 C   0  0  0  0  0  0  0  0  0  0  0  0
   15.3540  -18.9660  -19.3460 C   0  0  0  0  0  0  0  0  0  0  0  0
   14.0100  -18.9600  -19.3960 C   0  0  0  0  0  0  0  0  0  0  0  0
   13.3000  -20.1870  -19.3010 C   0  0  0  0  0  0  0  0  0  0  0  0
   12.0160  -20.4550  -19.3200 N   0  0  0  0  0  0  0  0  0  0  0  0
   11.9700  -21.8110  -19.1890 C   0  0  0  0  0  0  0  0  0  0  0  0
   10.8170  -22.5030  -19.1490 N   0  0  0  0  0  0  0  0  0  0  0  0
    9.6610  -22.4940  -19.9480 C   0  0  0  0  0  0  0  0  0  0  0  0
    9.5110  -23.4810  -20.9290 C   0  0  0  0  0  0  0  0  0  0  0  0
    8.3730  -23.5390  -21.7500 C   0  0  0  0  0  0  0  0  0  0  0  0
    7.3300  -22.6170  -21.6150 C   0  0  0  0  0  0  0  0  0  0  0  0
    6.1680  -22.6310  -22.4060 N   0  0  0  0  0  0  0  0  0  0  0  0
    6.2450  -23.2990  -23.7190 C   0  0  0  0  0  0  0  0  0  0  0  0
    5.0030  -22.9590  -24.5690 C   0  0  0  0  0  0  0  0  0  0  0  0
    3.7040  -23.2810  -23.8310 N   0  0  0  0  0  0  0  0  0  0  0  0
    3.3930  -24.7450  -23.7740 C   0  0  0  0  0  0  0  0  0  0  0  0
    3.6820  -22.6000  -22.4650 C   0  0  0  0  0  0  0  0  0  0  0  0
    4.9400  -22.9270  -21.6320 C   0  0  0  0  0  0  0  0  0  0  0  0
    7.4930  -21.6230  -20.6400 C   0  0  0  0  0  0  0  0  0  0  0  0
    8.6300  -21.5640  -19.8210 C   0  0  0  0  0  0  0  0  0  0  0  0
   13.1590  -22.4050  -19.0900 N   0  0  0  0  0  0  0  0  0  0  0  0
   14.0340  -21.3680  -19.1580 N   0  0  0  0  0  0  0  0  0  0  0  0
   16.6250  -23.3470  -20.0900 C   0  0  0  0  0  0  0  0  0  0  0  0
   17.3620  -24.5310  -19.9610 C   0  0  0  0  0  0  0  0  0  0  0  0
   17.5044  -27.8871  -17.7513 H   0  0  0  0  0  0  0  0  0  0  0  0
   16.8434  -27.2112  -19.2787 H   0  0  0  0  0  0  0  0  0  0  0  0
   18.4375  -28.0391  -19.2787 H   0  0  0  0  0  0  0  0  0  0  0  0
   17.5361  -24.6877  -16.5651 H   0  0  0  0  0  0  0  0  0  0  0  0
   16.2269  -22.5839  -16.7895 H   0  0  0  0  0  0  0  0  0  0  0  0
   17.2013  -20.1799  -19.1631 H   0  0  0  0  0  0  0  0  0  0  0  0
   15.8990  -18.0133  -19.4196 H   0  0  0  0  0  0  0  0  0  0  0  0
   13.4643  -18.0117  -19.5097 H   0  0  0  0  0  0  0  0  0  0  0  0
   10.7840  -23.1720  -18.3910 H   0  0  0  0  0  0  0  0  0  0  0  0
   10.3051  -24.2308  -21.0604 H   0  0  0  0  0  0  0  0  0  0  0  0
    8.3005  -24.3260  -22.5151 H   0  0  0  0  0  0  0  0  0  0  0  0
    7.1489  -22.9595  -24.2460 H   0  0  0  0  0  0  0  0  0  0  0  0
    6.2843  -24.3873  -23.5639 H   0  0  0  0  0  0  0  0  0  0  0  0
    5.0191  -21.8857  -24.8094 H   0  0  0  0  0  0  0  0  0  0  0  0
    5.0370  -23.5698  -25.4832 H   0  0  0  0  0  0  0  0  0  0  0  0
    2.9520  -22.8440  -24.3790 H   0  0  0  0  0  0  0  0  0  0  0  0
    3.3251  -25.0648  -22.7237 H   0  0  0  0  0  0  0  0  0  0  0  0
    2.4342  -24.9361  -24.2782 H   0  0  0  0  0  0  0  0  0  0  0  0
    4.1913  -25.3093  -24.2782 H   0  0  0  0  0  0  0  0  0  0  0  0
    3.6275  -21.5113  -22.6124 H   0  0  0  0  0  0  0  0  0  0  0  0
    2.8055  -22.9730  -21.9149 H   0  0  0  0  0  0  0  0  0  0  0  0
    4.9349  -22.3191  -20.7153 H   0  0  0  0  0  0  0  0  0  0  0  0
    4.9295  -23.9973  -21.3782 H   0  0  0  0  0  0  0  0  0  0  0  0
    6.7049  -20.8661  -20.5134 H   0  0  0  0  0  0  0  0  0  0  0  0
    8.7098  -20.7694  -19.0645 H   0  0  0  0  0  0  0  0  0  0  0  0
   16.3679  -22.9737  -21.0923 H   0  0  0  0  0  0  0  0  0  0  0  0
   17.6807  -25.0791  -20.8599 H   0  0  0  0  0  0  0  0  0  0  0  0
  1  2  1  0
  2  3  1  0
  3  4  2  0
  4  5  1  0
  5  6  2  0
  6  7  1  0
  7  8  2  0
  8  9  1  0
  9 10  2  0
 10 11  1  0
 11 12  2  0
 12 13  1  0
 13 14  1  0
 14 15  1  0
 15 16  2  0
 16 17  1  0
 17 18  2  0
 18 19  1  0
 19 20  1  0
 20 21  1  0
 21 22  1  0
 22 23  1  0
 22 24  1  0
 24 25  1  0
 18 26  1  0
 26 27  2  0
 13 28  2  0
 28 29  1  0
  6 30  1  0
 30 31  2  0
 31  3  1  0
 29  7  1  0
 29 11  1  0
 27 15  1  0
 25 19  1  0
  1 32  1  0
  1 33  1  0
  1 34  1  0
  4 35  1  0
  5 36  1  0
  8 37  1  0
  9 38  1  0
 10 39  1  0
 14 40  1  0
 16 41  1  0
 17 42  1  0
 20 43  1  0
 20 44  1  0
 21 45  1  0
 21 46  1  0
 22 47  1  0
 23 48  1  0
 23 49  1  0
 23 50  1  0
 24 51  1  0
 24 52  1  0
 25 53  1  0
 25 54  1  0
 26 55  1  0
 27 56  1  0
 30 57  1  0
 31 58  1  0
M  CHG  1  22   1
M  END
>  <meeko>  (8) 
{"is_sidechain": [false], "free_energy": -8.031, "intermolecular_energy": -9.616, "internal_energy": -0.835}

$$$$
4jia_ligand
     RDKit          3D

 58 62  0  0  0  0  0  0  0  0999 V2000
    8.4940  -20.2190  -26.5990 C   0  0  0  0  0  0  0  0  0  0  0  0
    7.9900  -19.5430  -25.4530 O   0  0  0  0  0  0  0  0  0  0  0  0
    7.4330  -20.3170  -24.4740 C   0  0  0  0  0  0  0  0  0  0  0  0
    7.6870  -19.8820  -23.1720 C   0  0  0  0  0  0  0  0  0  0  0  0
    7.1770  -20.5790  -22.0730 C   0  0  0  0  0  0  0  0  0  0  0  0
    6.4000  -21.7290  -22.2620 C   0  0  0  0  0  0  0  0  0  0  0  0
    5.8490  -22.4650  -21.1080 C   0  0  0  0  0  0  0  0  0  0  0  0
    4.7110  -22.0300  -20.5210 C   0  0  0  0  0  0  0  0  0  0  0  0
    4.1580  -22.7550  -19.3900 C   0  0  0  0  0  0  0  0  0  0  0  0
    4.7510  -23.8630  -18.9080 C   0  0  0  0  0  0  0  0  0  0  0  0
    5.9440  -24.3390  -19.5140 C   0  0  0  0  0  0  0  0  0  0  0  0
    6.7070  -25.3720  -19.2440 N   0  0  0  0  0  0  0  0  0  0  0  0
    7.6980  -25.2900  -20.1770 C   0  0  0  0  0  0  0  0  0  0  0  0
    8.7130  -26.1710  -20.2430 N   0  0  0  0  0  0  0  0  0  0  0  0
   10.1070  -26.0270  -20.3410 C   0  0  0  0  0  0  0  0  0  0  0  0
   10.9210  -27.1320  -20.0630 C   0  0  0  0  0  0  0  0  0  0  0  0
   12.3190  -27.0610  -20.1580 C   0  0  0  0  0  0  0  0  0  0  0  0
   12.9640  -25.8820  -20.5480 C   0  0  0  0  0  0  0  0  0  0  0  0
   14.3600  -25.7560  -20.6630 N   0  0  0  0  0  0  0  0  0  0  0  0
   14.9810  -24.5350  -20.1150 C   0  0  0  0  0  0  0  0  0  0  0  0
   16.4440  -24.4160  -20.5910 C   0  0  0  0  0  0  0  0  0  0  0  0
   17.2510  -25.6730  -20.2660 N   0  0  0  0  0  0  0  0  0  0  0  0
   17.6220  -25.7910  -18.8190 C   0  0  0  0  0  0  0  0  0  0  0  0
   16.5540  -26.9140  -20.8200 C   0  0  0  0  0  0  0  0  0  0  0  0
   15.0850  -27.0100  -20.3580 C   0  0  0  0  0  0  0  0  0  0  0  0
   12.1450  -24.7750  -20.8110 C   0  0  0  0  0  0  0  0  0  0  0  0
   10.7470  -24.8460  -20.7140 C   0  0  0  0  0  0  0  0  0  0  0  0
    7.5930  -24.2610  -21.0170 N   0  0  0  0  0  0  0  0  0  0  0  0
    6.4630  -23.6300  -20.6020 N   0  0  0  0  0  0  0  0  0  0  0  0
    6.1510  -22.1640  -23.5700 C   0  0  0  0  0  0  0  0  0  0  0  0
    6.6630  -21.4630  -24.6690 C   0  0  0  0  0  0  0  0  0  0  0  0
    9.1232  -21.0629  -26.2797 H   0  0  0  0  0  0  0  0  0  0  0  0
    7.6542  -20.5952  -27.2017 H   0  0  0  0  0  0  0  0  0  0  0  0
    9.0943  -19.5215  -27.2017 H   0  0  0  0  0  0  0  0  0  0  0  0
    8.2956  -18.9803  -23.0091 H   0  0  0  0  0  0  0  0  0  0  0  0
    7.3870  -20.2224  -21.0538 H   0  0  0  0  0  0  0  0  0  0  0  0
    4.2052  -21.1293  -20.8990 H   0  0  0  0  0  0  0  0  0  0  0  0
    3.2342  -22.3904  -18.9171 H   0  0  0  0  0  0  0  0  0  0  0  0
    4.3146  -24.3962  -18.0506 H   0  0  0  0  0  0  0  0  0  0  0  0
    8.4030  -27.1330  -20.2050 H   0  0  0  0  0  0  0  0  0  0  0  0
   10.4521  -28.0805  -19.7623 H   0  0  0  0  0  0  0  0  0  0  0  0
   12.9207  -27.9508  -19.9209 H   0  0  0  0  0  0  0  0  0  0  0  0
   14.4157  -23.6557  -20.4575 H   0  0  0  0  0  0  0  0  0  0  0  0
   14.9663  -24.5892  -19.0164 H   0  0  0  0  0  0  0  0  0  0  0  0
   16.4525  -24.2591  -21.6797 H   0  0  0  0  0  0  0  0  0  0  0  0
   16.9065  -23.5675  -20.0655 H   0  0  0  0  0  0  0  0  0  0  0  0
   18.1330  -25.5860  -20.7870 H   0  0  0  0  0  0  0  0  0  0  0  0
   16.7584  -25.5163  -18.1955 H   0  0  0  0  0  0  0  0  0  0  0  0
   17.9177  -26.8275  -18.5996 H   0  0  0  0  0  0  0  0  0  0  0  0
   18.4622  -25.1158  -18.5996 H   0  0  0  0  0  0  0  0  0  0  0  0
   16.5782  -26.8734  -21.9190 H   0  0  0  0  0  0  0  0  0  0  0  0
   17.0865  -27.7989  -20.4413 H   0  0  0  0  0  0  0  0  0  0  0  0
   14.5960  -27.8462  -20.8792 H   0  0  0  0  0  0  0  0  0  0  0  0
   15.0653  -27.1756  -19.2707 H   0  0  0  0  0  0  0  0  0  0  0  0
   12.6121  -23.8226  -21.1020 H   0  0  0  0  0  0  0  0  0  0  0  0
   10.1446  -23.9529  -20.9365 H   0  0  0  0  0  0  0  0  0  0  0  0
    5.5458  -23.0674  -23.7360 H   0  0  0  0  0  0  0  0  0  0  0  0
    6.4570  -21.8177  -25.6896 H   0  0  0  0  0  0  0  0  0  0  0  0
  1  2  1  0
  2  3  1  0
  3  4  2  0
  4  5  1  0
  5  6  2  0
  6  7  1  0
  7  8  2  0
  8  9  1  0
  9 10  2  0
 10 11  1  0
 11 12  2  0
 12 13  1  0
 13 14  1  0
 14 15  1  0
 15 16  2  0
 16 17  1  0
 17 18  2  0
 18 19  1  0
 19 20  1  0
 20 21  1  0
 21 22  1  0
 22 23  1  0
 22 24  1  0
 24 25  1  0
 18 26  1  0
 26 27  2  0
 13 28  2  0
 28 29  1  0
  6 30  1  0
 30 31  2  0
 31  3  1  0
 29  7  1  0
 29 11  1  0
 27 15  1  0
 25 19  1  0
  1 32  1  0
  1 33  1  0
  1 34  1  0
  4 35  1  0
  5 36  1  0
  8 37  1  0
  9 38  1  0
 10 39  1  0
 14 40  1  0
 16 41  1  0
 17 42  1  0
 20 43  1  0
 20 44  1  0
 21 45  1  0
 21 46  1  0
 22 47  1  0
 23 48  1  0
 23 49  1  0
 23 50  1  0
 24 51  1  0
 24 52  1  0
 25 53  1  0
 25 54  1  0
 26 55  1  0
 27 56  1  0
 30 57  1  0
 31 58  1  0
M  CHG  1  22   1
M  END
>  <meeko>  (9) 
{"is_sidechain": [false], "free_energy": -7.909, "intermolecular_energy": -9.597, "internal_energy": -0.696}

$$$$
