1z6e_ligand
     RDKit          3D

 60 64  0  0  0  0  0  0  0  0999 V2000
   31.0100   25.1440   39.9530 C   0  0  0  0  0  0  0  0  0  0  0  0
   30.6210   26.5900   39.8830 N   0  0  0  0  0  0  0  0  0  0  0  0
   31.6820   27.5010   40.4010 C   0  0  0  0  0  0  0  0  0  0  0  0
   30.0720   26.9940   38.5230 C   0  0  0  0  0  0  0  0  0  0  0  0
   29.0280   28.0460   38.7020 C   0  0  0  0  0  0  0  0  0  0  0  0
   29.2980   29.3230   38.4840 N   0  0  0  0  0  0  0  0  0  0  0  0
   28.2070   30.0120   38.9240 C   0  0  0  0  0  0  0  0  0  0  0  0
   27.2630   29.1470   39.4190 C   0  0  0  0  0  0  0  0  0  0  0  0
   27.7510   27.8700   39.2250 N   0  0  0  0  0  0  0  0  0  0  0  0
   27.0520   26.6700   39.5380 C   0  0  0  0  0  0  0  0  0  0  0  0
   26.6640   25.7630   38.5410 C   0  0  0  0  0  0  0  0  0  0  0  0
   25.9650   24.5880   38.8730 C   0  0  0  0  0  0  0  0  0  0  0  0
   25.6510   24.3020   40.2000 C   0  0  0  0  0  0  0  0  0  0  0  0
   25.0010   23.1290   40.6420 N   0  0  0  0  0  0  0  0  0  0  0  0
   24.8630   21.9240   39.9770 C   0  0  0  0  0  0  0  0  0  0  0  0
   25.1370   21.7640   38.7930 O   0  0  0  0  0  0  0  0  0  0  0  0
   24.3630   20.8550   40.8170 C   0  0  0  0  0  0  0  0  0  0  0  0
   24.0850   20.9110   42.1780 C   0  0  0  0  0  0  0  0  0  0  0  0
   23.8570   19.5840   42.5990 C   0  0  0  0  0  0  0  0  0  0  0  0
   23.5700   19.1130   44.0060 C   0  0  0  0  0  0  0  0  0  0  0  0
   22.3530   18.5230   44.1110 F   0  0  0  0  0  0  0  0  0  0  0  0
   23.6130   20.1300   44.9040 F   0  0  0  0  0  0  0  0  0  0  0  0
   24.4880   18.1940   44.4110 F   0  0  0  0  0  0  0  0  0  0  0  0
   23.9690   18.7460   41.5580 N   0  0  0  0  0  0  0  0  0  0  0  0
   24.1790   19.5220   40.4620 N   0  0  0  0  0  0  0  0  0  0  0  0
   24.1080   18.8800   39.1820 C   0  0  0  0  0  0  0  0  0  0  0  0
   25.1810   18.0490   38.7920 C   0  0  0  0  0  0  0  0  0  0  0  0
   25.1890   17.3500   37.5790 C   0  0  0  0  0  0  0  0  0  0  0  0
   24.0710   17.4960   36.7650 C   0  0  0  0  0  0  0  0  0  0  0  0
   23.9080   16.8720   35.5470 O   0  0  0  0  0  0  0  0  0  0  0  0
   22.6220   17.2990   35.0980 N   0  0  0  0  0  0  0  0  0  0  0  0
   22.0690   18.1430   36.0240 C   0  0  0  0  0  0  0  0  0  0  0  0
   20.8210   18.7310   35.8840 N   0  0  0  0  0  0  0  0  0  0  0  0
   22.9690   18.3010   37.1170 C   0  0  0  0  0  0  0  0  0  0  0  0
   22.9840   18.9990   38.3460 C   0  0  0  0  0  0  0  0  0  0  0  0
   26.0370   25.2190   41.1830 C   0  0  0  0  0  0  0  0  0  0  0  0
   25.7570   24.9580   42.4700 F   0  0  0  0  0  0  0  0  0  0  0  0
   26.7140   26.3960   40.8690 C   0  0  0  0  0  0  0  0  0  0  0  0
   31.0926   24.8371   41.0061 H   0  0  0  0  0  0  0  0  0  0  0  0
   30.2441   24.5336   39.4521 H   0  0  0  0  0  0  0  0  0  0  0  0
   31.9787   25.0002   39.4521 H   0  0  0  0  0  0  0  0  0  0  0  0
   29.7940   26.6790   40.5020 H   0  0  0  0  0  0  0  0  0  0  0  0
   31.6696   27.4903   41.5009 H   0  0  0  0  0  0  0  0  0  0  0  0
   32.6646   27.1609   40.0421 H   0  0  0  0  0  0  0  0  0  0  0  0
   31.4944   28.5237   40.0421 H   0  0  0  0  0  0  0  0  0  0  0  0
   30.8882   27.3892   37.9005 H   0  0  0  0  0  0  0  0  0  0  0  0
   29.6283   26.1162   38.0305 H   0  0  0  0  0  0  0  0  0  0  0  0
   28.0985   31.1060   38.8875 H   0  0  0  0  0  0  0  0  0  0  0  0
   26.3026   29.4189   39.8813 H   0  0  0  0  0  0  0  0  0  0  0  0
   26.9086   25.9724   37.4892 H   0  0  0  0  0  0  0  0  0  0  0  0
   25.6639   23.8894   38.0784 H   0  0  0  0  0  0  0  0  0  0  0  0
   24.5760   23.2080   41.5620 H   0  0  0  0  0  0  0  0  0  0  0  0
   24.0497   21.8143   42.8047 H   0  0  0  0  0  0  0  0  0  0  0  0
   26.0435   17.9470   39.4670 H   0  0  0  0  0  0  0  0  0  0  0  0
   26.0383   16.7162   37.2842 H   0  0  0  0  0  0  0  0  0  0  0  0
   22.2600   16.9680   34.2120 H   0  0  0  0  0  0  0  0  0  0  0  0
   20.6720   19.7340   35.8260 H   0  0  0  0  0  0  0  0  0  0  0  0
   19.9920   18.1430   35.8310 H   0  0  0  0  0  0  0  0  0  0  0  0
   22.1300   19.6252   38.6435 H   0  0  0  0  0  0  0  0  0  0  0  0
   26.9819   27.1074   41.6641 H   0  0  0  0  0  0  0  0  0  0  0  0
  1  2  1  0
  2  3  1  0
  2  4  1  0
  4  5  1  0
  5  6  2  0
  6  7  1  0
  7  8  2  0
  8  9  1  0
  9 10  1  0
 10 11  2  0
 11 12  1  0
 12 13  2  0
 13 14  1  0
 14 15  1  0
 15 16  2  0
 15 17  1  0
 17 18  2  0
 18 19  1  0
 19 20  1  0
 20 21  1  0
 20 22  1  0
 20 23  1  0
 19 24  2  0
 24 25  1  0
 25 26  1  0
 26 27  2  0
 27 28  1  0
 28 29  2  0
 29 30  1  0
 30 31  1  0
 31 32  2  0
 32 33  1  0
 32 34  1  0
 34 35  2  0
 13 36  1  0
 36 37  1  0
 36 38  2  0
  9  5  1  0
 38 10  1  0
 25 17  1  0
 35 26  1  0
 34 29  1  0
  1 39  1  0
  1 40  1  0
  1 41  1  0
  2 42  1  0
  3 43  1  0
  3 44  1  0
  3 45  1  0
  4 46  1  0
  4 47  1  0
  7 48  1  0
  8 49  1  0
 11 50  1  0
 12 51  1  0
 14 52  1  0
 18 53  1  0
 27 54  1  0
 28 55  1  0
 31 56  1  0
 33 57  1  0
 33 58  1  0
 35 59  1  0
 38 60  1  0
M  CHG  2   2   1  31   1
M  END
>  <meeko>  (1) 
{"is_sidechain": [false], "free_energy": -7.354, "intermolecular_energy": -10.578, "internal_energy": -0.86}

$$$$
1z6e_ligand
     RDKit          3D

 60 64  0  0  0  0  0  0  0  0999 V2000
   31.4150   24.8880   39.9600 C   0  0  0  0  0  0  0  0  0  0  0  0
   30.7240   26.2190   39.9460 N   0  0  0  0  0  0  0  0  0  0  0  0
   31.5830   27.3120   39.4060 C   0  0  0  0  0  0  0  0  0  0  0  0
   29.3360   26.1630   39.3260 C   0  0  0  0  0  0  0  0  0  0  0  0
   28.3450   26.7480   40.2770 C   0  0  0  0  0  0  0  0  0  0  0  0
   28.6610   27.7770   41.0490 N   0  0  0  0  0  0  0  0  0  0  0  0
   27.6160   27.9250   41.9130 C   0  0  0  0  0  0  0  0  0  0  0  0
   26.6560   26.9750   41.6680 C   0  0  0  0  0  0  0  0  0  0  0  0
   27.0810   26.2480   40.5750 N   0  0  0  0  0  0  0  0  0  0  0  0
   26.3440   25.2040   39.9470 C   0  0  0  0  0  0  0  0  0  0  0  0
   26.0570   25.2280   38.5750 C   0  0  0  0  0  0  0  0  0  0  0  0
   25.3180   24.1900   37.9790 C   0  0  0  0  0  0  0  0  0  0  0  0
   24.8620   23.1170   38.7420 C   0  0  0  0  0  0  0  0  0  0  0  0
   24.1590   22.0030   38.2320 N   0  0  0  0  0  0  0  0  0  0  0  0
   24.5770   21.0880   37.2830 C   0  0  0  0  0  0  0  0  0  0  0  0
   25.5810   21.2320   36.5940 O   0  0  0  0  0  0  0  0  0  0  0  0
   23.7140   19.9300   37.1780 C   0  0  0  0  0  0  0  0  0  0  0  0
   22.3270   19.9170   37.0900 C   0  0  0  0  0  0  0  0  0  0  0  0
   21.9240   18.5750   37.2490 C   0  0  0  0  0  0  0  0  0  0  0  0
   20.5070   18.0490   37.2850 C   0  0  0  0  0  0  0  0  0  0  0  0
   20.2820   17.1130   36.3290 F   0  0  0  0  0  0  0  0  0  0  0  0
   19.5910   19.0360   37.1180 F   0  0  0  0  0  0  0  0  0  0  0  0
   20.2350   17.4600   38.4810 F   0  0  0  0  0  0  0  0  0  0  0  0
   22.9980   17.7880   37.4110 N   0  0  0  0  0  0  0  0  0  0  0  0
   24.0850   18.5920   37.2720 N   0  0  0  0  0  0  0  0  0  0  0  0
   25.3650   17.9510   37.1770 C   0  0  0  0  0  0  0  0  0  0  0  0
   25.6940   17.2970   35.9700 C   0  0  0  0  0  0  0  0  0  0  0  0
   26.9320   16.6740   35.7660 C   0  0  0  0  0  0  0  0  0  0  0  0
   27.8460   16.7410   36.8110 C   0  0  0  0  0  0  0  0  0  0  0  0
   29.1110   16.1940   36.7750 O   0  0  0  0  0  0  0  0  0  0  0  0
   29.6780   16.5260   38.0430 N   0  0  0  0  0  0  0  0  0  0  0  0
   28.7670   17.2330   38.7820 C   0  0  0  0  0  0  0  0  0  0  0  0
   29.0130   17.7040   40.0630 N   0  0  0  0  0  0  0  0  0  0  0  0
   27.5690   17.3950   38.0290 C   0  0  0  0  0  0  0  0  0  0  0  0
   26.3130   18.0140   38.2130 C   0  0  0  0  0  0  0  0  0  0  0  0
   25.1480   23.1100   40.1110 C   0  0  0  0  0  0  0  0  0  0  0  0
   24.7300   22.0800   40.8640 F   0  0  0  0  0  0  0  0  0  0  0  0
   25.8640   24.1400   40.7200 C   0  0  0  0  0  0  0  0  0  0  0  0
   31.5795   24.5712   41.0005 H   0  0  0  0  0  0  0  0  0  0  0  0
   30.7890   24.1445   39.4449 H   0  0  0  0  0  0  0  0  0  0  0  0
   32.3833   24.9721   39.4449 H   0  0  0  0  0  0  0  0  0  0  0  0
   30.5250   26.4320   40.9420 H   0  0  0  0  0  0  0  0  0  0  0  0
   32.0262   27.8760   40.2400 H   0  0  0  0  0  0  0  0  0  0  0  0
   32.3843   26.8781   38.7899 H   0  0  0  0  0  0  0  0  0  0  0  0
   30.9720   27.9881   38.7899 H   0  0  0  0  0  0  0  0  0  0  0  0
   29.3292   26.7385   38.3886 H   0  0  0  0  0  0  0  0  0  0  0  0
   29.0696   25.1169   39.1146 H   0  0  0  0  0  0  0  0  0  0  0  0
   27.5517   28.6960   42.6949 H   0  0  0  0  0  0  0  0  0  0  0  0
   25.7257   26.8224   42.2347 H   0  0  0  0  0  0  0  0  0  0  0  0
   26.4131   26.0666   37.9586 H   0  0  0  0  0  0  0  0  0  0  0  0
   25.0983   24.2257   36.9018 H   0  0  0  0  0  0  0  0  0  0  0  0
   23.2250   21.8860   38.6160 H   0  0  0  0  0  0  0  0  0  0  0  0
   21.6710   20.7850   36.9278 H   0  0  0  0  0  0  0  0  0  0  0  0
   24.9506   17.2758   35.1595 H   0  0  0  0  0  0  0  0  0  0  0  0
   27.1692   16.1569   34.8245 H   0  0  0  0  0  0  0  0  0  0  0  0
   30.6230   16.2370   38.2650 H   0  0  0  0  0  0  0  0  0  0  0  0
   29.9340   17.7220   40.4910 H   0  0  0  0  0  0  0  0  0  0  0  0
   28.2410   18.0610   40.6240 H   0  0  0  0  0  0  0  0  0  0  0  0
   26.0802   18.5372   39.1522 H   0  0  0  0  0  0  0  0  0  0  0  0
   26.0510   24.1166   41.8037 H   0  0  0  0  0  0  0  0  0  0  0  0
  1  2  1  0
  2  3  1  0
  2  4  1  0
  4  5  1  0
  5  6  2  0
  6  7  1  0
  7  8  2  0
  8  9  1  0
  9 10  1  0
 10 11  2  0
 11 12  1  0
 12 13  2  0
 13 14  1  0
 14 15  1  0
 15 16  2  0
 15 17  1  0
 17 18  2  0
 18 19  1  0
 19 20  1  0
 20 21  1  0
 20 22  1  0
 20 23  1  0
 19 24  2  0
 24 25  1  0
 25 26  1  0
 26 27  2  0
 27 28  1  0
 28 29  2  0
 29 30  1  0
 30 31  1  0
 31 32  2  0
 32 33  1  0
 32 34  1  0
 34 35  2  0
 13 36  1  0
 36 37  1  0
 36 38  2  0
  9  5  1  0
 38 10  1  0
 25 17  1  0
 35 26  1  0
 34 29  1  0
  1 39  1  0
  1 40  1  0
  1 41  1  0
  2 42  1  0
  3 43  1  0
  3 44  1  0
  3 45  1  0
  4 46  1  0
  4 47  1  0
  7 48  1  0
  8 49  1  0
 11 50  1  0
 12 51  1  0
 14 52  1  0
 18 53  1  0
 27 54  1  0
 28 55  1  0
 31 56  1  0
 33 57  1  0
 33 58  1  0
 35 59  1  0
 38 60  1  0
M  CHG  2   2   1  31   1
M  END
>  <meeko>  (2) 
{"is_sidechain": [false], "free_energy": -7.159, "intermolecular_energy": -9.985, "internal_energy": -1.172}

$$$$
1z6e_ligand
     RDKit          3D

 60 64  0  0  0  0  0  0  0  0999 V2000
   26.1120   26.1420   42.1480 C   0  0  0  0  0  0  0  0  0  0  0  0
   26.4910   27.4840   41.5980 N   0  0  0  0  0  0  0  0  0  0  0  0
   27.7410   28.0270   42.2050 C   0  0  0  0  0  0  0  0  0  0  0  0
   26.4740   27.5320   40.0770 C   0  0  0  0  0  0  0  0  0  0  0  0
   27.6030   26.7140   39.5440 C   0  0  0  0  0  0  0  0  0  0  0  0
   28.8560   27.1320   39.6350 N   0  0  0  0  0  0  0  0  0  0  0  0
   29.5920   26.2600   38.8890 C   0  0  0  0  0  0  0  0  0  0  0  0
   28.7800   25.3020   38.3350 C   0  0  0  0  0  0  0  0  0  0  0  0
   27.5030   25.5430   38.7980 N   0  0  0  0  0  0  0  0  0  0  0  0
   26.3630   24.7370   38.5180 C   0  0  0  0  0  0  0  0  0  0  0  0
   25.7400   23.9700   39.5130 C   0  0  0  0  0  0  0  0  0  0  0  0
   24.6220   23.1730   39.2090 C   0  0  0  0  0  0  0  0  0  0  0  0
   24.1090   23.1370   37.9140 C   0  0  0  0  0  0  0  0  0  0  0  0
   22.9630   22.4130   37.5180 N   0  0  0  0  0  0  0  0  0  0  0  0
   21.7180   22.3840   38.1200 C   0  0  0  0  0  0  0  0  0  0  0  0
   21.4860   22.8560   39.2280 O   0  0  0  0  0  0  0  0  0  0  0  0
   20.7010   21.7400   37.3140 C   0  0  0  0  0  0  0  0  0  0  0  0
   20.4780   20.3760   37.1700 C   0  0  0  0  0  0  0  0  0  0  0  0
   19.5550   20.2270   36.1140 C   0  0  0  0  0  0  0  0  0  0  0  0
   19.0350   18.9310   35.5360 C   0  0  0  0  0  0  0  0  0  0  0  0
   19.1010   17.9090   36.4260 F   0  0  0  0  0  0  0  0  0  0  0  0
   19.7210   18.5540   34.4270 F   0  0  0  0  0  0  0  0  0  0  0  0
   17.7310   19.0470   35.1690 F   0  0  0  0  0  0  0  0  0  0  0  0
   19.2050   21.4300   35.6350 N   0  0  0  0  0  0  0  0  0  0  0  0
   19.8230   22.3500   36.4230 N   0  0  0  0  0  0  0  0  0  0  0  0
   19.4310   23.7200   36.2600 C   0  0  0  0  0  0  0  0  0  0  0  0
   19.8530   24.4000   35.0980 C   0  0  0  0  0  0  0  0  0  0  0  0
   19.4920   25.7260   34.8300 C   0  0  0  0  0  0  0  0  0  0  0  0
   18.6740   26.3530   35.7630 C   0  0  0  0  0  0  0  0  0  0  0  0
   18.2160   27.6490   35.6510 O   0  0  0  0  0  0  0  0  0  0  0  0
   17.4110   27.8420   36.8140 N   0  0  0  0  0  0  0  0  0  0  0  0
   17.4120   26.6990   37.5690 C   0  0  0  0  0  0  0  0  0  0  0  0
   16.7220   26.5640   38.7640 N   0  0  0  0  0  0  0  0  0  0  0  0
   18.2160   25.7110   36.9310 C   0  0  0  0  0  0  0  0  0  0  0  0
   18.5940   24.3740   37.1820 C   0  0  0  0  0  0  0  0  0  0  0  0
   24.7450   23.9010   36.9300 C   0  0  0  0  0  0  0  0  0  0  0  0
   24.2600   23.8910   35.6770 F   0  0  0  0  0  0  0  0  0  0  0  0
   25.8650   24.6810   37.2100 C   0  0  0  0  0  0  0  0  0  0  0  0
   26.1227   26.1799   43.2473 H   0  0  0  0  0  0  0  0  0  0  0  0
   25.1032   25.8747   41.8001 H   0  0  0  0  0  0  0  0  0  0  0  0
   26.8319   25.3865   41.8001 H   0  0  0  0  0  0  0  0  0  0  0  0
   25.7100   28.1150   41.8580 H   0  0  0  0  0  0  0  0  0  0  0  0
   27.6612   27.9923   43.3016 H   0  0  0  0  0  0  0  0  0  0  0  0
   28.5996   27.4207   41.8805 H   0  0  0  0  0  0  0  0  0  0  0  0
   27.8839   29.0683   41.8805 H   0  0  0  0  0  0  0  0  0  0  0  0
   25.5204   27.1269   39.7074 H   0  0  0  0  0  0  0  0  0  0  0  0
   26.5831   28.5735   39.7404 H   0  0  0  0  0  0  0  0  0  0  0  0
   30.6818   26.3162   38.7507 H   0  0  0  0  0  0  0  0  0  0  0  0
   29.0884   24.4963   37.6525 H   0  0  0  0  0  0  0  0  0  0  0  0
   26.1297   23.9920   40.5414 H   0  0  0  0  0  0  0  0  0  0  0  0
   24.1485   22.5730   40.0001 H   0  0  0  0  0  0  0  0  0  0  0  0
   23.0960   21.8370   36.6910 H   0  0  0  0  0  0  0  0  0  0  0  0
   20.9328   19.5695   37.7639 H   0  0  0  0  0  0  0  0  0  0  0  0
   20.4896   23.8684   34.3754 H   0  0  0  0  0  0  0  0  0  0  0  0
   19.8388   26.2464   33.9251 H   0  0  0  0  0  0  0  0  0  0  0  0
   16.9460   28.7300   36.9650 H   0  0  0  0  0  0  0  0  0  0  0  0
   16.0150   27.2190   39.0850 H   0  0  0  0  0  0  0  0  0  0  0  0
   16.9170   25.7690   39.3690 H   0  0  0  0  0  0  0  0  0  0  0  0
   18.2399   23.8526   38.0835 H   0  0  0  0  0  0  0  0  0  0  0  0
   26.3561   25.2505   36.4072 H   0  0  0  0  0  0  0  0  0  0  0  0
  1  2  1  0
  2  3  1  0
  2  4  1  0
  4  5  1  0
  5  6  2  0
  6  7  1  0
  7  8  2  0
  8  9  1  0
  9 10  1  0
 10 11  2  0
 11 12  1  0
 12 13  2  0
 13 14  1  0
 14 15  1  0
 15 16  2  0
 15 17  1  0
 17 18  2  0
 18 19  1  0
 19 20  1  0
 20 21  1  0
 20 22  1  0
 20 23  1  0
 19 24  2  0
 24 25  1  0
 25 26  1  0
 26 27  2  0
 27 28  1  0
 28 29  2  0
 29 30  1  0
 30 31  1  0
 31 32  2  0
 32 33  1  0
 32 34  1  0
 34 35  2  0
 13 36  1  0
 36 37  1  0
 36 38  2  0
  9  5  1  0
 38 10  1  0
 25 17  1  0
 35 26  1  0
 34 29  1  0
  1 39  1  0
  1 40  1  0
  1 41  1  0
  2 42  1  0
  3 43  1  0
  3 44  1  0
  3 45  1  0
  4 46  1  0
  4 47  1  0
  7 48  1  0
  8 49  1  0
 11 50  1  0
 12 51  1  0
 14 52  1  0
 18 53  1  0
 27 54  1  0
 28 55  1  0
 31 56  1  0
 33 57  1  0
 33 58  1  0
 35 59  1  0
 38 60  1  0
M  CHG  2   2   1  31   1
M  END
>  <meeko>  (3) 
{"is_sidechain": [false], "free_energy": -6.975, "intermolecular_energy": -10.042, "internal_energy": -0.85}

$$$$
1z6e_ligand
     RDKit          3D

 60 64  0  0  0  0  0  0  0  0999 V2000
   31.5040   24.2000   38.6830 C   0  0  0  0  0  0  0  0  0  0  0  0
   30.6910   25.3240   38.1140 N   0  0  0  0  0  0  0  0  0  0  0  0
   31.2000   25.7940   36.7920 C   0  0  0  0  0  0  0  0  0  0  0  0
   29.1950   25.0490   38.1350 C   0  0  0  0  0  0  0  0  0  0  0  0
   28.5400   25.9490   39.1310 C   0  0  0  0  0  0  0  0  0  0  0  0
   29.2180   26.9160   39.7300 N   0  0  0  0  0  0  0  0  0  0  0  0
   28.3900   27.4020   40.6980 C   0  0  0  0  0  0  0  0  0  0  0  0
   27.1970   26.7220   40.6920 C   0  0  0  0  0  0  0  0  0  0  0  0
   27.2540   25.8240   39.6450 N   0  0  0  0  0  0  0  0  0  0  0  0
   26.1920   24.9640   39.2440 C   0  0  0  0  0  0  0  0  0  0  0  0
   25.6040   24.0550   40.1350 C   0  0  0  0  0  0  0  0  0  0  0  0
   24.5640   23.2080   39.7120 C   0  0  0  0  0  0  0  0  0  0  0  0
   24.0950   23.2630   38.4010 C   0  0  0  0  0  0  0  0  0  0  0  0
   23.0230   22.4950   37.8930 N   0  0  0  0  0  0  0  0  0  0  0  0
   21.7270   22.4160   38.3680 C   0  0  0  0  0  0  0  0  0  0  0  0
   21.3670   22.8740   39.4460 O   0  0  0  0  0  0  0  0  0  0  0  0
   20.8220   21.7350   37.4640 C   0  0  0  0  0  0  0  0  0  0  0  0
   20.6780   20.3640   37.2890 C   0  0  0  0  0  0  0  0  0  0  0  0
   19.8670   20.1840   36.1490 C   0  0  0  0  0  0  0  0  0  0  0  0
   19.4650   18.8720   35.5160 C   0  0  0  0  0  0  0  0  0  0  0  0
   19.4740   17.8490   36.4060 F   0  0  0  0  0  0  0  0  0  0  0  0
   20.2830   18.5290   34.4880 F   0  0  0  0  0  0  0  0  0  0  0  0
   18.2050   18.9400   35.0080 F   0  0  0  0  0  0  0  0  0  0  0  0
   19.5080   21.3750   35.6480 N   0  0  0  0  0  0  0  0  0  0  0  0
   20.0050   22.3130   36.4980 N   0  0  0  0  0  0  0  0  0  0  0  0
   19.5660   23.6660   36.3080 C   0  0  0  0  0  0  0  0  0  0  0  0
   19.9840   24.3450   35.1430 C   0  0  0  0  0  0  0  0  0  0  0  0
   19.5800   25.6530   34.8500 C   0  0  0  0  0  0  0  0  0  0  0  0
   18.7230   26.2620   35.7590 C   0  0  0  0  0  0  0  0  0  0  0  0
   18.2200   27.5380   35.6200 O   0  0  0  0  0  0  0  0  0  0  0  0
   17.3860   27.7180   36.7650 N   0  0  0  0  0  0  0  0  0  0  0  0
   17.4150   26.5870   37.5370 C   0  0  0  0  0  0  0  0  0  0  0  0
   16.7080   26.4430   38.7210 N   0  0  0  0  0  0  0  0  0  0  0  0
   18.2660   25.6200   36.9280 C   0  0  0  0  0  0  0  0  0  0  0  0
   18.6890   24.3010   37.2040 C   0  0  0  0  0  0  0  0  0  0  0  0
   24.6950   24.1690   37.5210 C   0  0  0  0  0  0  0  0  0  0  0  0
   24.2520   24.2480   36.2570 F   0  0  0  0  0  0  0  0  0  0  0  0
   25.7400   25.0020   37.9190 C   0  0  0  0  0  0  0  0  0  0  0  0
   31.4722   24.2440   39.7817 H   0  0  0  0  0  0  0  0  0  0  0  0
   31.0904   23.2393   38.3424 H   0  0  0  0  0  0  0  0  0  0  0  0
   32.5459   24.2921   38.3424 H   0  0  0  0  0  0  0  0  0  0  0  0
   30.7940   26.1040   38.7900 H   0  0  0  0  0  0  0  0  0  0  0  0
   31.9999   26.5326   36.9486 H   0  0  0  0  0  0  0  0  0  0  0  0
   31.5969   24.9380   36.2265 H   0  0  0  0  0  0  0  0  0  0  0  0
   30.3783   26.2577   36.2265 H   0  0  0  0  0  0  0  0  0  0  0  0
   28.7730   25.2373   37.1368 H   0  0  0  0  0  0  0  0  0  0  0  0
   29.0177   24.0000   38.4147 H   0  0  0  0  0  0  0  0  0  0  0  0
   28.6419   28.2224   41.3861 H   0  0  0  0  0  0  0  0  0  0  0  0
   26.3572   26.8653   41.3878 H   0  0  0  0  0  0  0  0  0  0  0  0
   25.9595   24.0038   41.1747 H   0  0  0  0  0  0  0  0  0  0  0  0
   24.1172   22.4963   40.4218 H   0  0  0  0  0  0  0  0  0  0  0  0
   23.2620   21.9290   37.0840 H   0  0  0  0  0  0  0  0  0  0  0  0
   21.1122   19.5726   37.9176 H   0  0  0  0  0  0  0  0  0  0  0  0
   20.6521   23.8270   34.4392 H   0  0  0  0  0  0  0  0  0  0  0  0
   19.9242   26.1735   33.9442 H   0  0  0  0  0  0  0  0  0  0  0  0
   16.8870   28.5900   36.8940 H   0  0  0  0  0  0  0  0  0  0  0  0
   15.8950   27.0000   38.9640 H   0  0  0  0  0  0  0  0  0  0  0  0
   17.0010   25.7420   39.3980 H   0  0  0  0  0  0  0  0  0  0  0  0
   18.3375   23.7789   38.1061 H   0  0  0  0  0  0  0  0  0  0  0  0
   26.2074   25.6861   37.1954 H   0  0  0  0  0  0  0  0  0  0  0  0
  1  2  1  0
  2  3  1  0
  2  4  1  0
  4  5  1  0
  5  6  2  0
  6  7  1  0
  7  8  2  0
  8  9  1  0
  9 10  1  0
 10 11  2  0
 11 12  1  0
 12 13  2  0
 13 14  1  0
 14 15  1  0
 15 16  2  0
 15 17  1  0
 17 18  2  0
 18 19  1  0
 19 20  1  0
 20 21  1  0
 20 22  1  0
 20 23  1  0
 19 24  2  0
 24 25  1  0
 25 26  1  0
 26 27  2  0
 27 28  1  0
 28 29  2  0
 29 30  1  0
 30 31  1  0
 31 32  2  0
 32 33  1  0
 32 34  1  0
 34 35  2  0
 13 36  1  0
 36 37  1  0
 36 38  2  0
  9  5  1  0
 38 10  1  0
 25 17  1  0
 35 26  1  0
 34 29  1  0
  1 39  1  0
  1 40  1  0
  1 41  1  0
  2 42  1  0
  3 43  1  0
  3 44  1  0
  3 45  1  0
  4 46  1  0
  4 47  1  0
  7 48  1  0
  8 49  1  0
 11 50  1  0
 12 51  1  0
 14 52  1  0
 18 53  1  0
 27 54  1  0
 28 55  1  0
 31 56  1  0
 33 57  1  0
 33 58  1  0
 35 59  1  0
 38 60  1  0
M  CHG  2   2   1  31   1
M  END
>  <meeko>  (4) 
{"is_sidechain": [false], "free_energy": -6.938, "intermolecular_energy": -9.544, "internal_energy": -1.296}

$$$$
1z6e_ligand
     RDKit          3D

 60 64  0  0  0  0  0  0  0  0999 V2000
   30.5840   15.2190   40.8940 C   0  0  0  0  0  0  0  0  0  0  0  0
   30.0700   16.1750   39.8600 N   0  0  0  0  0  0  0  0  0  0  0  0
   29.9130   17.5640   40.3820 C   0  0  0  0  0  0  0  0  0  0  0  0
   30.8290   16.0940   38.5440 C   0  0  0  0  0  0  0  0  0  0  0  0
   30.1210   15.1600   37.6200 C   0  0  0  0  0  0  0  0  0  0  0  0
   30.6900   14.0350   37.2150 N   0  0  0  0  0  0  0  0  0  0  0  0
   29.8700   13.5330   36.2490 C   0  0  0  0  0  0  0  0  0  0  0  0
   28.7920   14.3620   36.0590 C   0  0  0  0  0  0  0  0  0  0  0  0
   28.9060   15.3830   36.9800 N   0  0  0  0  0  0  0  0  0  0  0  0
   27.9560   16.4260   37.1690 C   0  0  0  0  0  0  0  0  0  0  0  0
   28.0580   17.6480   36.4880 C   0  0  0  0  0  0  0  0  0  0  0  0
   27.1130   18.6680   36.6990 C   0  0  0  0  0  0  0  0  0  0  0  0
   26.0550   18.4800   37.5860 C   0  0  0  0  0  0  0  0  0  0  0  0
   25.0280   19.4190   37.8290 N   0  0  0  0  0  0  0  0  0  0  0  0
   25.0200   20.4630   38.7360 C   0  0  0  0  0  0  0  0  0  0  0  0
   25.8610   20.6080   39.6160 O   0  0  0  0  0  0  0  0  0  0  0  0
   23.9160   21.3820   38.5490 C   0  0  0  0  0  0  0  0  0  0  0  0
   22.6130   21.0700   38.1780 C   0  0  0  0  0  0  0  0  0  0  0  0
   21.9710   22.2940   37.8900 C   0  0  0  0  0  0  0  0  0  0  0  0
   20.5580   22.4830   37.3900 C   0  0  0  0  0  0  0  0  0  0  0  0
   20.5140   23.1790   36.2270 F   0  0  0  0  0  0  0  0  0  0  0  0
   19.7800   23.1380   38.2900 F   0  0  0  0  0  0  0  0  0  0  0  0
   19.9580   21.2850   37.1530 F   0  0  0  0  0  0  0  0  0  0  0  0
   22.8180   23.3140   38.0870 N   0  0  0  0  0  0  0  0  0  0  0  0
   23.9640   22.7720   38.5780 N   0  0  0  0  0  0  0  0  0  0  0  0
   24.9530   23.6790   39.0850 C   0  0  0  0  0  0  0  0  0  0  0  0
   25.9770   24.1040   38.2120 C   0  0  0  0  0  0  0  0  0  0  0  0
   26.9670   25.0160   38.6010 C   0  0  0  0  0  0  0  0  0  0  0  0
   26.8890   25.5070   39.8990 C   0  0  0  0  0  0  0  0  0  0  0  0
   27.7710   26.4180   40.4410 O   0  0  0  0  0  0  0  0  0  0  0  0
   27.2880   26.6350   41.7670 N   0  0  0  0  0  0  0  0  0  0  0  0
   26.1710   25.8710   41.9800 C   0  0  0  0  0  0  0  0  0  0  0  0
   25.4620   25.8570   43.1710 N   0  0  0  0  0  0  0  0  0  0  0  0
   25.8770   25.1250   40.8020 C   0  0  0  0  0  0  0  0  0  0  0  0
   24.8900   24.2020   40.3880 C   0  0  0  0  0  0  0  0  0  0  0  0
   25.9700   17.2610   38.2650 C   0  0  0  0  0  0  0  0  0  0  0  0
   24.9520   17.0530   39.1160 F   0  0  0  0  0  0  0  0  0  0  0  0
   26.9080   16.2470   38.0810 C   0  0  0  0  0  0  0  0  0  0  0  0
   30.3710   15.6152   41.8978 H   0  0  0  0  0  0  0  0  0  0  0  0
   30.0880   14.2448   40.7715 H   0  0  0  0  0  0  0  0  0  0  0  0
   31.6701   15.0955   40.7715 H   0  0  0  0  0  0  0  0  0  0  0  0
   29.1290   15.8210   39.6070 H   0  0  0  0  0  0  0  0  0  0  0  0
   29.9152   17.5448   41.4818 H   0  0  0  0  0  0  0  0  0  0  0  0
   30.7465   18.1865   40.0245 H   0  0  0  0  0  0  0  0  0  0  0  0
   28.9616   17.9847   40.0245 H   0  0  0  0  0  0  0  0  0  0  0  0
   30.8798   17.0935   38.0875 H   0  0  0  0  0  0  0  0  0  0  0  0
   31.8483   15.7245   38.7299 H   0  0  0  0  0  0  0  0  0  0  0  0
   30.0467   12.5966   35.6995 H   0  0  0  0  0  0  0  0  0  0  0  0
   27.9913   14.2363   35.3153 H   0  0  0  0  0  0  0  0  0  0  0  0
   28.8856   17.8102   35.7817 H   0  0  0  0  0  0  0  0  0  0  0  0
   27.2099   19.6217   36.1595 H   0  0  0  0  0  0  0  0  0  0  0  0
   24.1950   19.2830   37.2640 H   0  0  0  0  0  0  0  0  0  0  0  0
   22.1688   20.0653   38.1201 H   0  0  0  0  0  0  0  0  0  0  0  0
   25.9988   23.7042   37.1875 H   0  0  0  0  0  0  0  0  0  0  0  0
   27.7666   25.3281   37.9130 H   0  0  0  0  0  0  0  0  0  0  0  0
   27.7700   27.2820   42.3800 H   0  0  0  0  0  0  0  0  0  0  0  0
   25.2170   25.0090   43.6720 H   0  0  0  0  0  0  0  0  0  0  0  0
   25.1640   26.7360   43.5880 H   0  0  0  0  0  0  0  0  0  0  0  0
   24.0858   23.8980   41.0742 H   0  0  0  0  0  0  0  0  0  0  0  0
   26.8257   15.3092   38.6500 H   0  0  0  0  0  0  0  0  0  0  0  0
  1  2  1  0
  2  3  1  0
  2  4  1  0
  4  5  1  0
  5  6  2  0
  6  7  1  0
  7  8  2  0
  8  9  1  0
  9 10  1  0
 10 11  2  0
 11 12  1  0
 12 13  2  0
 13 14  1  0
 14 15  1  0
 15 16  2  0
 15 17  1  0
 17 18  2  0
 18 19  1  0
 19 20  1  0
 20 21  1  0
 20 22  1  0
 20 23  1  0
 19 24  2  0
 24 25  1  0
 25 26  1  0
 26 27  2  0
 27 28  1  0
 28 29  2  0
 29 30  1  0
 30 31  1  0
 31 32  2  0
 32 33  1  0
 32 34  1  0
 34 35  2  0
 13 36  1  0
 36 37  1  0
 36 38  2  0
  9  5  1  0
 38 10  1  0
 25 17  1  0
 35 26  1  0
 34 29  1  0
  1 39  1  0
  1 40  1  0
  1 41  1  0
  2 42  1  0
  3 43  1  0
  3 44  1  0
  3 45  1  0
  4 46  1  0
  4 47  1  0
  7 48  1  0
  8 49  1  0
 11 50  1  0
 12 51  1  0
 14 52  1  0
 18 53  1  0
 27 54  1  0
 28 55  1  0
 31 56  1  0
 33 57  1  0
 33 58  1  0
 35 59  1  0
 38 60  1  0
M  CHG  2   2   1  31   1
M  END
>  <meeko>  (5) 
{"is_sidechain": [false], "free_energy": -6.717, "intermolecular_energy": -9.036, "internal_energy": -1.485}

$$$$
1z6e_ligand
     RDKit          3D

 60 64  0  0  0  0  0  0  0  0999 V2000
   31.1400   14.8960   41.9360 C   0  0  0  0  0  0  0  0  0  0  0  0
   32.1200   14.0190   41.2150 N   0  0  0  0  0  0  0  0  0  0  0  0
   32.7510   13.0020   42.1060 C   0  0  0  0  0  0  0  0  0  0  0  0
   31.5660   13.4450   39.9200 C   0  0  0  0  0  0  0  0  0  0  0  0
   32.1670   14.1670   38.7600 C   0  0  0  0  0  0  0  0  0  0  0  0
   33.3600   13.8360   38.2910 N   0  0  0  0  0  0  0  0  0  0  0  0
   33.6810   14.8020   37.3840 C   0  0  0  0  0  0  0  0  0  0  0  0
   32.6760   15.7340   37.3020 C   0  0  0  0  0  0  0  0  0  0  0  0
   31.6640   15.3050   38.1370 N   0  0  0  0  0  0  0  0  0  0  0  0
   30.4050   15.9490   38.2960 C   0  0  0  0  0  0  0  0  0  0  0  0
   30.2250   17.0010   39.2070 C   0  0  0  0  0  0  0  0  0  0  0  0
   28.9680   17.6140   39.3540 C   0  0  0  0  0  0  0  0  0  0  0  0
   27.8800   17.1920   38.5930 C   0  0  0  0  0  0  0  0  0  0  0  0
   26.5940   17.7740   38.6290 N   0  0  0  0  0  0  0  0  0  0  0  0
   26.0900   18.7850   37.8310 C   0  0  0  0  0  0  0  0  0  0  0  0
   26.7770   19.4670   37.0790 O   0  0  0  0  0  0  0  0  0  0  0  0
   24.6590   18.9660   37.9640 C   0  0  0  0  0  0  0  0  0  0  0  0
   23.6580   18.0690   37.6100 C   0  0  0  0  0  0  0  0  0  0  0  0
   22.4370   18.7700   37.6970 C   0  0  0  0  0  0  0  0  0  0  0  0
   21.0610   18.2450   37.3570 C   0  0  0  0  0  0  0  0  0  0  0  0
   20.6210   17.3360   38.2620 F   0  0  0  0  0  0  0  0  0  0  0  0
   21.0260   17.6580   36.1340 F   0  0  0  0  0  0  0  0  0  0  0  0
   20.1460   19.2510   37.3350 F   0  0  0  0  0  0  0  0  0  0  0  0
   22.6580   20.0290   38.1000 N   0  0  0  0  0  0  0  0  0  0  0  0
   23.9900   20.1220   38.3560 N   0  0  0  0  0  0  0  0  0  0  0  0
   24.4480   21.3080   39.0190 C   0  0  0  0  0  0  0  0  0  0  0  0
   24.7180   21.2360   40.4030 C   0  0  0  0  0  0  0  0  0  0  0  0
   25.2040   22.3280   41.1320 C   0  0  0  0  0  0  0  0  0  0  0  0
   25.4300   23.5030   40.4240 C   0  0  0  0  0  0  0  0  0  0  0  0
   25.9160   24.6670   40.9810 O   0  0  0  0  0  0  0  0  0  0  0  0
   25.9990   25.5780   39.8850 N   0  0  0  0  0  0  0  0  0  0  0  0
   25.5690   24.9600   38.7410 C   0  0  0  0  0  0  0  0  0  0  0  0
   25.5280   25.5780   37.5000 N   0  0  0  0  0  0  0  0  0  0  0  0
   25.1900   23.6200   39.0400 C   0  0  0  0  0  0  0  0  0  0  0  0
   24.6980   22.5050   38.3250 C   0  0  0  0  0  0  0  0  0  0  0  0
   28.0710   16.1370   37.6960 C   0  0  0  0  0  0  0  0  0  0  0  0
   27.0400   15.7210   36.9430 F   0  0  0  0  0  0  0  0  0  0  0  0
   29.3050   15.5060   37.5500 C   0  0  0  0  0  0  0  0  0  0  0  0
   31.2719   14.7779   43.0217 H   0  0  0  0  0  0  0  0  0  0  0  0
   31.3136   15.9459   41.6576 H   0  0  0  0  0  0  0  0  0  0  0  0
   30.1157   14.6074   41.6576 H   0  0  0  0  0  0  0  0  0  0  0  0
   32.8660   14.6600   40.8840 H   0  0  0  0  0  0  0  0  0  0  0  0
   32.5796   13.2783   43.1568 H   0  0  0  0  0  0  0  0  0  0  0  0
   32.3061   12.0154   41.9090 H   0  0  0  0  0  0  0  0  0  0  0  0
   33.8325   12.9625   41.9090 H   0  0  0  0  0  0  0  0  0  0  0  0
   31.8160   12.3757   39.8561 H   0  0  0  0  0  0  0  0  0  0  0  0
   30.4729   13.5671   39.9022 H   0  0  0  0  0  0  0  0  0  0  0  0
   34.6131   14.8307   36.8006 H   0  0  0  0  0  0  0  0  0  0  0  0
   32.6771   16.6471   36.6887 H   0  0  0  0  0  0  0  0  0  0  0  0
   31.0752   17.3494   39.8118 H   0  0  0  0  0  0  0  0  0  0  0  0
   28.8426   18.4341   40.0763 H   0  0  0  0  0  0  0  0  0  0  0  0
   25.9830   17.3960   39.3480 H   0  0  0  0  0  0  0  0  0  0  0  0
   23.7919   17.0168   37.3186 H   0  0  0  0  0  0  0  0  0  0  0  0
   24.5398   20.2861   40.9283 H   0  0  0  0  0  0  0  0  0  0  0  0
   25.3977   22.2596   42.2127 H   0  0  0  0  0  0  0  0  0  0  0  0
   26.3410   26.5190   40.0360 H   0  0  0  0  0  0  0  0  0  0  0  0
   25.5890   26.5830   37.3670 H   0  0  0  0  0  0  0  0  0  0  0  0
   25.4330   25.0110   36.6600 H   0  0  0  0  0  0  0  0  0  0  0  0
   24.5135   22.5724   37.2427 H   0  0  0  0  0  0  0  0  0  0  0  0
   29.4149   14.6633   36.8516 H   0  0  0  0  0  0  0  0  0  0  0  0
  1  2  1  0
  2  3  1  0
  2  4  1  0
  4  5  1  0
  5  6  2  0
  6  7  1  0
  7  8  2  0
  8  9  1  0
  9 10  1  0
 10 11  2  0
 11 12  1  0
 12 13  2  0
 13 14  1  0
 14 15  1  0
 15 16  2  0
 15 17  1  0
 17 18  2  0
 18 19  1  0
 19 20  1  0
 20 21  1  0
 20 22  1  0
 20 23  1  0
 19 24  2  0
 24 25  1  0
 25 26  1  0
 26 27  2  0
 27 28  1  0
 28 29  2  0
 29 30  1  0
 30 31  1  0
 31 32  2  0
 32 33  1  0
 32 34  1  0
 34 35  2  0
 13 36  1  0
 36 37  1  0
 36 38  2  0
  9  5  1  0
 38 10  1  0
 25 17  1  0
 35 26  1  0
 34 29  1  0
  1 39  1  0
  1 40  1  0
  1 41  1  0
  2 42  1  0
  3 43  1  0
  3 44  1  0
  3 45  1  0
  4 46  1  0
  4 47  1  0
  7 48  1  0
  8 49  1  0
 11 50  1  0
 12 51  1  0
 14 52  1  0
 18 53  1  0
 27 54  1  0
 28 55  1  0
 31 56  1  0
 33 57  1  0
 33 58  1  0
 35 59  1  0
 38 60  1  0
M  CHG  2   2   1  31   1
M  END
>  <meeko>  (6) 
{"is_sidechain": [false], "free_energy": -6.7, "intermolecular_energy": -8.914, "internal_energy": -1.583}

$$$$
1z6e_ligand
     RDKit          3D

 60 64  0  0  0  0  0  0  0  0999 V2000
   18.7410   27.6110   37.2820 C   0  0  0  0  0  0  0  0  0  0  0  0
   17.7300   27.9910   36.2420 N   0  0  0  0  0  0  0  0  0  0  0  0
   17.8640   29.4090   35.7950 C   0  0  0  0  0  0  0  0  0  0  0  0
   17.6460   26.9910   35.0980 C   0  0  0  0  0  0  0  0  0  0  0  0
   16.6120   25.9620   35.4150 C   0  0  0  0  0  0  0  0  0  0  0  0
   15.3200   26.2320   35.3030 N   0  0  0  0  0  0  0  0  0  0  0  0
   14.6710   25.1640   35.8480 C   0  0  0  0  0  0  0  0  0  0  0  0
   15.5750   24.2360   36.3000 C   0  0  0  0  0  0  0  0  0  0  0  0
   16.8300   24.7060   35.9710 N   0  0  0  0  0  0  0  0  0  0  0  0
   18.0520   24.0120   36.2000 C   0  0  0  0  0  0  0  0  0  0  0  0
   18.7780   23.4320   35.1500 C   0  0  0  0  0  0  0  0  0  0  0  0
   19.9770   22.7420   35.4030 C   0  0  0  0  0  0  0  0  0  0  0  0
   20.4680   22.6280   36.7020 C   0  0  0  0  0  0  0  0  0  0  0  0
   21.6850   22.0030   37.0540 N   0  0  0  0  0  0  0  0  0  0  0  0
   22.9500   22.5600   37.1060 C   0  0  0  0  0  0  0  0  0  0  0  0
   23.2260   23.6670   36.6570 O   0  0  0  0  0  0  0  0  0  0  0  0
   23.9300   21.7080   37.7480 C   0  0  0  0  0  0  0  0  0  0  0  0
   24.0790   20.3340   37.6020 C   0  0  0  0  0  0  0  0  0  0  0  0
   24.9920   19.9180   38.5930 C   0  0  0  0  0  0  0  0  0  0  0  0
   25.4400   18.5040   38.8810 C   0  0  0  0  0  0  0  0  0  0  0  0
   26.7890   18.3720   38.8250 F   0  0  0  0  0  0  0  0  0  0  0  0
   24.9030   17.6110   38.0120 F   0  0  0  0  0  0  0  0  0  0  0  0
   25.0590   18.1150   40.1270 F   0  0  0  0  0  0  0  0  0  0  0  0
   25.4050   20.9740   39.3090 N   0  0  0  0  0  0  0  0  0  0  0  0
   24.8390   22.0700   38.7380 N   0  0  0  0  0  0  0  0  0  0  0  0
   25.3040   23.3530   39.1800 C   0  0  0  0  0  0  0  0  0  0  0  0
   25.8080   24.2480   38.2130 C   0  0  0  0  0  0  0  0  0  0  0  0
   26.2520   25.5360   38.5380 C   0  0  0  0  0  0  0  0  0  0  0  0
   26.1590   25.9110   39.8740 C   0  0  0  0  0  0  0  0  0  0  0  0
   26.5380   27.1420   40.3650 O   0  0  0  0  0  0  0  0  0  0  0  0
   26.2440   27.0730   41.7610 N   0  0  0  0  0  0  0  0  0  0  0  0
   25.7210   25.8430   42.0600 C   0  0  0  0  0  0  0  0  0  0  0  0
   25.3320   25.4600   43.3350 N   0  0  0  0  0  0  0  0  0  0  0  0
   25.6490   25.0580   40.8730 C   0  0  0  0  0  0  0  0  0  0  0  0
   25.2090   23.7620   40.5220 C   0  0  0  0  0  0  0  0  0  0  0  0
   19.7300   23.2050   37.7400 C   0  0  0  0  0  0  0  0  0  0  0  0
   20.1910   23.1180   38.9980 F   0  0  0  0  0  0  0  0  0  0  0  0
   18.5310   23.8750   37.5090 C   0  0  0  0  0  0  0  0  0  0  0  0
   18.3149   27.7712   38.2834 H   0  0  0  0  0  0  0  0  0  0  0  0
   19.0089   26.5508   37.1628 H   0  0  0  0  0  0  0  0  0  0  0  0
   19.6409   28.2322   37.1628 H   0  0  0  0  0  0  0  0  0  0  0  0
   16.8090   27.8890   36.7070 H   0  0  0  0  0  0  0  0  0  0  0  0
   17.9261   30.0665   36.6747 H   0  0  0  0  0  0  0  0  0  0  0  0
   18.7765   29.5182   35.1905 H   0  0  0  0  0  0  0  0  0  0  0  0
   16.9881   29.6872   35.1905 H   0  0  0  0  0  0  0  0  0  0  0  0
   17.3700   27.5155   34.1714 H   0  0  0  0  0  0  0  0  0  0  0  0
   18.6224   26.5023   34.9642 H   0  0  0  0  0  0  0  0  0  0  0  0
   13.5779   25.0609   35.9157 H   0  0  0  0  0  0  0  0  0  0  0  0
   15.3436   23.2971   36.8243 H   0  0  0  0  0  0  0  0  0  0  0  0
   18.4061   23.5175   34.1183 H   0  0  0  0  0  0  0  0  0  0  0  0
   20.5318   22.2885   34.5684 H   0  0  0  0  0  0  0  0  0  0  0  0
   21.5980   21.0170   37.2820 H   0  0  0  0  0  0  0  0  0  0  0  0
   23.5813   19.6949   36.8578 H   0  0  0  0  0  0  0  0  0  0  0  0
   25.8541   23.9218   37.1635 H   0  0  0  0  0  0  0  0  0  0  0  0
   26.6545   26.2175   37.7741 H   0  0  0  0  0  0  0  0  0  0  0  0
   26.4300   27.8710   42.3560 H   0  0  0  0  0  0  0  0  0  0  0  0
   25.9810   25.2830   44.0940 H   0  0  0  0  0  0  0  0  0  0  0  0
   24.3420   25.3470   43.5440 H   0  0  0  0  0  0  0  0  0  0  0  0
   24.7991   23.0845   41.2856 H   0  0  0  0  0  0  0  0  0  0  0  0
   17.9622   24.2951   38.3516 H   0  0  0  0  0  0  0  0  0  0  0  0
  1  2  1  0
  2  3  1  0
  2  4  1  0
  4  5  1  0
  5  6  2  0
  6  7  1  0
  7  8  2  0
  8  9  1  0
  9 10  1  0
 10 11  2  0
 11 12  1  0
 12 13  2  0
 13 14  1  0
 14 15  1  0
 15 16  2  0
 15 17  1  0
 17 18  2  0
 18 19  1  0
 19 20  1  0
 20 21  1  0
 20 22  1  0
 20 23  1  0
 19 24  2  0
 24 25  1  0
 25 26  1  0
 26 27  2  0
 27 28  1  0
 28 29  2  0
 29 30  1  0
 30 31  1  0
 31 32  2  0
 32 33  1  0
 32 34  1  0
 34 35  2  0
 13 36  1  0
 36 37  1  0
 36 38  2  0
  9  5  1  0
 38 10  1  0
 25 17  1  0
 35 26  1  0
 34 29  1  0
  1 39  1  0
  1 40  1  0
  1 41  1  0
  2 42  1  0
  3 43  1  0
  3 44  1  0
  3 45  1  0
  4 46  1  0
  4 47  1  0
  7 48  1  0
  8 49  1  0
 11 50  1  0
 12 51  1  0
 14 52  1  0
 18 53  1  0
 27 54  1  0
 28 55  1  0
 31 56  1  0
 33 57  1  0
 33 58  1  0
 35 59  1  0
 38 60  1  0
M  CHG  2   2   1  31   1
M  END
>  <meeko>  (7) 
{"is_sidechain": [false], "free_energy": -6.687, "intermolecular_energy": -9.26, "internal_energy": -1.219}

$$$$
1z6e_ligand
     RDKit          3D

 60 64  0  0  0  0  0  0  0  0999 V2000
   20.7890   16.1760   35.6300 C   0  0  0  0  0  0  0  0  0  0  0  0
   19.8770   16.9080   36.5670 N   0  0  0  0  0  0  0  0  0  0  0  0
   18.7010   16.0920   36.9870 C   0  0  0  0  0  0  0  0  0  0  0  0
   20.6140   17.5670   37.7240 C   0  0  0  0  0  0  0  0  0  0  0  0
   21.0650   18.9290   37.3120 C   0  0  0  0  0  0  0  0  0  0  0  0
   20.1950   19.8550   36.9370 N   0  0  0  0  0  0  0  0  0  0  0  0
   20.9410   20.8870   36.4500 C   0  0  0  0  0  0  0  0  0  0  0  0
   22.2790   20.5860   36.5240 C   0  0  0  0  0  0  0  0  0  0  0  0
   22.3780   19.3540   37.1370 N   0  0  0  0  0  0  0  0  0  0  0  0
   23.5980   18.7000   37.4710 C   0  0  0  0  0  0  0  0  0  0  0  0
   24.3380   19.0570   38.6080 C   0  0  0  0  0  0  0  0  0  0  0  0
   25.5460   18.4040   38.9110 C   0  0  0  0  0  0  0  0  0  0  0  0
   26.0260   17.3860   38.0900 C   0  0  0  0  0  0  0  0  0  0  0  0
   27.1980   16.6350   38.3340 N   0  0  0  0  0  0  0  0  0  0  0  0
   28.4850   16.8940   37.9020 C   0  0  0  0  0  0  0  0  0  0  0  0
   28.7650   17.7420   37.0620 O   0  0  0  0  0  0  0  0  0  0  0  0
   29.4860   16.0650   38.5420 C   0  0  0  0  0  0  0  0  0  0  0  0
   30.6250   16.4880   39.2180 C   0  0  0  0  0  0  0  0  0  0  0  0
   31.4060   15.3370   39.4530 C   0  0  0  0  0  0  0  0  0  0  0  0
   32.7670   15.2800   40.1080 C   0  0  0  0  0  0  0  0  0  0  0  0
   32.7750   15.8730   41.3280 F   0  0  0  0  0  0  0  0  0  0  0  0
   33.7230   15.8780   39.3540 F   0  0  0  0  0  0  0  0  0  0  0  0
   33.1650   13.9920   40.2960 F   0  0  0  0  0  0  0  0  0  0  0  0
   30.7850   14.2520   38.9670 N   0  0  0  0  0  0  0  0  0  0  0  0
   29.5800   14.6770   38.5030 N   0  0  0  0  0  0  0  0  0  0  0  0
   28.6280   13.6700   38.1360 C   0  0  0  0  0  0  0  0  0  0  0  0
   28.3370   13.4960   36.7660 C   0  0  0  0  0  0  0  0  0  0  0  0
   27.4490   12.5150   36.3040 C   0  0  0  0  0  0  0  0  0  0  0  0
   26.8690   11.6940   37.2640 C   0  0  0  0  0  0  0  0  0  0  0  0
   25.9850   10.6740   36.9840 O   0  0  0  0  0  0  0  0  0  0  0  0
   25.6800   10.1090   38.2600 N   0  0  0  0  0  0  0  0  0  0  0  0
   26.3600   10.7860   39.2370 C   0  0  0  0  0  0  0  0  0  0  0  0
   26.2780   10.4800   40.5870 N   0  0  0  0  0  0  0  0  0  0  0  0
   27.1400   11.8190   38.6420 C   0  0  0  0  0  0  0  0  0  0  0  0
   28.0360   12.8170   39.0840 C   0  0  0  0  0  0  0  0  0  0  0  0
   25.2830   17.0460   36.9550 C   0  0  0  0  0  0  0  0  0  0  0  0
   25.7200   16.0600   36.1560 F   0  0  0  0  0  0  0  0  0  0  0  0
   24.0940   17.6960   36.6300 C   0  0  0  0  0  0  0  0  0  0  0  0
   21.5179   15.5910   36.2101 H   0  0  0  0  0  0  0  0  0  0  0  0
   20.1971   15.4994   34.9961 H   0  0  0  0  0  0  0  0  0  0  0  0
   21.3215   16.9003   34.9961 H   0  0  0  0  0  0  0  0  0  0  0  0
   19.5240   17.7200   36.0250 H   0  0  0  0  0  0  0  0  0  0  0  0
   18.6518   16.0579   38.0854 H   0  0  0  0  0  0  0  0  0  0  0  0
   17.7800   16.5461   36.5927 H   0  0  0  0  0  0  0  0  0  0  0  0
   18.8040   15.0703   36.5927 H   0  0  0  0  0  0  0  0  0  0  0  0
   19.9399   17.6496   38.5893 H   0  0  0  0  0  0  0  0  0  0  0  0
   21.4877   16.9576   37.9983 H   0  0  0  0  0  0  0  0  0  0  0  0
   20.5297   21.8272   36.0540 H   0  0  0  0  0  0  0  0  0  0  0  0
   23.1118   21.2078   36.1637 H   0  0  0  0  0  0  0  0  0  0  0  0
   23.9698   19.8555   39.2690 H   0  0  0  0  0  0  0  0  0  0  0  0
   26.1167   18.6995   39.8037 H   0  0  0  0  0  0  0  0  0  0  0  0
   27.0490   15.7970   38.8890 H   0  0  0  0  0  0  0  0  0  0  0  0
   30.8695   17.5193   39.5123 H   0  0  0  0  0  0  0  0  0  0  0  0
   28.8255   14.1551   36.0332 H   0  0  0  0  0  0  0  0  0  0  0  0
   27.2221   12.4004   35.2338 H   0  0  0  0  0  0  0  0  0  0  0  0
   25.0440    9.3230   38.3250 H   0  0  0  0  0  0  0  0  0  0  0  0
   25.9460   11.1290   41.2940 H   0  0  0  0  0  0  0  0  0  0  0  0
   26.5580    9.5560   40.9100 H   0  0  0  0  0  0  0  0  0  0  0  0
   28.2673   12.9254   40.1539 H   0  0  0  0  0  0  0  0  0  0  0  0
   23.5469   17.4215   35.7160 H   0  0  0  0  0  0  0  0  0  0  0  0
  1  2  1  0
  2  3  1  0
  2  4  1  0
  4  5  1  0
  5  6  2  0
  6  7  1  0
  7  8  2  0
  8  9  1  0
  9 10  1  0
 10 11  2  0
 11 12  1  0
 12 13  2  0
 13 14  1  0
 14 15  1  0
 15 16  2  0
 15 17  1  0
 17 18  2  0
 18 19  1  0
 19 20  1  0
 20 21  1  0
 20 22  1  0
 20 23  1  0
 19 24  2  0
 24 25  1  0
 25 26  1  0
 26 27  2  0
 27 28  1  0
 28 29  2  0
 29 30  1  0
 30 31  1  0
 31 32  2  0
 32 33  1  0
 32 34  1  0
 34 35  2  0
 13 36  1  0
 36 37  1  0
 36 38  2  0
  9  5  1  0
 38 10  1  0
 25 17  1  0
 35 26  1  0
 34 29  1  0
  1 39  1  0
  1 40  1  0
  1 41  1  0
  2 42  1  0
  3 43  1  0
  3 44  1  0
  3 45  1  0
  4 46  1  0
  4 47  1  0
  7 48  1  0
  8 49  1  0
 11 50  1  0
 12 51  1  0
 14 52  1  0
 18 53  1  0
 27 54  1  0
 28 55  1  0
 31 56  1  0
 33 57  1  0
 33 58  1  0
 35 59  1  0
 38 60  1  0
M  CHG  2   2   1  31   1
M  END
>  <meeko>  (8) 
{"is_sidechain": [false], "free_energy": -6.509, "intermolecular_energy": -8.651, "internal_energy": -1.571}

$$$$
1z6e_ligand
     RDKit          3D

 60 64  0  0  0  0  0  0  0  0999 V2000
   24.3380   22.1870   38.5180 C   0  0  0  0  0  0  0  0  0  0  0  0
   22.9510   21.6530   38.3270 N   0  0  0  0  0  0  0  0  0  0  0  0
   21.9040   22.5340   38.9230 C   0  0  0  0  0  0  0  0  0  0  0  0
   22.6630   21.2390   36.8910 C   0  0  0  0  0  0  0  0  0  0  0  0
   21.7480   20.0600   36.8890 C   0  0  0  0  0  0  0  0  0  0  0  0
   20.4570   20.1950   36.6270 N   0  0  0  0  0  0  0  0  0  0  0  0
   19.8960   18.9820   36.8990 C   0  0  0  0  0  0  0  0  0  0  0  0
   20.8540   18.1000   37.3350 C   0  0  0  0  0  0  0  0  0  0  0  0
   22.0640   18.7610   37.2740 N   0  0  0  0  0  0  0  0  0  0  0  0
   23.3290   18.1830   37.5770 C   0  0  0  0  0  0  0  0  0  0  0  0
   23.9450   18.3690   38.8230 C   0  0  0  0  0  0  0  0  0  0  0  0
   25.2010   17.7970   39.0940 C   0  0  0  0  0  0  0  0  0  0  0  0
   25.8530   17.0290   38.1300 C   0  0  0  0  0  0  0  0  0  0  0  0
   27.0880   16.3710   38.3210 N   0  0  0  0  0  0  0  0  0  0  0  0
   28.3570   16.8310   38.0230 C   0  0  0  0  0  0  0  0  0  0  0  0
   28.5800   17.8350   37.3560 O   0  0  0  0  0  0  0  0  0  0  0  0
   29.4140   16.0100   38.5800 C   0  0  0  0  0  0  0  0  0  0  0  0
   30.5620   16.4410   39.2320 C   0  0  0  0  0  0  0  0  0  0  0  0
   31.3950   15.3110   39.3750 C   0  0  0  0  0  0  0  0  0  0  0  0
   32.7820   15.2730   39.9730 C   0  0  0  0  0  0  0  0  0  0  0  0
   33.7170   15.7820   39.1320 F   0  0  0  0  0  0  0  0  0  0  0  0
   33.1650   14.0120   40.2990 F   0  0  0  0  0  0  0  0  0  0  0  0
   32.8420   16.0080   41.1160 F   0  0  0  0  0  0  0  0  0  0  0  0
   30.7940   14.2290   38.8580 N   0  0  0  0  0  0  0  0  0  0  0  0
   29.5570   14.6300   38.4630 N   0  0  0  0  0  0  0  0  0  0  0  0
   28.6280   13.6060   38.0810 C   0  0  0  0  0  0  0  0  0  0  0  0
   28.3610   13.4280   36.7070 C   0  0  0  0  0  0  0  0  0  0  0  0
   27.4980   12.4320   36.2310 C   0  0  0  0  0  0  0  0  0  0  0  0
   26.9170   11.6010   37.1820 C   0  0  0  0  0  0  0  0  0  0  0  0
   26.0560   10.5650   36.8880 O   0  0  0  0  0  0  0  0  0  0  0  0
   25.7410    9.9940   38.1590 N   0  0  0  0  0  0  0  0  0  0  0  0
   26.3940   10.6830   39.1460 C   0  0  0  0  0  0  0  0  0  0  0  0
   26.2970   10.3740   40.4950 N   0  0  0  0  0  0  0  0  0  0  0  0
   27.1650   11.7300   38.5640 C   0  0  0  0  0  0  0  0  0  0  0  0
   28.0370   12.7430   39.0210 C   0  0  0  0  0  0  0  0  0  0  0  0
   25.2310   16.8590   36.8900 C   0  0  0  0  0  0  0  0  0  0  0  0
   25.8350   16.1130   35.9510 F   0  0  0  0  0  0  0  0  0  0  0  0
   23.9960   17.4340   36.5980 C   0  0  0  0  0  0  0  0  0  0  0  0
   24.5540   22.2702   39.5934 H   0  0  0  0  0  0  0  0  0  0  0  0
   25.0618   21.5032   38.0504 H   0  0  0  0  0  0  0  0  0  0  0  0
   24.4164   23.1796   38.0504 H   0  0  0  0  0  0  0  0  0  0  0  0
   22.9340   20.7490   38.8360 H   0  0  0  0  0  0  0  0  0  0  0  0
   21.9637   22.4838   40.0202 H   0  0  0  0  0  0  0  0  0  0  0  0
   22.0666   23.5710   38.5940 H   0  0  0  0  0  0  0  0  0  0  0  0
   20.9101   22.1965   38.5940 H   0  0  0  0  0  0  0  0  0  0  0  0
   22.1865   22.0742   36.3568 H   0  0  0  0  0  0  0  0  0  0  0  0
   23.6052   20.9737   36.3891 H   0  0  0  0  0  0  0  0  0  0  0  0
   18.8281   18.7440   36.7853 H   0  0  0  0  0  0  0  0  0  0  0  0
   20.6887   17.0650   37.6689 H   0  0  0  0  0  0  0  0  0  0  0  0
   23.4410   18.9680   39.5958 H   0  0  0  0  0  0  0  0  0  0  0  0
   25.6729   17.9569   40.0747 H   0  0  0  0  0  0  0  0  0  0  0  0
   27.0080   15.4380   38.7170 H   0  0  0  0  0  0  0  0  0  0  0  0
   30.7797   17.4645   39.5711 H   0  0  0  0  0  0  0  0  0  0  0  0
   28.8487   14.0964   35.9822 H   0  0  0  0  0  0  0  0  0  0  0  0
   27.2904   12.3134   35.1573 H   0  0  0  0  0  0  0  0  0  0  0  0
   25.1180    9.1970   38.2130 H   0  0  0  0  0  0  0  0  0  0  0  0
   26.6020   10.9940   41.2390 H   0  0  0  0  0  0  0  0  0  0  0  0
   25.8970    9.4820   40.7780 H   0  0  0  0  0  0  0  0  0  0  0  0
   28.2502   12.8549   40.0943 H   0  0  0  0  0  0  0  0  0  0  0  0
   23.5462   17.3007   35.6031 H   0  0  0  0  0  0  0  0  0  0  0  0
  1  2  1  0
  2  3  1  0
  2  4  1  0
  4  5  1  0
  5  6  2  0
  6  7  1  0
  7  8  2  0
  8  9  1  0
  9 10  1  0
 10 11  2  0
 11 12  1  0
 12 13  2  0
 13 14  1  0
 14 15  1  0
 15 16  2  0
 15 17  1  0
 17 18  2  0
 18 19  1  0
 19 20  1  0
 20 21  1  0
 20 22  1  0
 20 23  1  0
 19 24  2  0
 24 25  1  0
 25 26  1  0
 26 27  2  0
 27 28  1  0
 28 29  2  0
 29 30  1  0
 30 31  1  0
 31 32  2  0
 32 33  1  0
 32 34  1  0
 34 35  2  0
 13 36  1  0
 36 37  1  0
 36 38  2  0
  9  5  1  0
 38 10  1  0
 25 17  1  0
 35 26  1  0
 34 29  1  0
  1 39  1  0
  1 40  1  0
  1 41  1  0
  2 42  1  0
  3 43  1  0
  3 44  1  0
  3 45  1  0
  4 46  1  0
  4 47  1  0
  7 48  1  0
  8 49  1  0
 11 50  1  0
 12 51  1  0
 14 52  1  0
 18 53  1  0
 27 54  1  0
 28 55  1  0
 31 56  1  0
 33 57  1  0
 33 58  1  0
 35 59  1  0
 38 60  1  0
M  CHG  2   2   1  31   1
M  END
>  <meeko>  (9) 
{"is_sidechain": [false], "free_energy": -6.505, "intermolecular_energy": -8.77, "internal_energy": -1.447}

$$$$
