1o5b_ligand
     RDKit          3D

 21 22  0  0  0  0  0  0  0  0999 V2000
    8.6880   -1.7440   24.7760 N   0  0  0  0  0  0  0  0  0  0  0  0
    8.2240   -0.7850   25.5460 C   0  0  0  0  0  0  0  0  0  0  0  0
    7.5280   -1.0420   26.6300 N   0  0  0  0  0  0  0  0  0  0  0  0
    8.4820    0.6020   25.2020 C   0  0  0  0  0  0  0  0  0  0  0  0
    8.1920    1.6880   26.0000 C   0  0  0  0  0  0  0  0  0  0  0  0
    8.5540    2.9530   25.4010 C   0  0  0  0  0  0  0  0  0  0  0  0
    8.4300    4.2920   25.8590 C   0  0  0  0  0  0  0  0  0  0  0  0
    7.5870    4.7320   27.7260 I   0  0  0  0  0  0  0  0  0  0  0  0
    8.8690    5.3630   25.0710 C   0  0  0  0  0  0  0  0  0  0  0  0
    9.4340    5.1280   23.8260 C   0  0  0  0  0  0  0  0  0  0  0  0
    9.5730    3.8260   23.3460 C   0  0  0  0  0  0  0  0  0  0  0  0
    9.1310    2.7510   24.1420 C   0  0  0  0  0  0  0  0  0  0  0  0
    9.2160    1.0790   23.7410 S   0  0  0  0  0  0  0  0  0  0  0  0
    9.2600   -1.5310   23.9670 H   0  0  0  0  0  0  0  0  0  0  0  0
    8.5270   -2.7220   24.9790 H   0  0  0  0  0  0  0  0  0  0  0  0
    7.1920   -0.2710   27.2000 H   0  0  0  0  0  0  0  0  0  0  0  0
    7.3110   -1.9810   26.9340 H   0  0  0  0  0  0  0  0  0  0  0  0
    7.7305    1.6007   26.9947 H   0  0  0  0  0  0  0  0  0  0  0  0
    8.7655    6.3940   25.4403 H   0  0  0  0  0  0  0  0  0  0  0  0
    9.7750    5.9751   23.2127 H   0  0  0  0  0  0  0  0  0  0  0  0
   10.0218    3.6409   22.3589 H   0  0  0  0  0  0  0  0  0  0  0  0
  1  2  1  0
  2  3  2  0
  2  4  1  0
  4  5  2  0
  5  6  1  0
  6  7  2  0
  7  8  1  0
  7  9  1  0
  9 10  2  0
 10 11  1  0
 11 12  2  0
 12 13  1  0
 13  4  1  0
 12  6  1  0
  1 14  1  0
  1 15  1  0
  3 16  1  0
  3 17  1  0
  5 18  1  0
  9 19  1  0
 10 20  1  0
 11 21  1  0
M  CHG  1   3   1
M  END
>  <meeko>  (1) 
{"is_sidechain": [false], "free_energy": -6.586, "intermolecular_energy": -6.971, "internal_energy": -0.064}

$$$$
1o5b_ligand
     RDKit          3D

 21 22  0  0  0  0  0  0  0  0999 V2000
    8.4420    0.2640   26.5050 N   0  0  0  0  0  0  0  0  0  0  0  0
    8.6770    0.6190   25.2620 C   0  0  0  0  0  0  0  0  0  0  0  0
    8.8850   -0.2670   24.3150 N   0  0  0  0  0  0  0  0  0  0  0  0
    8.7060    2.0280   24.9080 C   0  0  0  0  0  0  0  0  0  0  0  0
    8.2880    3.0620   25.7180 C   0  0  0  0  0  0  0  0  0  0  0  0
    8.4270    4.3630   25.1050 C   0  0  0  0  0  0  0  0  0  0  0  0
    8.1210    5.6710   25.5690 C   0  0  0  0  0  0  0  0  0  0  0  0
    7.3000    5.9890   27.4700 I   0  0  0  0  0  0  0  0  0  0  0  0
    8.3570    6.7910   24.7640 C   0  0  0  0  0  0  0  0  0  0  0  0
    8.8980    6.6380   23.4950 C   0  0  0  0  0  0  0  0  0  0  0  0
    9.2130    5.3690   23.0080 C   0  0  0  0  0  0  0  0  0  0  0  0
    8.9740    4.2440   23.8220 C   0  0  0  0  0  0  0  0  0  0  0  0
    9.2960    2.6030   23.4170 S   0  0  0  0  0  0  0  0  0  0  0  0
    8.2390    0.9590   27.2150 H   0  0  0  0  0  0  0  0  0  0  0  0
    8.4170   -0.7050   26.7920 H   0  0  0  0  0  0  0  0  0  0  0  0
    9.0580    0.0500   23.3650 H   0  0  0  0  0  0  0  0  0  0  0  0
    8.8780   -1.2630   24.4830 H   0  0  0  0  0  0  0  0  0  0  0  0
    7.8879    2.9115   26.7315 H   0  0  0  0  0  0  0  0  0  0  0  0
    8.1129    7.7962   25.1382 H   0  0  0  0  0  0  0  0  0  0  0  0
    9.0798    7.5238   22.8686 H   0  0  0  0  0  0  0  0  0  0  0  0
    9.6421    5.2485   22.0023 H   0  0  0  0  0  0  0  0  0  0  0  0
  1  2  1  0
  2  3  2  0
  2  4  1  0
  4  5  2  0
  5  6  1  0
  6  7  2  0
  7  8  1  0
  7  9  1  0
  9 10  2  0
 10 11  1  0
 11 12  2  0
 12 13  1  0
 13  4  1  0
 12  6  1  0
  1 14  1  0
  1 15  1  0
  3 16  1  0
  3 17  1  0
  5 18  1  0
  9 19  1  0
 10 20  1  0
 11 21  1  0
M  CHG  1   3   1
M  END
>  <meeko>  (2) 
{"is_sidechain": [false], "free_energy": -5.683, "intermolecular_energy": -6.016, "internal_energy": -0.064}

$$$$
1o5b_ligand
     RDKit          3D

 21 22  0  0  0  0  0  0  0  0999 V2000
    9.1020    0.6520   23.5230 N   0  0  0  0  0  0  0  0  0  0  0  0
    9.2000    1.9620   23.4710 C   0  0  0  0  0  0  0  0  0  0  0  0
    9.6660    2.5800   22.4100 N   0  0  0  0  0  0  0  0  0  0  0  0
    8.7810    2.7610   24.6090 C   0  0  0  0  0  0  0  0  0  0  0  0
    8.4350    4.0940   24.5630 C   0  0  0  0  0  0  0  0  0  0  0  0
    8.0630    4.6350   25.8520 C   0  0  0  0  0  0  0  0  0  0  0  0
    7.6530    5.9340   26.2550 C   0  0  0  0  0  0  0  0  0  0  0  0
    7.5010    7.5060   24.8780 I   0  0  0  0  0  0  0  0  0  0  0  0
    7.3400    6.2050   27.5920 C   0  0  0  0  0  0  0  0  0  0  0  0
    7.4250    5.2010   28.5460 C   0  0  0  0  0  0  0  0  0  0  0  0
    7.8220    3.9130   28.1850 C   0  0  0  0  0  0  0  0  0  0  0  0
    8.1360    3.6450   26.8380 C   0  0  0  0  0  0  0  0  0  0  0  0
    8.6360    2.1330   26.1860 S   0  0  0  0  0  0  0  0  0  0  0  0
    8.6990    0.1920   24.3320 H   0  0  0  0  0  0  0  0  0  0  0  0
    9.3860    0.0610   22.7540 H   0  0  0  0  0  0  0  0  0  0  0  0
    9.7190    3.5950   22.4090 H   0  0  0  0  0  0  0  0  0  0  0  0
    9.9740    2.0930   21.5810 H   0  0  0  0  0  0  0  0  0  0  0  0
    8.4411    4.6882   23.6373 H   0  0  0  0  0  0  0  0  0  0  0  0
    7.0257    7.2169   27.8874 H   0  0  0  0  0  0  0  0  0  0  0  0
    7.1776    5.4221   29.5947 H   0  0  0  0  0  0  0  0  0  0  0  0
    7.8889    3.1176   28.9419 H   0  0  0  0  0  0  0  0  0  0  0  0
  1  2  1  0
  2  3  2  0
  2  4  1  0
  4  5  2  0
  5  6  1  0
  6  7  2  0
  7  8  1  0
  7  9  1  0
  9 10  2  0
 10 11  1  0
 11 12  2  0
 12 13  1  0
 13  4  1  0
 12  6  1  0
  1 14  1  0
  1 15  1  0
  3 16  1  0
  3 17  1  0
  5 18  1  0
  9 19  1  0
 10 20  1  0
 11 21  1  0
M  CHG  1   3   1
M  END
>  <meeko>  (3) 
{"is_sidechain": [false], "free_energy": -5.491, "intermolecular_energy": -5.812, "internal_energy": -0.064}

$$$$
1o5b_ligand
     RDKit          3D

 21 22  0  0  0  0  0  0  0  0999 V2000
   10.0980    8.1080   22.4700 N   0  0  0  0  0  0  0  0  0  0  0  0
    8.9450    7.4880   22.5840 C   0  0  0  0  0  0  0  0  0  0  0  0
    7.9430    7.7350   21.7710 N   0  0  0  0  0  0  0  0  0  0  0  0
    8.7590    6.4980   23.6290 C   0  0  0  0  0  0  0  0  0  0  0  0
    9.0350    5.1530   23.5120 C   0  0  0  0  0  0  0  0  0  0  0  0
    8.7480    4.4010   24.7130 C   0  0  0  0  0  0  0  0  0  0  0  0
    8.8750    3.0200   25.0230 C   0  0  0  0  0  0  0  0  0  0  0  0
    9.5850    1.6460   23.6100 I   0  0  0  0  0  0  0  0  0  0  0  0
    8.5240    2.5340   26.2880 C   0  0  0  0  0  0  0  0  0  0  0  0
    8.0470    3.4010   27.2610 C   0  0  0  0  0  0  0  0  0  0  0  0
    7.9120    4.7630   26.9920 C   0  0  0  0  0  0  0  0  0  0  0  0
    8.2660    5.2470   25.7170 C   0  0  0  0  0  0  0  0  0  0  0  0
    8.1840    6.8830   25.1860 S   0  0  0  0  0  0  0  0  0  0  0  0
   10.8760    7.8750   23.0780 H   0  0  0  0  0  0  0  0  0  0  0  0
   10.2660    8.8060   21.7590 H   0  0  0  0  0  0  0  0  0  0  0  0
    7.0690    7.2300   21.8900 H   0  0  0  0  0  0  0  0  0  0  0  0
    7.9970    8.4080   21.0190 H   0  0  0  0  0  0  0  0  0  0  0  0
    9.4346    4.6962   22.5946 H   0  0  0  0  0  0  0  0  0  0  0  0
    8.6266    1.4618   26.5114 H   0  0  0  0  0  0  0  0  0  0  0  0
    7.7732    3.0110   28.2524 H   0  0  0  0  0  0  0  0  0  0  0  0
    7.5346    5.4494   27.7642 H   0  0  0  0  0  0  0  0  0  0  0  0
  1  2  1  0
  2  3  2  0
  2  4  1  0
  4  5  2  0
  5  6  1  0
  6  7  2  0
  7  8  1  0
  7  9  1  0
  9 10  2  0
 10 11  1  0
 11 12  2  0
 12 13  1  0
 13  4  1  0
 12  6  1  0
  1 14  1  0
  1 15  1  0
  3 16  1  0
  3 17  1  0
  5 18  1  0
  9 19  1  0
 10 20  1  0
 11 21  1  0
M  CHG  1   3   1
M  END
>  <meeko>  (4) 
{"is_sidechain": [false], "free_energy": -5.132, "intermolecular_energy": -5.436, "internal_energy": -0.061}

$$$$
1o5b_ligand
     RDKit          3D

 21 22  0  0  0  0  0  0  0  0999 V2000
   15.6830   10.6040   24.1230 N   0  0  0  0  0  0  0  0  0  0  0  0
   16.4380   10.5540   23.0490 C   0  0  0  0  0  0  0  0  0  0  0  0
   17.3570    9.6290   22.8920 N   0  0  0  0  0  0  0  0  0  0  0  0
   16.2620   11.5380   21.9960 C   0  0  0  0  0  0  0  0  0  0  0  0
   15.0660   11.8460   21.3840 C   0  0  0  0  0  0  0  0  0  0  0  0
   15.1880   12.8630   20.3650 C   0  0  0  0  0  0  0  0  0  0  0  0
   14.2320   13.4630   19.5010 C   0  0  0  0  0  0  0  0  0  0  0  0
   12.2130   12.9040   19.5520 I   0  0  0  0  0  0  0  0  0  0  0  0
   14.6140   14.4500   18.5840 C   0  0  0  0  0  0  0  0  0  0  0  0
   15.9370   14.8570   18.5070 C   0  0  0  0  0  0  0  0  0  0  0  0
   16.9020   14.2900   19.3410 C   0  0  0  0  0  0  0  0  0  0  0  0
   16.5130   13.2990   20.2630 C   0  0  0  0  0  0  0  0  0  0  0  0
   17.5380   12.4840   21.3810 S   0  0  0  0  0  0  0  0  0  0  0  0
   14.9470   11.2980   24.2090 H   0  0  0  0  0  0  0  0  0  0  0  0
   15.7760    9.9400   24.8790 H   0  0  0  0  0  0  0  0  0  0  0  0
   17.9170    9.6220   22.0430 H   0  0  0  0  0  0  0  0  0  0  0  0
   17.5370    8.9090   23.5780 H   0  0  0  0  0  0  0  0  0  0  0  0
   14.1121   11.3647   21.6457 H   0  0  0  0  0  0  0  0  0  0  0  0
   13.8616   14.9040   17.9224 H   0  0  0  0  0  0  0  0  0  0  0  0
   16.2284   15.6325   17.7833 H   0  0  0  0  0  0  0  0  0  0  0  0
   17.9518   14.6127   19.2790 H   0  0  0  0  0  0  0  0  0  0  0  0
  1  2  1  0
  2  3  2  0
  2  4  1  0
  4  5  2  0
  5  6  1  0
  6  7  2  0
  7  8  1  0
  7  9  1  0
  9 10  2  0
 10 11  1  0
 11 12  2  0
 12 13  1  0
 13  4  1  0
 12  6  1  0
  1 14  1  0
  1 15  1  0
  3 16  1  0
  3 17  1  0
  5 18  1  0
  9 19  1  0
 10 20  1  0
 11 21  1  0
M  CHG  1   3   1
M  END
>  <meeko>  (5) 
{"is_sidechain": [false], "free_energy": -5.021, "intermolecular_energy": -5.317, "internal_energy": -0.062}

$$$$
1o5b_ligand
     RDKit          3D

 21 22  0  0  0  0  0  0  0  0999 V2000
   17.0620    9.8590   22.8660 N   0  0  0  0  0  0  0  0  0  0  0  0
   15.8310    9.5360   22.5380 C   0  0  0  0  0  0  0  0  0  0  0  0
   15.2970    8.3910   22.8960 N   0  0  0  0  0  0  0  0  0  0  0  0
   15.0260   10.4630   21.7630 C   0  0  0  0  0  0  0  0  0  0  0  0
   15.5180   11.4850   20.9790 C   0  0  0  0  0  0  0  0  0  0  0  0
   14.4840   12.2540   20.3240 C   0  0  0  0  0  0  0  0  0  0  0  0
   14.5410   13.3730   19.4500 C   0  0  0  0  0  0  0  0  0  0  0  0
   16.3710   14.2250   18.8870 I   0  0  0  0  0  0  0  0  0  0  0  0
   13.3700   13.9450   18.9390 C   0  0  0  0  0  0  0  0  0  0  0  0
   12.1310   13.4210   19.2800 C   0  0  0  0  0  0  0  0  0  0  0  0
   12.0380   12.3220   20.1340 C   0  0  0  0  0  0  0  0  0  0  0  0
   13.2190   11.7490   20.6460 C   0  0  0  0  0  0  0  0  0  0  0  0
   13.3250   10.3930   21.7000 S   0  0  0  0  0  0  0  0  0  0  0  0
   17.4460   10.7660   22.6200 H   0  0  0  0  0  0  0  0  0  0  0  0
   17.6560    9.2410   23.4020 H   0  0  0  0  0  0  0  0  0  0  0  0
   14.3390    8.1830   22.6260 H   0  0  0  0  0  0  0  0  0  0  0  0
   15.7930    7.6980   23.4370 H   0  0  0  0  0  0  0  0  0  0  0  0
   16.5917   11.6945   20.8634 H   0  0  0  0  0  0  0  0  0  0  0  0
   13.4321   14.8123   18.2652 H   0  0  0  0  0  0  0  0  0  0  0  0
   11.2154   13.8757   18.8738 H   0  0  0  0  0  0  0  0  0  0  0  0
   11.0553   11.9080   20.4042 H   0  0  0  0  0  0  0  0  0  0  0  0
  1  2  1  0
  2  3  2  0
  2  4  1  0
  4  5  2  0
  5  6  1  0
  6  7  2  0
  7  8  1  0
  7  9  1  0
  9 10  2  0
 10 11  1  0
 11 12  2  0
 12 13  1  0
 13  4  1  0
 12  6  1  0
  1 14  1  0
  1 15  1  0
  3 16  1  0
  3 17  1  0
  5 18  1  0
  9 19  1  0
 10 20  1  0
 11 21  1  0
M  CHG  1   3   1
M  END
>  <meeko>  (6) 
{"is_sidechain": [false], "free_energy": -4.938, "intermolecular_energy": -5.227, "internal_energy": -0.063}

$$$$
1o5b_ligand
     RDKit          3D

 21 22  0  0  0  0  0  0  0  0999 V2000
    9.1070    1.3540   23.9760 N   0  0  0  0  0  0  0  0  0  0  0  0
    9.4160    2.4280   23.2840 C   0  0  0  0  0  0  0  0  0  0  0  0
    9.8170    2.3550   22.0350 N   0  0  0  0  0  0  0  0  0  0  0  0
    9.3140    3.7380   23.9020 C   0  0  0  0  0  0  0  0  0  0  0  0
   10.1770    4.7910   23.6870 C   0  0  0  0  0  0  0  0  0  0  0  0
    9.8350    5.9760   24.4410 C   0  0  0  0  0  0  0  0  0  0  0  0
   10.4420    7.2580   24.5240 C   0  0  0  0  0  0  0  0  0  0  0  0
   12.1700    7.7190   23.4320 I   0  0  0  0  0  0  0  0  0  0  0  0
    9.9020    8.2560   25.3440 C   0  0  0  0  0  0  0  0  0  0  0  0
    8.7590    8.0040   26.0890 C   0  0  0  0  0  0  0  0  0  0  0  0
    8.1360    6.7570   26.0310 C   0  0  0  0  0  0  0  0  0  0  0  0
    8.6830    5.7560   25.2040 C   0  0  0  0  0  0  0  0  0  0  0  0
    8.0680    4.1630   24.9830 S   0  0  0  0  0  0  0  0  0  0  0  0
    8.7570    1.4300   24.9250 H   0  0  0  0  0  0  0  0  0  0  0  0
    9.1680    0.4250   23.5840 H   0  0  0  0  0  0  0  0  0  0  0  0
   10.0410    3.2100   21.5330 H   0  0  0  0  0  0  0  0  0  0  0  0
    9.9100    1.4810   21.5370 H   0  0  0  0  0  0  0  0  0  0  0  0
   11.0410    4.7351   23.0084 H   0  0  0  0  0  0  0  0  0  0  0  0
   10.3853    9.2427   25.3978 H   0  0  0  0  0  0  0  0  0  0  0  0
    8.3407    8.7936   26.7305 H   0  0  0  0  0  0  0  0  0  0  0  0
    7.2303    6.5581   26.6227 H   0  0  0  0  0  0  0  0  0  0  0  0
  1  2  1  0
  2  3  2  0
  2  4  1  0
  4  5  2  0
  5  6  1  0
  6  7  2  0
  7  8  1  0
  7  9  1  0
  9 10  2  0
 10 11  1  0
 11 12  2  0
 12 13  1  0
 13  4  1  0
 12  6  1  0
  1 14  1  0
  1 15  1  0
  3 16  1  0
  3 17  1  0
  5 18  1  0
  9 19  1  0
 10 20  1  0
 11 21  1  0
M  CHG  1   3   1
M  END
>  <meeko>  (7) 
{"is_sidechain": [false], "free_energy": -4.925, "intermolecular_energy": -5.214, "internal_energy": -0.063}

$$$$
1o5b_ligand
     RDKit          3D

 21 22  0  0  0  0  0  0  0  0999 V2000
   11.8430   13.2310   17.9580 N   0  0  0  0  0  0  0  0  0  0  0  0
   12.2040   13.2530   19.2220 C   0  0  0  0  0  0  0  0  0  0  0  0
   11.3240   13.1890   20.1950 N   0  0  0  0  0  0  0  0  0  0  0  0
   13.6110   13.3470   19.5680 C   0  0  0  0  0  0  0  0  0  0  0  0
   14.2430   12.6080   20.5440 C   0  0  0  0  0  0  0  0  0  0  0  0
   15.6500   12.9140   20.6750 C   0  0  0  0  0  0  0  0  0  0  0  0
   16.6580   12.4070   21.5390 C   0  0  0  0  0  0  0  0  0  0  0  0
   16.2280   10.9370   22.9700 I   0  0  0  0  0  0  0  0  0  0  0  0
   17.9740   12.8780   21.4610 C   0  0  0  0  0  0  0  0  0  0  0  0
   18.3130   13.8510   20.5320 C   0  0  0  0  0  0  0  0  0  0  0  0
   17.3500   14.3710   19.6670 C   0  0  0  0  0  0  0  0  0  0  0  0
   16.0270   13.8930   19.7490 C   0  0  0  0  0  0  0  0  0  0  0  0
   14.6980   14.3920   18.7750 S   0  0  0  0  0  0  0  0  0  0  0  0
   12.5380   13.2370   17.2190 H   0  0  0  0  0  0  0  0  0  0  0  0
   10.8740   13.1700   17.6770 H   0  0  0  0  0  0  0  0  0  0  0  0
   11.6460   13.2030   21.1590 H   0  0  0  0  0  0  0  0  0  0  0  0
   10.3290   13.1200   20.0330 H   0  0  0  0  0  0  0  0  0  0  0  0
   13.7277   11.8587   21.1629 H   0  0  0  0  0  0  0  0  0  0  0  0
   18.7416   12.4754   22.1383 H   0  0  0  0  0  0  0  0  0  0  0  0
   19.3494   14.2154   20.4770 H   0  0  0  0  0  0  0  0  0  0  0  0
   17.6196   15.1432   18.9314 H   0  0  0  0  0  0  0  0  0  0  0  0
  1  2  1  0
  2  3  2  0
  2  4  1  0
  4  5  2  0
  5  6  1  0
  6  7  2  0
  7  8  1  0
  7  9  1  0
  9 10  2  0
 10 11  1  0
 11 12  2  0
 12 13  1  0
 13  4  1  0
 12  6  1  0
  1 14  1  0
  1 15  1  0
  3 16  1  0
  3 17  1  0
  5 18  1  0
  9 19  1  0
 10 20  1  0
 11 21  1  0
M  CHG  1   3   1
M  END
>  <meeko>  (8) 
{"is_sidechain": [false], "free_energy": -4.905, "intermolecular_energy": -5.193, "internal_energy": -0.063}

$$$$
