2qbp_ligand
     RDKit          3D

 60 63  0  0  0  0  0  0  0  0999 V2000
   46.6550   17.6210    5.7320 O   0  0  0  0  0  0  0  0  0  0  0  0
   47.6600   17.4370    4.9780 C   0  0  0  0  0  0  0  0  0  0  0  0
   48.7310   18.1190    4.9320 O   0  0  0  0  0  0  0  0  0  0  0  0
   47.6020   16.1970    4.0560 C   0  0  0  0  0  0  0  0  0  0  0  0
   46.3760   15.4470    4.2320 O   0  0  0  0  0  0  0  0  0  0  0  0
   45.7680   15.2090    3.0420 C   0  0  0  0  0  0  0  0  0  0  0  0
   44.9790   16.1180    2.3600 C   0  0  0  0  0  0  0  0  0  0  0  0
   44.6670   17.6290    2.7510 C   0  0  0  0  0  0  0  0  0  0  0  0
   44.7980   18.5320    1.8670 O   0  0  0  0  0  0  0  0  0  0  0  0
   44.2770   17.8330    3.9480 O   0  0  0  0  0  0  0  0  0  0  0  0
   44.3040   15.4060    0.9450 S   0  0  0  0  0  0  0  0  0  0  0  0
   45.1170   13.9200    1.2010 C   0  0  0  0  0  0  0  0  0  0  0  0
   44.8430   12.7850    0.3180 C   0  0  0  0  0  0  0  0  0  0  0  0
   44.6350   11.4950    0.8170 C   0  0  0  0  0  0  0  0  0  0  0  0
   44.4090   10.4350   -0.0590 C   0  0  0  0  0  0  0  0  0  0  0  0
   44.3780   10.6650   -1.4370 C   0  0  0  0  0  0  0  0  0  0  0  0
   44.5370   11.9540   -1.9610 C   0  0  0  0  0  0  0  0  0  0  0  0
   44.5860   12.0930   -3.3650 N   0  0  0  0  0  0  0  0  0  0  0  0
   43.3000   12.3180   -4.0740 C   0  0  0  0  0  0  0  0  0  0  0  0
   42.4340   13.2340   -3.1950 C   0  0  0  0  0  0  0  0  0  0  0  0
   42.7630   14.6980   -3.4440 C   0  0  0  0  0  0  0  0  0  0  0  0
   42.4980   15.0910   -4.8550 N   0  0  0  0  0  0  0  0  0  0  0  0
   41.3510   16.3240   -5.1180 S   0  0  0  0  0  0  0  0  0  0  0  0
   40.9560   16.8290   -3.8190 O   0  0  0  0  0  0  0  0  0  0  0  0
   40.3740   15.8240   -6.0650 O   0  0  0  0  0  0  0  0  0  0  0  0
   42.3730   17.5460   -5.9550 C   0  0  0  0  0  0  0  0  0  0  0  0
   43.4460   18.0360   -5.0160 C   0  0  0  0  0  0  0  0  0  0  0  0
   44.7120   17.4340   -5.0030 C   0  0  0  0  0  0  0  0  0  0  0  0
   45.7030   17.8880   -4.1320 C   0  0  0  0  0  0  0  0  0  0  0  0
   45.4390   18.9450   -3.2630 C   0  0  0  0  0  0  0  0  0  0  0  0
   44.1810   19.5460   -3.2610 C   0  0  0  0  0  0  0  0  0  0  0  0
   43.1890   19.0930   -4.1320 C   0  0  0  0  0  0  0  0  0  0  0  0
   42.4520   13.9530   -5.8170 C   0  0  0  0  0  0  0  0  0  0  0  0
   43.5340   12.9400   -5.4630 C   0  0  0  0  0  0  0  0  0  0  0  0
   44.8080   12.9960   -1.0700 C   0  0  0  0  0  0  0  0  0  0  0  0
   45.9320   14.0000    2.3090 C   0  0  0  0  0  0  0  0  0  0  0  0
   47.1440   12.6410    2.8570 Br  0  0  0  0  0  0  0  0  0  0  0  0
   47.6679   16.5292    3.0094 H   0  0  0  0  0  0  0  0  0  0  0  0
   48.4435   15.5389    4.3183 H   0  0  0  0  0  0  0  0  0  0  0  0
   44.6498   11.3169    1.9024 H   0  0  0  0  0  0  0  0  0  0  0  0
   44.2553    9.4190    0.3336 H   0  0  0  0  0  0  0  0  0  0  0  0
   44.2260    9.8183   -2.1226 H   0  0  0  0  0  0  0  0  0  0  0  0
   45.1930   12.9000   -3.5250 H   0  0  0  0  0  0  0  0  0  0  0  0
   42.7870   11.3593   -4.2403 H   0  0  0  0  0  0  0  0  0  0  0  0
   41.3734   13.0589   -3.4284 H   0  0  0  0  0  0  0  0  0  0  0  0
   42.6393   13.0032   -2.1393 H   0  0  0  0  0  0  0  0  0  0  0  0
   42.1457   15.3199   -2.7791 H   0  0  0  0  0  0  0  0  0  0  0  0
   43.8341   14.8472   -3.2425 H   0  0  0  0  0  0  0  0  0  0  0  0
   42.8411   17.0883   -6.8389 H   0  0  0  0  0  0  0  0  0  0  0  0
   41.7462   18.3940   -6.2681 H   0  0  0  0  0  0  0  0  0  0  0  0
   44.9257   16.5975   -5.6846 H   0  0  0  0  0  0  0  0  0  0  0  0
   46.6941   17.4109   -4.1313 H   0  0  0  0  0  0  0  0  0  0  0  0
   46.2222   19.3047   -2.5795 H   0  0  0  0  0  0  0  0  0  0  0  0
   43.9702   20.3776   -2.5726 H   0  0  0  0  0  0  0  0  0  0  0  0
   42.1975   19.5693   -4.1247 H   0  0  0  0  0  0  0  0  0  0  0  0
   41.4658   13.4687   -5.7642 H   0  0  0  0  0  0  0  0  0  0  0  0
   42.6235   14.3293   -6.8363 H   0  0  0  0  0  0  0  0  0  0  0  0
   43.5327   12.1390   -6.2170 H   0  0  0  0  0  0  0  0  0  0  0  0
   44.5012   13.4637   -5.4455 H   0  0  0  0  0  0  0  0  0  0  0  0
   44.9983   14.0048   -1.4650 H   0  0  0  0  0  0  0  0  0  0  0  0
  1  2  2  0
  2  3  1  0
  2  4  1  0
  4  5  1  0
  5  6  1  0
  6  7  2  0
  7  8  1  0
  8  9  2  0
  8 10  1  0
  7 11  1  0
 11 12  1  0
 12 13  1  0
 13 14  2  0
 14 15  1  0
 15 16  2  0
 16 17  1  0
 17 18  1  0
 18 19  1  0
 19 20  1  0
 20 21  1  0
 21 22  1  0
 22 23  1  0
 23 24  2  0
 23 25  2  0
 23 26  1  0
 26 27  1  0
 27 28  2  0
 28 29  1  0
 29 30  2  0
 30 31  1  0
 31 32  2  0
 22 33  1  0
 33 34  1  0
 17 35  2  0
 12 36  2  0
 36 37  1  0
 36  6  1  0
 35 13  1  0
 34 19  1  0
 32 27  1  0
  4 38  1  0
  4 39  1  0
 14 40  1  0
 15 41  1  0
 16 42  1  0
 18 43  1  0
 19 44  1  0
 20 45  1  0
 20 46  1  0
 21 47  1  0
 21 48  1  0
 26 49  1  0
 26 50  1  0
 28 51  1  0
 29 52  1  0
 30 53  1  0
 31 54  1  0
 32 55  1  0
 33 56  1  0
 33 57  1  0
 34 58  1  0
 34 59  1  0
 35 60  1  0
M  CHG  2   3  -1  10  -1
M  END
>  <meeko>  (1) 
{"is_sidechain": [false], "free_energy": -7.884, "intermolecular_energy": -12.493, "internal_energy": -0.953}

$$$$
2qbp_ligand
     RDKit          3D

 60 63  0  0  0  0  0  0  0  0999 V2000
   46.6630   17.5300    5.7290 O   0  0  0  0  0  0  0  0  0  0  0  0
   47.6070   17.3780    4.8940 C   0  0  0  0  0  0  0  0  0  0  0  0
   48.6410   18.1050    4.7510 O   0  0  0  0  0  0  0  0  0  0  0  0
   47.5260   16.1240    3.9950 C   0  0  0  0  0  0  0  0  0  0  0  0
   46.2650   15.4290    4.1450 O   0  0  0  0  0  0  0  0  0  0  0  0
   45.7300   15.1120    2.9380 C   0  0  0  0  0  0  0  0  0  0  0  0
   44.9950   15.9760    2.1450 C   0  0  0  0  0  0  0  0  0  0  0  0
   44.6770   17.5130    2.4090 C   0  0  0  0  0  0  0  0  0  0  0  0
   44.3810   17.8860    3.5860 O   0  0  0  0  0  0  0  0  0  0  0  0
   44.7630   18.2880    1.3990 O   0  0  0  0  0  0  0  0  0  0  0  0
   44.4020   15.1700    0.7440 S   0  0  0  0  0  0  0  0  0  0  0  0
   45.1810   13.7000    1.1540 C   0  0  0  0  0  0  0  0  0  0  0  0
   44.9510   12.5080    0.3370 C   0  0  0  0  0  0  0  0  0  0  0  0
   44.6190   11.2750    0.9080 C   0  0  0  0  0  0  0  0  0  0  0  0
   44.4390   10.1560    0.0970 C   0  0  0  0  0  0  0  0  0  0  0  0
   44.5780   10.2690   -1.2880 C   0  0  0  0  0  0  0  0  0  0  0  0
   44.8640   11.5020   -1.8890 C   0  0  0  0  0  0  0  0  0  0  0  0
   45.0800   11.5190   -3.2850 N   0  0  0  0  0  0  0  0  0  0  0  0
   43.8820   11.5540   -4.1620 C   0  0  0  0  0  0  0  0  0  0  0  0
   43.9710   10.3590   -5.1240 C   0  0  0  0  0  0  0  0  0  0  0  0
   43.3990    9.1020   -4.4870 C   0  0  0  0  0  0  0  0  0  0  0  0
   41.9590    9.2630   -4.1450 N   0  0  0  0  0  0  0  0  0  0  0  0
   40.8570    8.1990   -4.8910 S   0  0  0  0  0  0  0  0  0  0  0  0
   41.0750    6.8840   -4.3210 O   0  0  0  0  0  0  0  0  0  0  0  0
   40.9220    8.4260   -6.3200 O   0  0  0  0  0  0  0  0  0  0  0  0
   39.2990    8.8670   -4.2840 C   0  0  0  0  0  0  0  0  0  0  0  0
   38.3840    7.7360   -3.8880 C   0  0  0  0  0  0  0  0  0  0  0  0
   38.0770    6.7150   -4.7980 C   0  0  0  0  0  0  0  0  0  0  0  0
   37.2290    5.6700   -4.4300 C   0  0  0  0  0  0  0  0  0  0  0  0
   36.6780    5.6360   -3.1500 C   0  0  0  0  0  0  0  0  0  0  0  0
   36.9700    6.6490   -2.2400 C   0  0  0  0  0  0  0  0  0  0  0  0
   37.8180    7.6950   -2.6060 C   0  0  0  0  0  0  0  0  0  0  0  0
   41.5060   10.6780   -4.0230 C   0  0  0  0  0  0  0  0  0  0  0  0
   42.5860   11.5030   -3.3330 C   0  0  0  0  0  0  0  0  0  0  0  0
   45.0860   12.6030   -1.0580 C   0  0  0  0  0  0  0  0  0  0  0  0
   45.9260   13.8530    2.3030 C   0  0  0  0  0  0  0  0  0  0  0  0
   47.0870   12.5280    3.0200 Br  0  0  0  0  0  0  0  0  0  0  0  0
   47.6389   16.4320    2.9451 H   0  0  0  0  0  0  0  0  0  0  0  0
   48.3303   15.4371    4.2972 H   0  0  0  0  0  0  0  0  0  0  0  0
   44.4999   11.1885    1.9981 H   0  0  0  0  0  0  0  0  0  0  0  0
   44.1876    9.1845    0.5475 H   0  0  0  0  0  0  0  0  0  0  0  0
   44.4610    9.3748   -1.9178 H   0  0  0  0  0  0  0  0  0  0  0  0
   45.6320   12.3640   -3.4510 H   0  0  0  0  0  0  0  0  0  0  0  0
   43.8564   12.4958   -4.7298 H   0  0  0  0  0  0  0  0  0  0  0  0
   43.4031   10.5896   -6.0374 H   0  0  0  0  0  0  0  0  0  0  0  0
   45.0297   10.1799   -5.3629 H   0  0  0  0  0  0  0  0  0  0  0  0
   43.5062    8.2647   -5.1923 H   0  0  0  0  0  0  0  0  0  0  0  0
   43.9523    8.9075   -3.5564 H   0  0  0  0  0  0  0  0  0  0  0  0
   39.4906    9.5062   -3.4095 H   0  0  0  0  0  0  0  0  0  0  0  0
   38.8226    9.4617   -5.0774 H   0  0  0  0  0  0  0  0  0  0  0  0
   38.5079    6.7378   -5.8098 H   0  0  0  0  0  0  0  0  0  0  0  0
   36.9950    4.8724   -5.1504 H   0  0  0  0  0  0  0  0  0  0  0  0
   36.0130    4.8096   -2.8589 H   0  0  0  0  0  0  0  0  0  0  0  0
   36.5316    6.6245   -1.2314 H   0  0  0  0  0  0  0  0  0  0  0  0
   38.0440    8.4931   -1.8835 H   0  0  0  0  0  0  0  0  0  0  0  0
   41.3157   11.0892   -5.0254 H   0  0  0  0  0  0  0  0  0  0  0  0
   40.5816   10.7156   -3.4279 H   0  0  0  0  0  0  0  0  0  0  0  0
   42.2141   12.5283   -3.1899 H   0  0  0  0  0  0  0  0  0  0  0  0
   42.8155   11.0278   -2.3678 H   0  0  0  0  0  0  0  0  0  0  0  0
   45.3729   13.5657   -1.5061 H   0  0  0  0  0  0  0  0  0  0  0  0
  1  2  2  0
  2  3  1  0
  2  4  1  0
  4  5  1  0
  5  6  1  0
  6  7  2  0
  7  8  1  0
  8  9  2  0
  8 10  1  0
  7 11  1  0
 11 12  1  0
 12 13  1  0
 13 14  2  0
 14 15  1  0
 15 16  2  0
 16 17  1  0
 17 18  1  0
 18 19  1  0
 19 20  1  0
 20 21  1  0
 21 22  1  0
 22 23  1  0
 23 24  2  0
 23 25  2  0
 23 26  1  0
 26 27  1  0
 27 28  2  0
 28 29  1  0
 29 30  2  0
 30 31  1  0
 31 32  2  0
 22 33  1  0
 33 34  1  0
 17 35  2  0
 12 36  2  0
 36 37  1  0
 36  6  1  0
 35 13  1  0
 34 19  1  0
 32 27  1  0
  4 38  1  0
  4 39  1  0
 14 40  1  0
 15 41  1  0
 16 42  1  0
 18 43  1  0
 19 44  1  0
 20 45  1  0
 20 46  1  0
 21 47  1  0
 21 48  1  0
 26 49  1  0
 26 50  1  0
 28 51  1  0
 29 52  1  0
 30 53  1  0
 31 54  1  0
 32 55  1  0
 33 56  1  0
 33 57  1  0
 34 58  1  0
 34 59  1  0
 35 60  1  0
M  CHG  2   3  -1  10  -1
M  END
>  <meeko>  (2) 
{"is_sidechain": [false], "free_energy": -7.793, "intermolecular_energy": -12.553, "internal_energy": -0.749}

$$$$
2qbp_ligand
     RDKit          3D

 60 63  0  0  0  0  0  0  0  0999 V2000
   46.7200   17.6190    5.6450 O   0  0  0  0  0  0  0  0  0  0  0  0
   47.7070   17.4000    4.8770 C   0  0  0  0  0  0  0  0  0  0  0  0
   48.7980   18.0490    4.8110 O   0  0  0  0  0  0  0  0  0  0  0  0
   47.5970   16.1570    3.9650 C   0  0  0  0  0  0  0  0  0  0  0  0
   46.3370   15.4650    4.1410 O   0  0  0  0  0  0  0  0  0  0  0  0
   45.7470   15.2040    2.9470 C   0  0  0  0  0  0  0  0  0  0  0  0
   44.9850   16.1060    2.2260 C   0  0  0  0  0  0  0  0  0  0  0  0
   44.6930   17.6320    2.5690 C   0  0  0  0  0  0  0  0  0  0  0  0
   44.7960   18.5010    1.6480 O   0  0  0  0  0  0  0  0  0  0  0  0
   44.3440   17.8830    3.7710 O   0  0  0  0  0  0  0  0  0  0  0  0
   44.3240   15.3670    0.8190 S   0  0  0  0  0  0  0  0  0  0  0  0
   45.1070   13.8750    1.1300 C   0  0  0  0  0  0  0  0  0  0  0  0
   44.8300   12.7210    0.2740 C   0  0  0  0  0  0  0  0  0  0  0  0
   44.5990   11.4470    0.8030 C   0  0  0  0  0  0  0  0  0  0  0  0
   44.3710   10.3670   -0.0480 C   0  0  0  0  0  0  0  0  0  0  0  0
   44.3590   10.5610   -1.4320 C   0  0  0  0  0  0  0  0  0  0  0  0
   44.5410   11.8340   -1.9860 C   0  0  0  0  0  0  0  0  0  0  0  0
   44.6080   11.9360   -3.3930 N   0  0  0  0  0  0  0  0  0  0  0  0
   44.3210   13.2620   -3.9970 C   0  0  0  0  0  0  0  0  0  0  0  0
   42.8970   13.2170   -4.5730 C   0  0  0  0  0  0  0  0  0  0  0  0
   41.8660   13.5440   -3.5030 C   0  0  0  0  0  0  0  0  0  0  0  0
   42.0570   14.9140   -2.9530 N   0  0  0  0  0  0  0  0  0  0  0  0
   40.7680   16.0140   -3.1360 S   0  0  0  0  0  0  0  0  0  0  0  0
   41.2260   17.0700   -4.0160 O   0  0  0  0  0  0  0  0  0  0  0  0
   40.2430   16.3020   -1.8160 O   0  0  0  0  0  0  0  0  0  0  0  0
   39.5780   14.9790   -4.0030 C   0  0  0  0  0  0  0  0  0  0  0  0
   38.3300   14.8380   -3.1700 C   0  0  0  0  0  0  0  0  0  0  0  0
   38.1110   13.6840   -2.4040 C   0  0  0  0  0  0  0  0  0  0  0  0
   36.9540   13.5530   -1.6340 C   0  0  0  0  0  0  0  0  0  0  0  0
   36.0040   14.5720   -1.6240 C   0  0  0  0  0  0  0  0  0  0  0  0
   36.2070   15.7200   -2.3880 C   0  0  0  0  0  0  0  0  0  0  0  0
   37.3630   15.8520   -3.1570 C   0  0  0  0  0  0  0  0  0  0  0  0
   43.4210   15.4800   -3.1600 C   0  0  0  0  0  0  0  0  0  0  0  0
   44.4640   14.3880   -2.9570 C   0  0  0  0  0  0  0  0  0  0  0  0
   44.8130   12.8960   -1.1200 C   0  0  0  0  0  0  0  0  0  0  0  0
   45.9040   13.9720    2.2500 C   0  0  0  0  0  0  0  0  0  0  0  0
   47.0830   12.6090    2.8570 Br  0  0  0  0  0  0  0  0  0  0  0  0
   47.6828   16.4773    2.9162 H   0  0  0  0  0  0  0  0  0  0  0  0
   48.4065   15.4635    4.2366 H   0  0  0  0  0  0  0  0  0  0  0  0
   44.5973   11.2971    1.8927 H   0  0  0  0  0  0  0  0  0  0  0  0
   44.2008    9.3635    0.3690 H   0  0  0  0  0  0  0  0  0  0  0  0
   44.2039    9.6989   -2.0974 H   0  0  0  0  0  0  0  0  0  0  0  0
   45.5670   11.6700   -3.6270 H   0  0  0  0  0  0  0  0  0  0  0  0
   45.0449   13.4776   -4.7966 H   0  0  0  0  0  0  0  0  0  0  0  0
   42.8151   13.9513   -5.3879 H   0  0  0  0  0  0  0  0  0  0  0  0
   42.7026   12.2016   -4.9486 H   0  0  0  0  0  0  0  0  0  0  0  0
   40.8606   13.4741   -3.9438 H   0  0  0  0  0  0  0  0  0  0  0  0
   41.9871   12.8246   -2.6797 H   0  0  0  0  0  0  0  0  0  0  0  0
   39.3239   15.4425   -4.9677 H   0  0  0  0  0  0  0  0  0  0  0  0
   40.0160   13.9850   -4.1764 H   0  0  0  0  0  0  0  0  0  0  0  0
   38.8569   12.8755   -2.4099 H   0  0  0  0  0  0  0  0  0  0  0  0
   36.7923   12.6448   -1.0349 H   0  0  0  0  0  0  0  0  0  0  0  0
   35.0945   14.4707   -1.0137 H   0  0  0  0  0  0  0  0  0  0  0  0
   35.4548   16.5226   -2.3844 H   0  0  0  0  0  0  0  0  0  0  0  0
   37.5170   16.7600   -3.7585 H   0  0  0  0  0  0  0  0  0  0  0  0
   43.5012   15.8772   -4.1827 H   0  0  0  0  0  0  0  0  0  0  0  0
   43.5942   16.2896   -2.4358 H   0  0  0  0  0  0  0  0  0  0  0  0
   45.4665   14.8316   -3.0477 H   0  0  0  0  0  0  0  0  0  0  0  0
   44.3139   13.9526   -1.9581 H   0  0  0  0  0  0  0  0  0  0  0  0
   45.0186   13.8920   -1.5391 H   0  0  0  0  0  0  0  0  0  0  0  0
  1  2  2  0
  2  3  1  0
  2  4  1  0
  4  5  1  0
  5  6  1  0
  6  7  2  0
  7  8  1  0
  8  9  2  0
  8 10  1  0
  7 11  1  0
 11 12  1  0
 12 13  1  0
 13 14  2  0
 14 15  1  0
 15 16  2  0
 16 17  1  0
 17 18  1  0
 18 19  1  0
 19 20  1  0
 20 21  1  0
 21 22  1  0
 22 23  1  0
 23 24  2  0
 23 25  2  0
 23 26  1  0
 26 27  1  0
 27 28  2  0
 28 29  1  0
 29 30  2  0
 30 31  1  0
 31 32  2  0
 22 33  1  0
 33 34  1  0
 17 35  2  0
 12 36  2  0
 36 37  1  0
 36  6  1  0
 35 13  1  0
 34 19  1  0
 32 27  1  0
  4 38  1  0
  4 39  1  0
 14 40  1  0
 15 41  1  0
 16 42  1  0
 18 43  1  0
 19 44  1  0
 20 45  1  0
 20 46  1  0
 21 47  1  0
 21 48  1  0
 26 49  1  0
 26 50  1  0
 28 51  1  0
 29 52  1  0
 30 53  1  0
 31 54  1  0
 32 55  1  0
 33 56  1  0
 33 57  1  0
 34 58  1  0
 34 59  1  0
 35 60  1  0
M  CHG  2   3  -1  10  -1
M  END
>  <meeko>  (3) 
{"is_sidechain": [false], "free_energy": -7.793, "intermolecular_energy": -13.346, "internal_energy": 0.045}

$$$$
2qbp_ligand
     RDKit          3D

 60 63  0  0  0  0  0  0  0  0999 V2000
   46.4020   17.6040    5.6060 O   0  0  0  0  0  0  0  0  0  0  0  0
   47.4660   17.4070    4.9430 C   0  0  0  0  0  0  0  0  0  0  0  0
   48.5840   17.9980    5.0750 O   0  0  0  0  0  0  0  0  0  0  0  0
   47.4170   16.2670    3.9000 C   0  0  0  0  0  0  0  0  0  0  0  0
   46.2460   15.4320    4.0630 O   0  0  0  0  0  0  0  0  0  0  0  0
   45.7040   15.1030    2.8630 C   0  0  0  0  0  0  0  0  0  0  0  0
   44.9550   15.9550    2.0710 C   0  0  0  0  0  0  0  0  0  0  0  0
   44.6250   17.4900    2.3270 C   0  0  0  0  0  0  0  0  0  0  0  0
   44.2290   17.8500    3.4790 O   0  0  0  0  0  0  0  0  0  0  0  0
   44.8040   18.2780    1.3400 O   0  0  0  0  0  0  0  0  0  0  0  0
   44.3580   15.1350    0.6790 S   0  0  0  0  0  0  0  0  0  0  0  0
   45.1530   13.6740    1.0930 C   0  0  0  0  0  0  0  0  0  0  0  0
   44.9270   12.4750    0.2860 C   0  0  0  0  0  0  0  0  0  0  0  0
   44.5820   11.2500    0.8650 C   0  0  0  0  0  0  0  0  0  0  0  0
   44.4060   10.1230    0.0640 C   0  0  0  0  0  0  0  0  0  0  0  0
   44.5620   10.2210   -1.3210 C   0  0  0  0  0  0  0  0  0  0  0  0
   44.8610   11.4450   -1.9310 C   0  0  0  0  0  0  0  0  0  0  0  0
   45.0940   11.4480   -3.3240 N   0  0  0  0  0  0  0  0  0  0  0  0
   44.1110   12.1580   -4.1800 C   0  0  0  0  0  0  0  0  0  0  0  0
   43.2090   11.1000   -4.8360 C   0  0  0  0  0  0  0  0  0  0  0  0
   42.0550   10.7250   -3.9190 C   0  0  0  0  0  0  0  0  0  0  0  0
   41.1850   11.8950   -3.6190 N   0  0  0  0  0  0  0  0  0  0  0  0
   39.5500   11.7920   -4.0900 S   0  0  0  0  0  0  0  0  0  0  0  0
   38.7930   11.3730   -2.9280 O   0  0  0  0  0  0  0  0  0  0  0  0
   39.4950   11.0550   -5.3370 O   0  0  0  0  0  0  0  0  0  0  0  0
   39.2040   13.5230   -4.4420 C   0  0  0  0  0  0  0  0  0  0  0  0
   38.2580   14.0710   -3.4040 C   0  0  0  0  0  0  0  0  0  0  0  0
   36.8720   14.0350   -3.6120 C   0  0  0  0  0  0  0  0  0  0  0  0
   35.9990   14.5440   -2.6500 C   0  0  0  0  0  0  0  0  0  0  0  0
   36.5000   15.0960   -1.4730 C   0  0  0  0  0  0  0  0  0  0  0  0
   37.8760   15.1440   -1.2590 C   0  0  0  0  0  0  0  0  0  0  0  0
   38.7520   14.6350   -2.2200 C   0  0  0  0  0  0  0  0  0  0  0  0
   41.8340   13.2200   -3.8310 C   0  0  0  0  0  0  0  0  0  0  0  0
   43.2810   13.1620   -3.3590 C   0  0  0  0  0  0  0  0  0  0  0  0
   45.0780   12.5540   -1.1090 C   0  0  0  0  0  0  0  0  0  0  0  0
   45.9060   13.8410    2.2350 C   0  0  0  0  0  0  0  0  0  0  0  0
   47.0840   12.5320    2.9510 Br  0  0  0  0  0  0  0  0  0  0  0  0
   47.4010   16.7081    2.8924 H   0  0  0  0  0  0  0  0  0  0  0  0
   48.3065   15.6362    4.0445 H   0  0  0  0  0  0  0  0  0  0  0  0
   44.4493   11.1756    1.9544 H   0  0  0  0  0  0  0  0  0  0  0  0
   44.1446    9.1575    0.5217 H   0  0  0  0  0  0  0  0  0  0  0  0
   44.4479    9.3208   -1.9428 H   0  0  0  0  0  0  0  0  0  0  0  0
   46.0070   11.8960   -3.4330 H   0  0  0  0  0  0  0  0  0  0  0  0
   44.6351   12.7398   -4.9525 H   0  0  0  0  0  0  0  0  0  0  0  0
   42.8051   11.5042   -5.7760 H   0  0  0  0  0  0  0  0  0  0  0  0
   43.8093   10.1991   -5.0310 H   0  0  0  0  0  0  0  0  0  0  0  0
   41.4499    9.9473   -4.4079 H   0  0  0  0  0  0  0  0  0  0  0  0
   42.4763   10.3600   -2.9707 H   0  0  0  0  0  0  0  0  0  0  0  0
   40.1429   14.0957   -4.4203 H   0  0  0  0  0  0  0  0  0  0  0  0
   38.7434   13.6083   -5.4373 H   0  0  0  0  0  0  0  0  0  0  0  0
   36.4700   13.6025   -4.5401 H   0  0  0  0  0  0  0  0  0  0  0  0
   34.9130   14.5094   -2.8212 H   0  0  0  0  0  0  0  0  0  0  0  0
   35.8103   15.4933   -0.7138 H   0  0  0  0  0  0  0  0  0  0  0  0
   38.2727   15.5834   -0.3319 H   0  0  0  0  0  0  0  0  0  0  0  0
   39.8374   14.6770   -2.0465 H   0  0  0  0  0  0  0  0  0  0  0  0
   41.8079   13.4733   -4.9011 H   0  0  0  0  0  0  0  0  0  0  0  0
   41.2933   13.9873   -3.2575 H   0  0  0  0  0  0  0  0  0  0  0  0
   43.7290   14.1615   -3.4608 H   0  0  0  0  0  0  0  0  0  0  0  0
   43.2852   12.8316   -2.3098 H   0  0  0  0  0  0  0  0  0  0  0  0
   45.3738   13.5107   -1.5642 H   0  0  0  0  0  0  0  0  0  0  0  0
  1  2  2  0
  2  3  1  0
  2  4  1  0
  4  5  1  0
  5  6  1  0
  6  7  2  0
  7  8  1  0
  8  9  2  0
  8 10  1  0
  7 11  1  0
 11 12  1  0
 12 13  1  0
 13 14  2  0
 14 15  1  0
 15 16  2  0
 16 17  1  0
 17 18  1  0
 18 19  1  0
 19 20  1  0
 20 21  1  0
 21 22  1  0
 22 23  1  0
 23 24  2  0
 23 25  2  0
 23 26  1  0
 26 27  1  0
 27 28  2  0
 28 29  1  0
 29 30  2  0
 30 31  1  0
 31 32  2  0
 22 33  1  0
 33 34  1  0
 17 35  2  0
 12 36  2  0
 36 37  1  0
 36  6  1  0
 35 13  1  0
 34 19  1  0
 32 27  1  0
  4 38  1  0
  4 39  1  0
 14 40  1  0
 15 41  1  0
 16 42  1  0
 18 43  1  0
 19 44  1  0
 20 45  1  0
 20 46  1  0
 21 47  1  0
 21 48  1  0
 26 49  1  0
 26 50  1  0
 28 51  1  0
 29 52  1  0
 30 53  1  0
 31 54  1  0
 32 55  1  0
 33 56  1  0
 33 57  1  0
 34 58  1  0
 34 59  1  0
 35 60  1  0
M  CHG  2   3  -1  10  -1
M  END
>  <meeko>  (4) 
{"is_sidechain": [false], "free_energy": -7.771, "intermolecular_energy": -12.373, "internal_energy": -0.894}

$$$$
2qbp_ligand
     RDKit          3D

 60 63  0  0  0  0  0  0  0  0999 V2000
   52.3150    9.0470    4.6440 O   0  0  0  0  0  0  0  0  0  0  0  0
   51.9660    7.8490    4.4140 C   0  0  0  0  0  0  0  0  0  0  0  0
   52.3170    6.8030    5.0450 O   0  0  0  0  0  0  0  0  0  0  0  0
   50.9370    7.6450    3.2770 C   0  0  0  0  0  0  0  0  0  0  0  0
   51.0440    8.6690    2.2590 O   0  0  0  0  0  0  0  0  0  0  0  0
   50.2280    8.4050    1.2080 C   0  0  0  0  0  0  0  0  0  0  0  0
   50.5230    7.5330    0.1750 C   0  0  0  0  0  0  0  0  0  0  0  0
   51.8060    6.6050    0.0170 C   0  0  0  0  0  0  0  0  0  0  0  0
   52.7220    6.9540   -0.7910 O   0  0  0  0  0  0  0  0  0  0  0  0
   51.8380    5.5580    0.7450 O   0  0  0  0  0  0  0  0  0  0  0  0
   49.2840    7.5520   -1.0200 S   0  0  0  0  0  0  0  0  0  0  0  0
   48.3260    8.6610   -0.1320 C   0  0  0  0  0  0  0  0  0  0  0  0
   47.0960    9.1890   -0.7240 C   0  0  0  0  0  0  0  0  0  0  0  0
   46.0370    8.3550   -1.0930 C   0  0  0  0  0  0  0  0  0  0  0  0
   44.8950    8.8940   -1.6840 C   0  0  0  0  0  0  0  0  0  0  0  0
   44.8040   10.2720   -1.8940 C   0  0  0  0  0  0  0  0  0  0  0  0
   45.8310   11.1360   -1.4920 C   0  0  0  0  0  0  0  0  0  0  0  0
   45.7080   12.5030   -1.8220 N   0  0  0  0  0  0  0  0  0  0  0  0
   44.4740   13.2040   -1.3830 C   0  0  0  0  0  0  0  0  0  0  0  0
   44.4270   13.1530    0.1530 C   0  0  0  0  0  0  0  0  0  0  0  0
   45.2250   14.2960    0.7610 C   0  0  0  0  0  0  0  0  0  0  0  0
   44.6780   15.6230    0.3640 N   0  0  0  0  0  0  0  0  0  0  0  0
   44.1320   16.6460    1.6130 S   0  0  0  0  0  0  0  0  0  0  0  0
   42.6830   16.6550    1.5600 O   0  0  0  0  0  0  0  0  0  0  0  0
   44.9000   17.8720    1.5480 O   0  0  0  0  0  0  0  0  0  0  0  0
   44.6750   15.7160    3.0560 C   0  0  0  0  0  0  0  0  0  0  0  0
   45.9120   16.3560    3.6330 C   0  0  0  0  0  0  0  0  0  0  0  0
   45.8170   17.2400    4.7170 C   0  0  0  0  0  0  0  0  0  0  0  0
   46.9620   17.8330    5.2500 C   0  0  0  0  0  0  0  0  0  0  0  0
   48.2130   17.5510    4.7040 C   0  0  0  0  0  0  0  0  0  0  0  0
   48.3180   16.6800    3.6220 C   0  0  0  0  0  0  0  0  0  0  0  0
   47.1740   16.0860    3.0880 C   0  0  0  0  0  0  0  0  0  0  0  0
   43.8360   15.6030   -0.8660 C   0  0  0  0  0  0  0  0  0  0  0  0
   44.4500   14.6570   -1.8900 C   0  0  0  0  0  0  0  0  0  0  0  0
   46.9860   10.5730   -0.9440 C   0  0  0  0  0  0  0  0  0  0  0  0
   48.9200    8.9520    1.0770 C   0  0  0  0  0  0  0  0  0  0  0  0
   48.1200   10.0010    2.4470 Br  0  0  0  0  0  0  0  0  0  0  0  0
   51.1107    6.6630    2.8127 H   0  0  0  0  0  0  0  0  0  0  0  0
   49.9298    7.7052    3.7152 H   0  0  0  0  0  0  0  0  0  0  0  0
   46.1046    7.2713   -0.9168 H   0  0  0  0  0  0  0  0  0  0  0  0
   44.0670    8.2351   -1.9844 H   0  0  0  0  0  0  0  0  0  0  0  0
   43.9102   10.6861   -2.3836 H   0  0  0  0  0  0  0  0  0  0  0  0
   46.5130   12.9500   -1.3780 H   0  0  0  0  0  0  0  0  0  0  0  0
   43.5877   12.7080   -1.8056 H   0  0  0  0  0  0  0  0  0  0  0  0
   43.3806   13.2291    0.4836 H   0  0  0  0  0  0  0  0  0  0  0  0
   44.8681   12.2018    0.4857 H   0  0  0  0  0  0  0  0  0  0  0  0
   45.1917   14.2103    1.8572 H   0  0  0  0  0  0  0  0  0  0  0  0
   46.2586   14.2270    0.3910 H   0  0  0  0  0  0  0  0  0  0  0  0
   43.8765   15.7146    3.8126 H   0  0  0  0  0  0  0  0  0  0  0  0
   44.9028   14.6814    2.7598 H   0  0  0  0  0  0  0  0  0  0  0  0
   44.8321   17.4679    5.1507 H   0  0  0  0  0  0  0  0  0  0  0  0
   46.8773   18.5237    6.1019 H   0  0  0  0  0  0  0  0  0  0  0  0
   49.1160   18.0155    5.1269 H   0  0  0  0  0  0  0  0  0  0  0  0
   49.3045   16.4601    3.1878 H   0  0  0  0  0  0  0  0  0  0  0  0
   47.2637   15.4004    2.2325 H   0  0  0  0  0  0  0  0  0  0  0  0
   42.8230   15.2587   -0.6107 H   0  0  0  0  0  0  0  0  0  0  0  0
   43.7843   16.6167   -1.2899 H   0  0  0  0  0  0  0  0  0  0  0  0
   43.8578   14.7014   -2.8159 H   0  0  0  0  0  0  0  0  0  0  0  0
   45.4880   14.9739   -2.0693 H   0  0  0  0  0  0  0  0  0  0  0  0
   47.8290   11.2279   -0.6785 H   0  0  0  0  0  0  0  0  0  0  0  0
  1  2  2  0
  2  3  1  0
  2  4  1  0
  4  5  1  0
  5  6  1  0
  6  7  2  0
  7  8  1  0
  8  9  2  0
  8 10  1  0
  7 11  1  0
 11 12  1  0
 12 13  1  0
 13 14  2  0
 14 15  1  0
 15 16  2  0
 16 17  1  0
 17 18  1  0
 18 19  1  0
 19 20  1  0
 20 21  1  0
 21 22  1  0
 22 23  1  0
 23 24  2  0
 23 25  2  0
 23 26  1  0
 26 27  1  0
 27 28  2  0
 28 29  1  0
 29 30  2  0
 30 31  1  0
 31 32  2  0
 22 33  1  0
 33 34  1  0
 17 35  2  0
 12 36  2  0
 36 37  1  0
 36  6  1  0
 35 13  1  0
 34 19  1  0
 32 27  1  0
  4 38  1  0
  4 39  1  0
 14 40  1  0
 15 41  1  0
 16 42  1  0
 18 43  1  0
 19 44  1  0
 20 45  1  0
 20 46  1  0
 21 47  1  0
 21 48  1  0
 26 49  1  0
 26 50  1  0
 28 51  1  0
 29 52  1  0
 30 53  1  0
 31 54  1  0
 32 55  1  0
 33 56  1  0
 33 57  1  0
 34 58  1  0
 34 59  1  0
 35 60  1  0
M  CHG  2   3  -1  10  -1
M  END
>  <meeko>  (5) 
{"is_sidechain": [false], "free_energy": -7.743, "intermolecular_energy": -12.042, "internal_energy": -1.18}

$$$$
2qbp_ligand
     RDKit          3D

 60 63  0  0  0  0  0  0  0  0999 V2000
   46.5340   17.6650    5.6340 O   0  0  0  0  0  0  0  0  0  0  0  0
   47.5640   17.4600    4.9210 C   0  0  0  0  0  0  0  0  0  0  0  0
   48.6580   18.1070    4.9330 O   0  0  0  0  0  0  0  0  0  0  0  0
   47.5070   16.2360    3.9780 C   0  0  0  0  0  0  0  0  0  0  0  0
   46.2750   15.4920    4.1290 O   0  0  0  0  0  0  0  0  0  0  0  0
   45.7690   15.1250    2.9240 C   0  0  0  0  0  0  0  0  0  0  0  0
   45.0270   15.9450    2.0930 C   0  0  0  0  0  0  0  0  0  0  0  0
   44.6640   17.4800    2.3050 C   0  0  0  0  0  0  0  0  0  0  0  0
   44.3090   17.8750    3.4580 O   0  0  0  0  0  0  0  0  0  0  0  0
   44.7790   18.2330    1.2810 O   0  0  0  0  0  0  0  0  0  0  0  0
   44.4790   15.0830    0.7070 S   0  0  0  0  0  0  0  0  0  0  0  0
   45.2880   13.6470    1.1750 C   0  0  0  0  0  0  0  0  0  0  0  0
   45.1020   12.4250    0.3910 C   0  0  0  0  0  0  0  0  0  0  0  0
   44.5330   11.2730    0.9420 C   0  0  0  0  0  0  0  0  0  0  0  0
   44.4030   10.1200    0.1710 C   0  0  0  0  0  0  0  0  0  0  0  0
   44.8300   10.1190   -1.1590 C   0  0  0  0  0  0  0  0  0  0  0  0
   45.3610   11.2720   -1.7500 C   0  0  0  0  0  0  0  0  0  0  0  0
   45.8550   11.1690   -3.0690 N   0  0  0  0  0  0  0  0  0  0  0  0
   46.9190   10.1640   -3.3230 C   0  0  0  0  0  0  0  0  0  0  0  0
   48.2760   10.8620   -3.1400 C   0  0  0  0  0  0  0  0  0  0  0  0
   48.6990   10.8570   -1.6780 C   0  0  0  0  0  0  0  0  0  0  0  0
   48.8610    9.4720   -1.1560 N   0  0  0  0  0  0  0  0  0  0  0  0
   50.4030    9.0320   -0.5810 S   0  0  0  0  0  0  0  0  0  0  0  0
   50.7190    9.9130    0.5250 O   0  0  0  0  0  0  0  0  0  0  0  0
   51.2830    8.9080   -1.7270 O   0  0  0  0  0  0  0  0  0  0  0  0
   50.0570    7.3800    0.0440 C   0  0  0  0  0  0  0  0  0  0  0  0
   49.6190    7.4660    1.4840 C   0  0  0  0  0  0  0  0  0  0  0  0
   50.5430    7.2880    2.5230 C   0  0  0  0  0  0  0  0  0  0  0  0
   50.1360    7.3670    3.8550 C   0  0  0  0  0  0  0  0  0  0  0  0
   48.8010    7.6210    4.1620 C   0  0  0  0  0  0  0  0  0  0  0  0
   47.8710    7.7920    3.1380 C   0  0  0  0  0  0  0  0  0  0  0  0
   48.2780    7.7140    1.8060 C   0  0  0  0  0  0  0  0  0  0  0  0
   48.1420    8.4270   -1.9380 C   0  0  0  0  0  0  0  0  0  0  0  0
   46.7830    8.9590   -2.3760 C   0  0  0  0  0  0  0  0  0  0  0  0
   45.5250   12.4060   -0.9490 C   0  0  0  0  0  0  0  0  0  0  0  0
   46.0090   13.8530    2.3310 C   0  0  0  0  0  0  0  0  0  0  0  0
   47.1900   12.5810    3.1070 Br  0  0  0  0  0  0  0  0  0  0  0  0
   47.5858   16.5851    2.9379 H   0  0  0  0  0  0  0  0  0  0  0  0
   48.3413   15.5679    4.2378 H   0  0  0  0  0  0  0  0  0  0  0  0
   44.1873   11.2770    1.9863 H   0  0  0  0  0  0  0  0  0  0  0  0
   43.9645    9.2113    0.6091 H   0  0  0  0  0  0  0  0  0  0  0  0
   44.7477    9.1964   -1.7524 H   0  0  0  0  0  0  0  0  0  0  0  0
   45.0380   10.9300   -3.6350 H   0  0  0  0  0  0  0  0  0  0  0  0
   46.8305    9.7711   -4.3466 H   0  0  0  0  0  0  0  0  0  0  0  0
   49.0352   10.3344   -3.7360 H   0  0  0  0  0  0  0  0  0  0  0  0
   48.1811   11.9058   -3.4739 H   0  0  0  0  0  0  0  0  0  0  0  0
   49.6574   11.3883   -1.5824 H   0  0  0  0  0  0  0  0  0  0  0  0
   47.9122   11.3544   -1.0918 H   0  0  0  0  0  0  0  0  0  0  0  0
   49.2565    6.9219   -0.5555 H   0  0  0  0  0  0  0  0  0  0  0  0
   50.9665    6.7651   -0.0253 H   0  0  0  0  0  0  0  0  0  0  0  0
   51.5977    7.0843    2.2861 H   0  0  0  0  0  0  0  0  0  0  0  0
   50.8693    7.2287    4.6631 H   0  0  0  0  0  0  0  0  0  0  0  0
   48.4810    7.6866    5.2124 H   0  0  0  0  0  0  0  0  0  0  0  0
   46.8161    7.9885    3.3802 H   0  0  0  0  0  0  0  0  0  0  0  0
   47.5399    7.8483    1.0015 H   0  0  0  0  0  0  0  0  0  0  0  0
   48.7347    8.1621   -2.8260 H   0  0  0  0  0  0  0  0  0  0  0  0
   47.9994    7.5351   -1.3101 H   0  0  0  0  0  0  0  0  0  0  0  0
   46.2376    8.1575   -2.8958 H   0  0  0  0  0  0  0  0  0  0  0  0
   46.2398    9.2893   -1.4783 H   0  0  0  0  0  0  0  0  0  0  0  0
   45.9956   13.3033   -1.3771 H   0  0  0  0  0  0  0  0  0  0  0  0
  1  2  2  0
  2  3  1  0
  2  4  1  0
  4  5  1  0
  5  6  1  0
  6  7  2  0
  7  8  1  0
  8  9  2  0
  8 10  1  0
  7 11  1  0
 11 12  1  0
 12 13  1  0
 13 14  2  0
 14 15  1  0
 15 16  2  0
 16 17  1  0
 17 18  1  0
 18 19  1  0
 19 20  1  0
 20 21  1  0
 21 22  1  0
 22 23  1  0
 23 24  2  0
 23 25  2  0
 23 26  1  0
 26 27  1  0
 27 28  2  0
 28 29  1  0
 29 30  2  0
 30 31  1  0
 31 32  2  0
 22 33  1  0
 33 34  1  0
 17 35  2  0
 12 36  2  0
 36 37  1  0
 36  6  1  0
 35 13  1  0
 34 19  1  0
 32 27  1  0
  4 38  1  0
  4 39  1  0
 14 40  1  0
 15 41  1  0
 16 42  1  0
 18 43  1  0
 19 44  1  0
 20 45  1  0
 20 46  1  0
 21 47  1  0
 21 48  1  0
 26 49  1  0
 26 50  1  0
 28 51  1  0
 29 52  1  0
 30 53  1  0
 31 54  1  0
 32 55  1  0
 33 56  1  0
 33 57  1  0
 34 58  1  0
 34 59  1  0
 35 60  1  0
M  CHG  2   3  -1  10  -1
M  END
>  <meeko>  (6) 
{"is_sidechain": [false], "free_energy": -7.649, "intermolecular_energy": -12.439, "internal_energy": -0.635}

$$$$
2qbp_ligand
     RDKit          3D

 60 63  0  0  0  0  0  0  0  0999 V2000
   39.2290   15.4410   -1.8120 O   0  0  0  0  0  0  0  0  0  0  0  0
   38.1530   15.0270   -1.2810 C   0  0  0  0  0  0  0  0  0  0  0  0
   37.3580   15.6750   -0.5300 O   0  0  0  0  0  0  0  0  0  0  0  0
   37.7240   13.5880   -1.6480 C   0  0  0  0  0  0  0  0  0  0  0  0
   37.8840   13.3170   -3.0610 O   0  0  0  0  0  0  0  0  0  0  0  0
   38.0910   11.9950   -3.2890 C   0  0  0  0  0  0  0  0  0  0  0  0
   37.1020   11.0280   -3.2960 C   0  0  0  0  0  0  0  0  0  0  0  0
   35.5340   11.2320   -3.1210 C   0  0  0  0  0  0  0  0  0  0  0  0
   34.8250   11.4600   -4.1500 O   0  0  0  0  0  0  0  0  0  0  0  0
   35.0810   11.1290   -1.9320 O   0  0  0  0  0  0  0  0  0  0  0  0
   37.7780    9.4590   -3.5170 S   0  0  0  0  0  0  0  0  0  0  0  0
   39.3690   10.0730   -3.6760 C   0  0  0  0  0  0  0  0  0  0  0  0
   40.4940    9.1440   -3.7870 C   0  0  0  0  0  0  0  0  0  0  0  0
   40.5630    8.1870   -4.8040 C   0  0  0  0  0  0  0  0  0  0  0  0
   41.6360    7.2980   -4.8570 C   0  0  0  0  0  0  0  0  0  0  0  0
   42.6510    7.3750   -3.8990 C   0  0  0  0  0  0  0  0  0  0  0  0
   42.6310    8.3530   -2.8980 C   0  0  0  0  0  0  0  0  0  0  0  0
   43.6410    8.3090   -1.9130 N   0  0  0  0  0  0  0  0  0  0  0  0
   44.7850    9.2450   -2.0640 C   0  0  0  0  0  0  0  0  0  0  0  0
   44.4580   10.5180   -1.2680 C   0  0  0  0  0  0  0  0  0  0  0  0
   44.8510   10.3630    0.1930 C   0  0  0  0  0  0  0  0  0  0  0  0
   46.3130   10.1310    0.3490 N   0  0  0  0  0  0  0  0  0  0  0  0
   47.1920   11.2750    1.2560 S   0  0  0  0  0  0  0  0  0  0  0  0
   47.4930   12.3840    0.3730 O   0  0  0  0  0  0  0  0  0  0  0  0
   48.2370   10.5670    1.9670 O   0  0  0  0  0  0  0  0  0  0  0  0
   45.9390   11.7770    2.4470 C   0  0  0  0  0  0  0  0  0  0  0  0
   45.7970   13.2780    2.4290 C   0  0  0  0  0  0  0  0  0  0  0  0
   46.6680   14.0860    3.1740 C   0  0  0  0  0  0  0  0  0  0  0  0
   46.5340   15.4750    3.1570 C   0  0  0  0  0  0  0  0  0  0  0  0
   45.5280   16.0700    2.3990 C   0  0  0  0  0  0  0  0  0  0  0  0
   44.6510   15.2770    1.6610 C   0  0  0  0  0  0  0  0  0  0  0  0
   44.7840   13.8880    1.6760 C   0  0  0  0  0  0  0  0  0  0  0  0
   46.9930    9.6190   -0.8740 C   0  0  0  0  0  0  0  0  0  0  0  0
   46.0950    8.6050   -1.5720 C   0  0  0  0  0  0  0  0  0  0  0  0
   41.5250    9.2050   -2.8340 C   0  0  0  0  0  0  0  0  0  0  0  0
   39.3630   11.4500   -3.6250 C   0  0  0  0  0  0  0  0  0  0  0  0
   40.8850   12.5480   -3.9320 Br  0  0  0  0  0  0  0  0  0  0  0  0
   38.3409   12.8775   -1.0783 H   0  0  0  0  0  0  0  0  0  0  0  0
   36.6580   13.4781   -1.4000 H   0  0  0  0  0  0  0  0  0  0  0  0
   39.7693    8.1353   -5.5638 H   0  0  0  0  0  0  0  0  0  0  0  0
   41.6836    6.5380   -5.6508 H   0  0  0  0  0  0  0  0  0  0  0  0
   43.4808    6.6536   -3.9325 H   0  0  0  0  0  0  0  0  0  0  0  0
   43.1590    8.5210   -1.0370 H   0  0  0  0  0  0  0  0  0  0  0  0
   44.9336    9.4908   -3.1259 H   0  0  0  0  0  0  0  0  0  0  0  0
   45.0102   11.3650   -1.7012 H   0  0  0  0  0  0  0  0  0  0  0  0
   43.3740   10.6967   -1.3224 H   0  0  0  0  0  0  0  0  0  0  0  0
   44.5758   11.2797    0.7352 H   0  0  0  0  0  0  0  0  0  0  0  0
   44.3202    9.4896    0.5997 H   0  0  0  0  0  0  0  0  0  0  0  0
   44.9764   11.3150    2.1825 H   0  0  0  0  0  0  0  0  0  0  0  0
   46.2398   11.4504    3.4534 H   0  0  0  0  0  0  0  0  0  0  0  0
   47.4627   13.6215    3.7762 H   0  0  0  0  0  0  0  0  0  0  0  0
   47.2235   16.1007    3.7428 H   0  0  0  0  0  0  0  0  0  0  0  0
   45.4258   17.1651    2.3829 H   0  0  0  0  0  0  0  0  0  0  0  0
   43.8535   15.7464    1.0663 H   0  0  0  0  0  0  0  0  0  0  0  0
   44.0886   13.2669    1.0924 H   0  0  0  0  0  0  0  0  0  0  0  0
   47.1984   10.4569   -1.5565 H   0  0  0  0  0  0  0  0  0  0  0  0
   47.9389    9.1346   -0.5901 H   0  0  0  0  0  0  0  0  0  0  0  0
   46.6335    8.1875   -2.4355 H   0  0  0  0  0  0  0  0  0  0  0  0
   45.8398    7.8181   -0.8469 H   0  0  0  0  0  0  0  0  0  0  0  0
   41.4600    9.9405   -2.0186 H   0  0  0  0  0  0  0  0  0  0  0  0
  1  2  2  0
  2  3  1  0
  2  4  1  0
  4  5  1  0
  5  6  1  0
  6  7  2  0
  7  8  1  0
  8  9  2  0
  8 10  1  0
  7 11  1  0
 11 12  1  0
 12 13  1  0
 13 14  2  0
 14 15  1  0
 15 16  2  0
 16 17  1  0
 17 18  1  0
 18 19  1  0
 19 20  1  0
 20 21  1  0
 21 22  1  0
 22 23  1  0
 23 24  2  0
 23 25  2  0
 23 26  1  0
 26 27  1  0
 27 28  2  0
 28 29  1  0
 29 30  2  0
 30 31  1  0
 31 32  2  0
 22 33  1  0
 33 34  1  0
 17 35  2  0
 12 36  2  0
 36 37  1  0
 36  6  1  0
 35 13  1  0
 34 19  1  0
 32 27  1  0
  4 38  1  0
  4 39  1  0
 14 40  1  0
 15 41  1  0
 16 42  1  0
 18 43  1  0
 19 44  1  0
 20 45  1  0
 20 46  1  0
 21 47  1  0
 21 48  1  0
 26 49  1  0
 26 50  1  0
 28 51  1  0
 29 52  1  0
 30 53  1  0
 31 54  1  0
 32 55  1  0
 33 56  1  0
 33 57  1  0
 34 58  1  0
 34 59  1  0
 35 60  1  0
M  CHG  2   3  -1  10  -1
M  END
>  <meeko>  (7) 
{"is_sidechain": [false], "free_energy": -7.63, "intermolecular_energy": -11.643, "internal_energy": -1.401}

$$$$
2qbp_ligand
     RDKit          3D

 60 63  0  0  0  0  0  0  0  0999 V2000
   48.1430   17.9060    5.0160 O   0  0  0  0  0  0  0  0  0  0  0  0
   47.0070   17.4150    4.7320 C   0  0  0  0  0  0  0  0  0  0  0  0
   45.8630   17.8730    5.0450 O   0  0  0  0  0  0  0  0  0  0  0  0
   47.0160   16.1510    3.8420 C   0  0  0  0  0  0  0  0  0  0  0  0
   45.7380   15.4710    3.8530 O   0  0  0  0  0  0  0  0  0  0  0  0
   45.4320   14.9750    2.6280 C   0  0  0  0  0  0  0  0  0  0  0  0
   44.7130   15.6490    1.6570 C   0  0  0  0  0  0  0  0  0  0  0  0
   44.1580   17.1400    1.7100 C   0  0  0  0  0  0  0  0  0  0  0  0
   44.9810   18.0980    1.8390 O   0  0  0  0  0  0  0  0  0  0  0  0
   42.8940   17.2750    1.5950 O   0  0  0  0  0  0  0  0  0  0  0  0
   44.4440   14.6470    0.2830 S   0  0  0  0  0  0  0  0  0  0  0  0
   45.3430   13.3480    0.9480 C   0  0  0  0  0  0  0  0  0  0  0  0
   45.3950   12.0680    0.2400 C   0  0  0  0  0  0  0  0  0  0  0  0
   44.5280   11.0170    0.5510 C   0  0  0  0  0  0  0  0  0  0  0  0
   44.6310    9.8020   -0.1250 C   0  0  0  0  0  0  0  0  0  0  0  0
   45.5940    9.6410   -1.1250 C   0  0  0  0  0  0  0  0  0  0  0  0
   46.4440   10.6930   -1.4890 C   0  0  0  0  0  0  0  0  0  0  0  0
   47.4520   10.4260   -2.4410 N   0  0  0  0  0  0  0  0  0  0  0  0
   48.6290    9.6420   -1.9900 C   0  0  0  0  0  0  0  0  0  0  0  0
   49.6870    9.7010   -3.1030 C   0  0  0  0  0  0  0  0  0  0  0  0
   50.5420   10.9530   -2.9770 C   0  0  0  0  0  0  0  0  0  0  0  0
   51.2840   10.9860   -1.6860 N   0  0  0  0  0  0  0  0  0  0  0  0
   52.9860   11.0240   -1.7660 S   0  0  0  0  0  0  0  0  0  0  0  0
   53.4260    9.7130   -2.2010 O   0  0  0  0  0  0  0  0  0  0  0  0
   53.4730   11.6180   -0.5370 O   0  0  0  0  0  0  0  0  0  0  0  0
   53.2220   12.2110   -3.0980 C   0  0  0  0  0  0  0  0  0  0  0  0
   53.4990   13.5750   -2.5170 C   0  0  0  0  0  0  0  0  0  0  0  0
   54.8170   14.0200   -2.3400 C   0  0  0  0  0  0  0  0  0  0  0  0
   55.0710   15.2820   -1.8010 C   0  0  0  0  0  0  0  0  0  0  0  0
   54.0120   16.1090   -1.4310 C   0  0  0  0  0  0  0  0  0  0  0  0
   52.6990   15.6740   -1.5960 C   0  0  0  0  0  0  0  0  0  0  0  0
   52.4430   14.4130   -2.1350 C   0  0  0  0  0  0  0  0  0  0  0  0
   50.7090   10.1190   -0.6190 C   0  0  0  0  0  0  0  0  0  0  0  0
   49.1880   10.1920   -0.6650 C   0  0  0  0  0  0  0  0  0  0  0  0
   46.3570   11.8880   -0.7690 C   0  0  0  0  0  0  0  0  0  0  0  0
   45.8850   13.7080    2.1620 C   0  0  0  0  0  0  0  0  0  0  0  0
   47.0940   12.6350    3.1640 Br  0  0  0  0  0  0  0  0  0  0  0  0
   47.2526   16.4457    2.8090 H   0  0  0  0  0  0  0  0  0  0  0  0
   47.7723   15.4594    4.2416 H   0  0  0  0  0  0  0  0  0  0  0  0
   43.7630   11.1486    1.3304 H   0  0  0  0  0  0  0  0  0  0  0  0
   43.9555    8.9716    0.1283 H   0  0  0  0  0  0  0  0  0  0  0  0
   45.6860    8.6709   -1.6352 H   0  0  0  0  0  0  0  0  0  0  0  0
   46.9770    9.9050   -3.1820 H   0  0  0  0  0  0  0  0  0  0  0  0
   48.3369    8.5985   -1.8008 H   0  0  0  0  0  0  0  0  0  0  0  0
   50.3344    8.8146   -3.0312 H   0  0  0  0  0  0  0  0  0  0  0  0
   49.1722    9.7247   -4.0748 H   0  0  0  0  0  0  0  0  0  0  0  0
   51.2660   10.9750   -3.8049 H   0  0  0  0  0  0  0  0  0  0  0  0
   49.8761   11.8278   -3.0121 H   0  0  0  0  0  0  0  0  0  0  0  0
   54.0734   11.8984   -3.7204 H   0  0  0  0  0  0  0  0  0  0  0  0
   52.3118   12.2544   -3.7142 H   0  0  0  0  0  0  0  0  0  0  0  0
   55.6564   13.3700   -2.6279 H   0  0  0  0  0  0  0  0  0  0  0  0
   56.1079   15.6242   -1.6681 H   0  0  0  0  0  0  0  0  0  0  0  0
   54.2129   17.1047   -1.0089 H   0  0  0  0  0  0  0  0  0  0  0  0
   51.8632   16.3254   -1.3010 H   0  0  0  0  0  0  0  0  0  0  0  0
   51.4042   14.0740   -2.2611 H   0  0  0  0  0  0  0  0  0  0  0  0
   51.0305    9.0793   -0.7793 H   0  0  0  0  0  0  0  0  0  0  0  0
   51.0617   10.4664    0.3633 H   0  0  0  0  0  0  0  0  0  0  0  0
   48.7778    9.6010    0.1671 H   0  0  0  0  0  0  0  0  0  0  0  0
   48.8937   11.2487   -0.5821 H   0  0  0  0  0  0  0  0  0  0  0  0
   47.0568   12.7055   -0.9970 H   0  0  0  0  0  0  0  0  0  0  0  0
  1  2  2  0
  2  3  1  0
  2  4  1  0
  4  5  1  0
  5  6  1  0
  6  7  2  0
  7  8  1  0
  8  9  2  0
  8 10  1  0
  7 11  1  0
 11 12  1  0
 12 13  1  0
 13 14  2  0
 14 15  1  0
 15 16  2  0
 16 17  1  0
 17 18  1  0
 18 19  1  0
 19 20  1  0
 20 21  1  0
 21 22  1  0
 22 23  1  0
 23 24  2  0
 23 25  2  0
 23 26  1  0
 26 27  1  0
 27 28  2  0
 28 29  1  0
 29 30  2  0
 30 31  1  0
 31 32  2  0
 22 33  1  0
 33 34  1  0
 17 35  2  0
 12 36  2  0
 36 37  1  0
 36  6  1  0
 35 13  1  0
 34 19  1  0
 32 27  1  0
  4 38  1  0
  4 39  1  0
 14 40  1  0
 15 41  1  0
 16 42  1  0
 18 43  1  0
 19 44  1  0
 20 45  1  0
 20 46  1  0
 21 47  1  0
 21 48  1  0
 26 49  1  0
 26 50  1  0
 28 51  1  0
 29 52  1  0
 30 53  1  0
 31 54  1  0
 32 55  1  0
 33 56  1  0
 33 57  1  0
 34 58  1  0
 34 59  1  0
 35 60  1  0
M  CHG  2   3  -1  10  -1
M  END
>  <meeko>  (8) 
{"is_sidechain": [false], "free_energy": -7.556, "intermolecular_energy": -11.562, "internal_energy": -1.364}

$$$$
2qbp_ligand
     RDKit          3D

 60 63  0  0  0  0  0  0  0  0999 V2000
   45.7160   17.8590    4.9340 O   0  0  0  0  0  0  0  0  0  0  0  0
   46.8770   17.4490    4.6240 C   0  0  0  0  0  0  0  0  0  0  0  0
   47.9940   17.9130    5.0140 O   0  0  0  0  0  0  0  0  0  0  0  0
   46.9370   16.1950    3.7220 C   0  0  0  0  0  0  0  0  0  0  0  0
   45.7010   15.4430    3.7540 O   0  0  0  0  0  0  0  0  0  0  0  0
   45.4240   14.8970    2.5430 C   0  0  0  0  0  0  0  0  0  0  0  0
   44.6990   15.5160    1.5410 C   0  0  0  0  0  0  0  0  0  0  0  0
   44.1020   16.9920    1.5350 C   0  0  0  0  0  0  0  0  0  0  0  0
   44.8920   17.9750    1.6870 O   0  0  0  0  0  0  0  0  0  0  0  0
   42.8430   17.0900    1.3530 O   0  0  0  0  0  0  0  0  0  0  0  0
   44.4740   14.4590    0.2010 S   0  0  0  0  0  0  0  0  0  0  0  0
   45.4000   13.2100    0.9210 C   0  0  0  0  0  0  0  0  0  0  0  0
   45.4960   11.9080    0.2590 C   0  0  0  0  0  0  0  0  0  0  0  0
   44.5210   10.9210    0.4280 C   0  0  0  0  0  0  0  0  0  0  0  0
   44.6660    9.6820   -0.1940 C   0  0  0  0  0  0  0  0  0  0  0  0
   45.7810    9.4320   -0.9990 C   0  0  0  0  0  0  0  0  0  0  0  0
   46.7480   10.4190   -1.2220 C   0  0  0  0  0  0  0  0  0  0  0  0
   47.8920   10.0640   -1.9710 N   0  0  0  0  0  0  0  0  0  0  0  0
   47.8440   10.2870   -3.4380 C   0  0  0  0  0  0  0  0  0  0  0  0
   48.0000    8.9210   -4.1260 C   0  0  0  0  0  0  0  0  0  0  0  0
   46.6580    8.2150   -4.2460 C   0  0  0  0  0  0  0  0  0  0  0  0
   45.6960    8.9970   -5.0710 N   0  0  0  0  0  0  0  0  0  0  0  0
   45.1010    8.2560   -6.4860 S   0  0  0  0  0  0  0  0  0  0  0  0
   45.2620    6.8250   -6.3220 O   0  0  0  0  0  0  0  0  0  0  0  0
   45.6630    8.9570   -7.6220 O   0  0  0  0  0  0  0  0  0  0  0  0
   43.3560    8.6830   -6.3670 C   0  0  0  0  0  0  0  0  0  0  0  0
   42.9410    8.7160   -4.9180 C   0  0  0  0  0  0  0  0  0  0  0  0
   42.9410    7.5430   -4.1500 C   0  0  0  0  0  0  0  0  0  0  0  0
   42.5550    7.5740   -2.8090 C   0  0  0  0  0  0  0  0  0  0  0  0
   42.1640    8.7760   -2.2230 C   0  0  0  0  0  0  0  0  0  0  0  0
   42.1530    9.9470   -2.9790 C   0  0  0  0  0  0  0  0  0  0  0  0
   42.5380    9.9170   -4.3190 C   0  0  0  0  0  0  0  0  0  0  0  0
   46.0190   10.4470   -5.1910 C   0  0  0  0  0  0  0  0  0  0  0  0
   46.5300   10.9700   -3.8540 C   0  0  0  0  0  0  0  0  0  0  0  0
   46.6100   11.6390   -0.5540 C   0  0  0  0  0  0  0  0  0  0  0  0
   45.9170   13.6270    2.1280 C   0  0  0  0  0  0  0  0  0  0  0  0
   47.1420   12.6240    3.1810 Br  0  0  0  0  0  0  0  0  0  0  0  0
   47.1332   16.5114    2.6869 H   0  0  0  0  0  0  0  0  0  0  0  0
   47.7398   15.5442    4.0988 H   0  0  0  0  0  0  0  0  0  0  0  0
   43.6382   11.1222    1.0526 H   0  0  0  0  0  0  0  0  0  0  0  0
   43.9038    8.9018   -0.0515 H   0  0  0  0  0  0  0  0  0  0  0  0
   45.9005    8.4428   -1.4651 H   0  0  0  0  0  0  0  0  0  0  0  0
   48.6460   10.6310   -1.5780 H   0  0  0  0  0  0  0  0  0  0  0  0
   48.6589   10.9597   -3.7436 H   0  0  0  0  0  0  0  0  0  0  0  0
   48.4190    9.0706   -5.1320 H   0  0  0  0  0  0  0  0  0  0  0  0
   48.6714    8.2968   -3.5180 H   0  0  0  0  0  0  0  0  0  0  0  0
   46.8130    7.2321   -4.7149 H   0  0  0  0  0  0  0  0  0  0  0  0
   46.2355    8.1078   -3.2361 H   0  0  0  0  0  0  0  0  0  0  0  0
   43.1896    9.6724   -6.8181 H   0  0  0  0  0  0  0  0  0  0  0  0
   42.7584    7.9296   -6.9011 H   0  0  0  0  0  0  0  0  0  0  0  0
   43.2476    6.5909   -4.6078 H   0  0  0  0  0  0  0  0  0  0  0  0
   42.5595    6.6486   -2.2143 H   0  0  0  0  0  0  0  0  0  0  0  0
   41.8643    8.8009   -1.1649 H   0  0  0  0  0  0  0  0  0  0  0  0
   41.8403   10.8956   -2.5182 H   0  0  0  0  0  0  0  0  0  0  0  0
   42.5252   10.8441   -4.9109 H   0  0  0  0  0  0  0  0  0  0  0  0
   46.7939   10.5870   -5.9590 H   0  0  0  0  0  0  0  0  0  0  0  0
   45.1124   11.0004   -5.4770 H   0  0  0  0  0  0  0  0  0  0  0  0
   46.7027   12.0531   -3.9379 H   0  0  0  0  0  0  0  0  0  0  0  0
   45.7722   10.7486   -3.0880 H   0  0  0  0  0  0  0  0  0  0  0  0
   47.3908   12.4055   -0.6673 H   0  0  0  0  0  0  0  0  0  0  0  0
  1  2  2  0
  2  3  1  0
  2  4  1  0
  4  5  1  0
  5  6  1  0
  6  7  2  0
  7  8  1  0
  8  9  2  0
  8 10  1  0
  7 11  1  0
 11 12  1  0
 12 13  1  0
 13 14  2  0
 14 15  1  0
 15 16  2  0
 16 17  1  0
 17 18  1  0
 18 19  1  0
 19 20  1  0
 20 21  1  0
 21 22  1  0
 22 23  1  0
 23 24  2  0
 23 25  2  0
 23 26  1  0
 26 27  1  0
 27 28  2  0
 28 29  1  0
 29 30  2  0
 30 31  1  0
 31 32  2  0
 22 33  1  0
 33 34  1  0
 17 35  2  0
 12 36  2  0
 36 37  1  0
 36  6  1  0
 35 13  1  0
 34 19  1  0
 32 27  1  0
  4 38  1  0
  4 39  1  0
 14 40  1  0
 15 41  1  0
 16 42  1  0
 18 43  1  0
 19 44  1  0
 20 45  1  0
 20 46  1  0
 21 47  1  0
 21 48  1  0
 26 49  1  0
 26 50  1  0
 28 51  1  0
 29 52  1  0
 30 53  1  0
 31 54  1  0
 32 55  1  0
 33 56  1  0
 33 57  1  0
 34 58  1  0
 34 59  1  0
 35 60  1  0
M  CHG  2   3  -1  10  -1
M  END
>  <meeko>  (9) 
{"is_sidechain": [false], "free_energy": -7.554, "intermolecular_energy": -11.183, "internal_energy": -1.739}

$$$$
