1uto_ligand
     RDKit          3D

 21 21  0  0  0  0  0  0  0  0999 V2000
   45.7220   17.3010   52.9760 N   0  0  0  0  0  0  0  0  0  0  0  0
   45.6340   18.7420   52.6220 C   0  0  0  0  0  0  0  0  0  0  0  0
   45.6290   18.9080   51.1050 C   0  0  0  0  0  0  0  0  0  0  0  0
   45.8490   20.3470   50.7260 C   0  0  0  0  0  0  0  0  0  0  0  0
   46.6640   21.1730   51.5130 C   0  0  0  0  0  0  0  0  0  0  0  0
   46.8930   22.4980   51.1420 C   0  0  0  0  0  0  0  0  0  0  0  0
   46.3120   23.0100   49.9830 C   0  0  0  0  0  0  0  0  0  0  0  0
   45.5000   22.1980   49.1950 C   0  0  0  0  0  0  0  0  0  0  0  0
   45.2680   20.8720   49.5630 C   0  0  0  0  0  0  0  0  0  0  0  0
   44.8870   16.9790   53.4820 H   0  0  0  0  0  0  0  0  0  0  0  0
   46.5430   17.1000   53.5630 H   0  0  0  0  0  0  0  0  0  0  0  0
   45.8060   16.7220   52.1280 H   0  0  0  0  0  0  0  0  0  0  0  0
   44.7066   19.1631   53.0375 H   0  0  0  0  0  0  0  0  0  0  0  0
   46.5038   19.2700   53.0399 H   0  0  0  0  0  0  0  0  0  0  0  0
   46.4324   18.2939   50.6721 H   0  0  0  0  0  0  0  0  0  0  0  0
   44.6511   18.5862   50.7176 H   0  0  0  0  0  0  0  0  0  0  0  0
   47.1255   20.7738   52.4283 H   0  0  0  0  0  0  0  0  0  0  0  0
   47.5331   23.1399   51.7651 H   0  0  0  0  0  0  0  0  0  0  0  0
   46.4947   24.0547   49.6910 H   0  0  0  0  0  0  0  0  0  0  0  0
   45.0407   22.6025   48.2810 H   0  0  0  0  0  0  0  0  0  0  0  0
   44.6257   20.2351   48.9371 H   0  0  0  0  0  0  0  0  0  0  0  0
  1  2  1  0
  2  3  1  0
  3  4  1  0
  4  5  2  0
  5  6  1  0
  6  7  2  0
  7  8  1  0
  8  9  2  0
  9  4  1  0
  1 10  1  0
  1 11  1  0
  1 12  1  0
  2 13  1  0
  2 14  1  0
  3 15  1  0
  3 16  1  0
  5 17  1  0
  6 18  1  0
  7 19  1  0
  8 20  1  0
  9 21  1  0
M  CHG  1   1   1
M  END
>  <meeko>  (1) 
{"is_sidechain": [false], "free_energy": -4.502, "intermolecular_energy": -5.16, "internal_energy": -0.051}

$$$$
1uto_ligand
     RDKit          3D

 21 21  0  0  0  0  0  0  0  0999 V2000
   45.7280   17.3280   53.0200 N   0  0  0  0  0  0  0  0  0  0  0  0
   45.7000   18.7730   52.6730 C   0  0  0  0  0  0  0  0  0  0  0  0
   45.6670   18.9460   51.1560 C   0  0  0  0  0  0  0  0  0  0  0  0
   45.9450   20.3750   50.7770 C   0  0  0  0  0  0  0  0  0  0  0  0
   45.3640   20.9310   49.6290 C   0  0  0  0  0  0  0  0  0  0  0  0
   45.5980   22.2670   49.2980 C   0  0  0  0  0  0  0  0  0  0  0  0
   46.4100   23.0570   50.1090 C   0  0  0  0  0  0  0  0  0  0  0  0
   46.9930   22.5120   51.2500 C   0  0  0  0  0  0  0  0  0  0  0  0
   46.7620   21.1780   51.5850 C   0  0  0  0  0  0  0  0  0  0  0  0
   46.6900   16.9780   53.1230 H   0  0  0  0  0  0  0  0  0  0  0  0
   45.2590   16.7540   52.3050 H   0  0  0  0  0  0  0  0  0  0  0  0
   45.2440   17.1580   53.9120 H   0  0  0  0  0  0  0  0  0  0  0  0
   44.8037   19.2356   53.1119 H   0  0  0  0  0  0  0  0  0  0  0  0
   46.6035   19.2574   53.0718 H   0  0  0  0  0  0  0  0  0  0  0  0
   46.4304   18.2971   50.7020 H   0  0  0  0  0  0  0  0  0  0  0  0
   44.6663   18.6718   50.7907 H   0  0  0  0  0  0  0  0  0  0  0  0
   44.7209   20.3121   48.9861 H   0  0  0  0  0  0  0  0  0  0  0  0
   45.1402   22.6969   48.3949 H   0  0  0  0  0  0  0  0  0  0  0  0
   46.5904   24.1103   49.8482 H   0  0  0  0  0  0  0  0  0  0  0  0
   47.6370   23.1347   51.8884 H   0  0  0  0  0  0  0  0  0  0  0  0
   47.2237   20.7534   52.4887 H   0  0  0  0  0  0  0  0  0  0  0  0
  1  2  1  0
  2  3  1  0
  3  4  1  0
  4  5  2  0
  5  6  1  0
  6  7  2  0
  7  8  1  0
  8  9  2  0
  9  4  1  0
  1 10  1  0
  1 11  1  0
  1 12  1  0
  2 13  1  0
  2 14  1  0
  3 15  1  0
  3 16  1  0
  5 17  1  0
  6 18  1  0
  7 19  1  0
  8 20  1  0
  9 21  1  0
M  CHG  1   1   1
M  END
>  <meeko>  (2) 
{"is_sidechain": [false], "free_energy": -4.489, "intermolecular_energy": -5.143, "internal_energy": -0.053}

$$$$
1uto_ligand
     RDKit          3D

 21 21  0  0  0  0  0  0  0  0999 V2000
   45.6910   17.1480   53.0550 N   0  0  0  0  0  0  0  0  0  0  0  0
   45.6720   18.6100   52.7910 C   0  0  0  0  0  0  0  0  0  0  0  0
   45.3620   18.8710   51.3180 C   0  0  0  0  0  0  0  0  0  0  0  0
   44.9410   20.2990   51.1080 C   0  0  0  0  0  0  0  0  0  0  0  0
   44.2070   20.6640   49.9700 C   0  0  0  0  0  0  0  0  0  0  0  0
   43.7900   21.9830   49.7930 C   0  0  0  0  0  0  0  0  0  0  0  0
   44.0980   22.9480   50.7500 C   0  0  0  0  0  0  0  0  0  0  0  0
   44.8270   22.5960   51.8830 C   0  0  0  0  0  0  0  0  0  0  0  0
   45.2470   21.2780   52.0640 C   0  0  0  0  0  0  0  0  0  0  0  0
   45.7210   16.6020   52.1840 H   0  0  0  0  0  0  0  0  0  0  0  0
   44.8640   16.8440   53.5880 H   0  0  0  0  0  0  0  0  0  0  0  0
   46.5200   16.8880   53.6060 H   0  0  0  0  0  0  0  0  0  0  0  0
   44.8995   19.0829   53.4152 H   0  0  0  0  0  0  0  0  0  0  0  0
   46.6580   19.0335   53.0330 H   0  0  0  0  0  0  0  0  0  0  0  0
   46.2615   18.6679   50.7183 H   0  0  0  0  0  0  0  0  0  0  0  0
   44.5389   18.2105   51.0076 H   0  0  0  0  0  0  0  0  0  0  0  0
   43.9588   19.9057   49.2128 H   0  0  0  0  0  0  0  0  0  0  0  0
   43.2170   22.2621   48.8965 H   0  0  0  0  0  0  0  0  0  0  0  0
   43.7654   23.9872   50.6105 H   0  0  0  0  0  0  0  0  0  0  0  0
   45.0722   23.3587   52.6368 H   0  0  0  0  0  0  0  0  0  0  0  0
   45.8214   21.0053   52.9616 H   0  0  0  0  0  0  0  0  0  0  0  0
  1  2  1  0
  2  3  1  0
  3  4  1  0
  4  5  2  0
  5  6  1  0
  6  7  2  0
  7  8  1  0
  8  9  2  0
  9  4  1  0
  1 10  1  0
  1 11  1  0
  1 12  1  0
  2 13  1  0
  2 14  1  0
  3 15  1  0
  3 16  1  0
  5 17  1  0
  6 18  1  0
  7 19  1  0
  8 20  1  0
  9 21  1  0
M  CHG  1   1   1
M  END
>  <meeko>  (3) 
{"is_sidechain": [false], "free_energy": -4.468, "intermolecular_energy": -5.119, "internal_energy": -0.053}

$$$$
1uto_ligand
     RDKit          3D

 21 21  0  0  0  0  0  0  0  0999 V2000
   45.7080   17.1620   53.0210 N   0  0  0  0  0  0  0  0  0  0  0  0
   45.7020   18.6380   52.8450 C   0  0  0  0  0  0  0  0  0  0  0  0
   45.5760   18.9870   51.3640 C   0  0  0  0  0  0  0  0  0  0  0  0
   44.9750   20.3550   51.1890 C   0  0  0  0  0  0  0  0  0  0  0  0
   45.1870   21.3530   52.1510 C   0  0  0  0  0  0  0  0  0  0  0  0
   44.6560   22.6300   51.9700 C   0  0  0  0  0  0  0  0  0  0  0  0
   43.9130   22.9240   50.8280 C   0  0  0  0  0  0  0  0  0  0  0  0
   43.6970   21.9390   49.8670 C   0  0  0  0  0  0  0  0  0  0  0  0
   44.2250   20.6600   50.0440 C   0  0  0  0  0  0  0  0  0  0  0  0
   46.0150   16.6760   52.1680 H   0  0  0  0  0  0  0  0  0  0  0  0
   44.7750   16.8030   53.2700 H   0  0  0  0  0  0  0  0  0  0  0  0
   46.3500   16.8880   53.7770 H   0  0  0  0  0  0  0  0  0  0  0  0
   44.8507   19.0668   53.3940 H   0  0  0  0  0  0  0  0  0  0  0  0
   46.6438   19.0518   53.2345 H   0  0  0  0  0  0  0  0  0  0  0  0
   46.5745   18.9696   50.9028 H   0  0  0  0  0  0  0  0  0  0  0  0
   44.9195   18.2481   50.8813 H   0  0  0  0  0  0  0  0  0  0  0  0
   45.7750   21.1276   53.0529 H   0  0  0  0  0  0  0  0  0  0  0  0
   44.8240   23.4069   52.7304 H   0  0  0  0  0  0  0  0  0  0  0  0
   43.4977   23.9326   50.6858 H   0  0  0  0  0  0  0  0  0  0  0  0
   43.1088   22.1702   48.9667 H   0  0  0  0  0  0  0  0  0  0  0  0
   44.0521   19.8865   49.2813 H   0  0  0  0  0  0  0  0  0  0  0  0
  1  2  1  0
  2  3  1  0
  3  4  1  0
  4  5  2  0
  5  6  1  0
  6  7  2  0
  7  8  1  0
  8  9  2  0
  9  4  1  0
  1 10  1  0
  1 11  1  0
  1 12  1  0
  2 13  1  0
  2 14  1  0
  3 15  1  0
  3 16  1  0
  5 17  1  0
  6 18  1  0
  7 19  1  0
  8 20  1  0
  9 21  1  0
M  CHG  1   1   1
M  END
>  <meeko>  (4) 
{"is_sidechain": [false], "free_energy": -4.46, "intermolecular_energy": -5.115, "internal_energy": -0.049}

$$$$
1uto_ligand
     RDKit          3D

 21 21  0  0  0  0  0  0  0  0999 V2000
   43.1220   22.7100   49.0550 N   0  0  0  0  0  0  0  0  0  0  0  0
   44.3940   22.9150   49.7950 C   0  0  0  0  0  0  0  0  0  0  0  0
   45.4210   21.8690   49.3690 C   0  0  0  0  0  0  0  0  0  0  0  0
   45.4420   20.7180   50.3370 C   0  0  0  0  0  0  0  0  0  0  0  0
   46.3760   20.6830   51.3810 C   0  0  0  0  0  0  0  0  0  0  0  0
   46.3710   19.6300   52.2970 C   0  0  0  0  0  0  0  0  0  0  0  0
   45.4340   18.6060   52.1800 C   0  0  0  0  0  0  0  0  0  0  0  0
   44.5020   18.6310   51.1450 C   0  0  0  0  0  0  0  0  0  0  0  0
   44.5030   19.6810   50.2270 C   0  0  0  0  0  0  0  0  0  0  0  0
   42.9150   21.7110   48.9190 H   0  0  0  0  0  0  0  0  0  0  0  0
   43.1420   23.1560   48.1280 H   0  0  0  0  0  0  0  0  0  0  0  0
   42.3300   23.1170   49.5720 H   0  0  0  0  0  0  0  0  0  0  0  0
   44.7850   23.9196   49.5759 H   0  0  0  0  0  0  0  0  0  0  0  0
   44.2039   22.8155   50.8739 H   0  0  0  0  0  0  0  0  0  0  0  0
   45.1605   21.4942   48.3682 H   0  0  0  0  0  0  0  0  0  0  0  0
   46.4165   22.3367   49.3548 H   0  0  0  0  0  0  0  0  0  0  0  0
   47.1172   21.4899   51.4791 H   0  0  0  0  0  0  0  0  0  0  0  0
   47.1084   19.6087   53.1129 H   0  0  0  0  0  0  0  0  0  0  0  0
   45.4300   17.7782   52.9044 H   0  0  0  0  0  0  0  0  0  0  0  0
   43.7637   17.8209   51.0515 H   0  0  0  0  0  0  0  0  0  0  0  0
   43.7639   19.6963   49.4125 H   0  0  0  0  0  0  0  0  0  0  0  0
  1  2  1  0
  2  3  1  0
  3  4  1  0
  4  5  2  0
  5  6  1  0
  6  7  2  0
  7  8  1  0
  8  9  2  0
  9  4  1  0
  1 10  1  0
  1 11  1  0
  1 12  1  0
  2 13  1  0
  2 14  1  0
  3 15  1  0
  3 16  1  0
  5 17  1  0
  6 18  1  0
  7 19  1  0
  8 20  1  0
  9 21  1  0
M  CHG  1   1   1
M  END
>  <meeko>  (5) 
{"is_sidechain": [false], "free_energy": -4.397, "intermolecular_energy": -5.055, "internal_energy": -0.036}

$$$$
1uto_ligand
     RDKit          3D

 21 21  0  0  0  0  0  0  0  0999 V2000
   42.9910   22.7750   48.9890 N   0  0  0  0  0  0  0  0  0  0  0  0
   44.0490   22.9170   50.0230 C   0  0  0  0  0  0  0  0  0  0  0  0
   45.2460   22.0360   49.6710 C   0  0  0  0  0  0  0  0  0  0  0  0
   45.3000   20.8290   50.5680 C   0  0  0  0  0  0  0  0  0  0  0  0
   44.4180   19.7580   50.3710 C   0  0  0  0  0  0  0  0  0  0  0  0
   44.4920   18.6250   51.1830 C   0  0  0  0  0  0  0  0  0  0  0  0
   45.4470   18.5520   52.1950 C   0  0  0  0  0  0  0  0  0  0  0  0
   46.3280   19.6120   52.3990 C   0  0  0  0  0  0  0  0  0  0  0  0
   46.2570   20.7460   51.5900 C   0  0  0  0  0  0  0  0  0  0  0  0
   42.9160   23.6150   48.4000 H   0  0  0  0  0  0  0  0  0  0  0  0
   42.0680   22.6000   49.4080 H   0  0  0  0  0  0  0  0  0  0  0  0
   43.1960   21.9820   48.3640 H   0  0  0  0  0  0  0  0  0  0  0  0
   44.3718   23.9674   50.0718 H   0  0  0  0  0  0  0  0  0  0  0  0
   43.6454   22.6047   50.9975 H   0  0  0  0  0  0  0  0  0  0  0  0
   45.1560   21.7054   48.6257 H   0  0  0  0  0  0  0  0  0  0  0  0
   46.1678   22.6203   49.8084 H   0  0  0  0  0  0  0  0  0  0  0  0
   43.6634   19.8104   49.5723 H   0  0  0  0  0  0  0  0  0  0  0  0
   43.7955   17.7887   51.0237 H   0  0  0  0  0  0  0  0  0  0  0  0
   45.5054   17.6577   52.8328 H   0  0  0  0  0  0  0  0  0  0  0  0
   47.0806   19.5544   53.1992 H   0  0  0  0  0  0  0  0  0  0  0  0
   46.9554   21.5798   51.7544 H   0  0  0  0  0  0  0  0  0  0  0  0
  1  2  1  0
  2  3  1  0
  3  4  1  0
  4  5  2  0
  5  6  1  0
  6  7  2  0
  7  8  1  0
  8  9  2  0
  9  4  1  0
  1 10  1  0
  1 11  1  0
  1 12  1  0
  2 13  1  0
  2 14  1  0
  3 15  1  0
  3 16  1  0
  5 17  1  0
  6 18  1  0
  7 19  1  0
  8 20  1  0
  9 21  1  0
M  CHG  1   1   1
M  END
>  <meeko>  (6) 
{"is_sidechain": [false], "free_energy": -4.318, "intermolecular_energy": -4.945, "internal_energy": -0.055}

$$$$
1uto_ligand
     RDKit          3D

 21 21  0  0  0  0  0  0  0  0999 V2000
   46.2780   22.5990   53.8190 N   0  0  0  0  0  0  0  0  0  0  0  0
   46.4820   23.0370   52.4130 C   0  0  0  0  0  0  0  0  0  0  0  0
   47.1550   21.9260   51.6120 C   0  0  0  0  0  0  0  0  0  0  0  0
   46.1930   20.7990   51.3520 C   0  0  0  0  0  0  0  0  0  0  0  0
   46.2880   19.6030   52.0770 C   0  0  0  0  0  0  0  0  0  0  0  0
   45.3740   18.5720   51.8580 C   0  0  0  0  0  0  0  0  0  0  0  0
   44.3580   18.7260   50.9170 C   0  0  0  0  0  0  0  0  0  0  0  0
   44.2560   19.9100   50.1910 C   0  0  0  0  0  0  0  0  0  0  0  0
   45.1690   20.9440   50.4060 C   0  0  0  0  0  0  0  0  0  0  0  0
   46.2810   21.5740   53.9040 H   0  0  0  0  0  0  0  0  0  0  0  0
   45.3870   22.9440   54.2020 H   0  0  0  0  0  0  0  0  0  0  0  0
   47.0280   22.9580   54.4250 H   0  0  0  0  0  0  0  0  0  0  0  0
   45.5078   23.2735   51.9603 H   0  0  0  0  0  0  0  0  0  0  0  0
   47.1250   23.9295   52.4028 H   0  0  0  0  0  0  0  0  0  0  0  0
   47.5019   22.3333   50.6509 H   0  0  0  0  0  0  0  0  0  0  0  0
   48.0054   21.5379   52.1918 H   0  0  0  0  0  0  0  0  0  0  0  0
   47.0872   19.4768   52.8223 H   0  0  0  0  0  0  0  0  0  0  0  0
   45.4556   17.6356   52.4294 H   0  0  0  0  0  0  0  0  0  0  0  0
   43.6369   17.9128   50.7477 H   0  0  0  0  0  0  0  0  0  0  0  0
   43.4548   20.0307   49.4470 H   0  0  0  0  0  0  0  0  0  0  0  0
   45.0843   21.8773   49.8300 H   0  0  0  0  0  0  0  0  0  0  0  0
  1  2  1  0
  2  3  1  0
  3  4  1  0
  4  5  2  0
  5  6  1  0
  6  7  2  0
  7  8  1  0
  8  9  2  0
  9  4  1  0
  1 10  1  0
  1 11  1  0
  1 12  1  0
  2 13  1  0
  2 14  1  0
  3 15  1  0
  3 16  1  0
  5 17  1  0
  6 18  1  0
  7 19  1  0
  8 20  1  0
  9 21  1  0
M  CHG  1   1   1
M  END
>  <meeko>  (7) 
{"is_sidechain": [false], "free_energy": -3.979, "intermolecular_energy": -4.577, "internal_energy": -0.035}

$$$$
1uto_ligand
     RDKit          3D

 21 21  0  0  0  0  0  0  0  0999 V2000
   45.6720   18.1670   51.8720 N   0  0  0  0  0  0  0  0  0  0  0  0
   44.7930   18.9350   50.9510 C   0  0  0  0  0  0  0  0  0  0  0  0
   45.5190   20.1850   50.4570 C   0  0  0  0  0  0  0  0  0  0  0  0
   44.7280   21.4230   50.7810 C   0  0  0  0  0  0  0  0  0  0  0  0
   44.8790   22.0580   52.0220 C   0  0  0  0  0  0  0  0  0  0  0  0
   44.1690   23.2250   52.3070 C   0  0  0  0  0  0  0  0  0  0  0  0
   43.3060   23.7680   51.3580 C   0  0  0  0  0  0  0  0  0  0  0  0
   43.1480   23.1430   50.1230 C   0  0  0  0  0  0  0  0  0  0  0  0
   43.8550   21.9760   49.8340 C   0  0  0  0  0  0  0  0  0  0  0  0
   45.1310   17.5410   52.4830 H   0  0  0  0  0  0  0  0  0  0  0  0
   46.2320   18.7880   52.4730 H   0  0  0  0  0  0  0  0  0  0  0  0
   46.3310   17.5810   51.3420 H   0  0  0  0  0  0  0  0  0  0  0  0
   44.5274   18.3039   50.0901 H   0  0  0  0  0  0  0  0  0  0  0  0
   43.8816   19.2355   51.4886 H   0  0  0  0  0  0  0  0  0  0  0  0
   46.5030   20.2474   50.9447 H   0  0  0  0  0  0  0  0  0  0  0  0
   45.6374   20.1168   49.3655 H   0  0  0  0  0  0  0  0  0  0  0  0
   45.5604   21.6342   52.7744 H   0  0  0  0  0  0  0  0  0  0  0  0
   44.2911   23.7172   53.2832 H   0  0  0  0  0  0  0  0  0  0  0  0
   42.7496   24.6897   51.5836 H   0  0  0  0  0  0  0  0  0  0  0  0
   42.4646   23.5706   49.3746 H   0  0  0  0  0  0  0  0  0  0  0  0
   43.7268   21.4867   48.8572 H   0  0  0  0  0  0  0  0  0  0  0  0
  1  2  1  0
  2  3  1  0
  3  4  1  0
  4  5  2  0
  5  6  1  0
  6  7  2  0
  7  8  1  0
  8  9  2  0
  9  4  1  0
  1 10  1  0
  1 11  1  0
  1 12  1  0
  2 13  1  0
  2 14  1  0
  3 15  1  0
  3 16  1  0
  5 17  1  0
  6 18  1  0
  7 19  1  0
  8 20  1  0
  9 21  1  0
M  CHG  1   1   1
M  END
>  <meeko>  (8) 
{"is_sidechain": [false], "free_energy": -3.87, "intermolecular_energy": -4.433, "internal_energy": -0.054}

$$$$
1uto_ligand
     RDKit          3D

 21 21  0  0  0  0  0  0  0  0999 V2000
   45.9870   23.0930   53.5390 N   0  0  0  0  0  0  0  0  0  0  0  0
   47.2790   22.6600   52.9440 C   0  0  0  0  0  0  0  0  0  0  0  0
   47.0940   22.3530   51.4600 C   0  0  0  0  0  0  0  0  0  0  0  0
   46.1750   21.1780   51.2700 C   0  0  0  0  0  0  0  0  0  0  0  0
   45.0980   21.2560   50.3760 C   0  0  0  0  0  0  0  0  0  0  0  0
   44.2660   20.1530   50.1760 C   0  0  0  0  0  0  0  0  0  0  0  0
   44.5030   18.9650   50.8640 C   0  0  0  0  0  0  0  0  0  0  0  0
   45.5700   18.8780   51.7550 C   0  0  0  0  0  0  0  0  0  0  0  0
   46.4040   19.9780   51.9580 C   0  0  0  0  0  0  0  0  0  0  0  0
   46.0660   24.0100   53.9980 H   0  0  0  0  0  0  0  0  0  0  0  0
   45.6430   22.4200   54.2370 H   0  0  0  0  0  0  0  0  0  0  0  0
   45.2620   23.1760   52.8130 H   0  0  0  0  0  0  0  0  0  0  0  0
   48.0209   23.4638   53.0599 H   0  0  0  0  0  0  0  0  0  0  0  0
   47.6278   21.7530   53.4595 H   0  0  0  0  0  0  0  0  0  0  0  0
   46.6628   23.2330   50.9604 H   0  0  0  0  0  0  0  0  0  0  0  0
   48.0743   22.1088   51.0249 H   0  0  0  0  0  0  0  0  0  0  0  0
   44.9075   22.1913   49.8292 H   0  0  0  0  0  0  0  0  0  0  0  0
   43.4219   20.2220   49.4740 H   0  0  0  0  0  0  0  0  0  0  0  0
   43.8478   18.0961   50.7036 H   0  0  0  0  0  0  0  0  0  0  0  0
   45.7555   17.9404   52.2996 H   0  0  0  0  0  0  0  0  0  0  0  0
   47.2460   19.9033   52.6619 H   0  0  0  0  0  0  0  0  0  0  0  0
  1  2  1  0
  2  3  1  0
  3  4  1  0
  4  5  2  0
  5  6  1  0
  6  7  2  0
  7  8  1  0
  8  9  2  0
  9  4  1  0
  1 10  1  0
  1 11  1  0
  1 12  1  0
  2 13  1  0
  2 14  1  0
  3 15  1  0
  3 16  1  0
  5 17  1  0
  6 18  1  0
  7 19  1  0
  8 20  1  0
  9 21  1  0
M  CHG  1   1   1
M  END
>  <meeko>  (9) 
{"is_sidechain": [false], "free_energy": -3.839, "intermolecular_energy": -4.384, "internal_energy": -0.067}

$$$$
