4kzu_ligand
     RDKit          3D

 27 29  0  0  0  0  0  0  0  0999 V2000
   -8.1040   38.6500  -15.1060 O   0  0  0  0  0  0  0  0  0  0  0  0
   -7.4770   37.9740  -14.3020 C   0  0  0  0  0  0  0  0  0  0  0  0
   -7.5300   38.2660  -12.8590 C   0  0  0  0  0  0  0  0  0  0  0  0
   -6.8340   37.5130  -11.9930 C   0  0  0  0  0  0  0  0  0  0  0  0
   -6.8350   37.7420  -10.5180 C   0  0  0  0  0  0  0  0  0  0  0  0
   -7.3730   38.8970   -9.9230 C   0  0  0  0  0  0  0  0  0  0  0  0
   -7.3570   39.0810   -8.5330 C   0  0  0  0  0  0  0  0  0  0  0  0
   -6.7990   38.1080   -7.7120 C   0  0  0  0  0  0  0  0  0  0  0  0
   -6.7760   38.3540   -5.8400 Br  0  0  0  0  0  0  0  0  0  0  0  0
   -6.2590   36.9540   -8.2670 C   0  0  0  0  0  0  0  0  0  0  0  0
   -6.2790   36.7760   -9.6560 C   0  0  0  0  0  0  0  0  0  0  0  0
   -6.0430   36.4390  -12.3950 O   0  0  0  0  0  0  0  0  0  0  0  0
   -5.9620   36.1300  -13.7280 C   0  0  0  0  0  0  0  0  0  0  0  0
   -5.1580   35.0470  -14.0840 C   0  0  0  0  0  0  0  0  0  0  0  0
   -5.0360   34.6830  -15.4270 C   0  0  0  0  0  0  0  0  0  0  0  0
   -5.7170   35.3990  -16.4130 C   0  0  0  0  0  0  0  0  0  0  0  0
   -6.5220   36.4830  -16.0580 C   0  0  0  0  0  0  0  0  0  0  0  0
   -6.6390   36.8410  -14.7120 C   0  0  0  0  0  0  0  0  0  0  0  0
   -8.1413   39.1030  -12.4905 H   0  0  0  0  0  0  0  0  0  0  0  0
   -7.8166   39.6741  -10.5628 H   0  0  0  0  0  0  0  0  0  0  0  0
   -7.7853   39.9937   -8.0931 H   0  0  0  0  0  0  0  0  0  0  0  0
   -5.8176   36.1834   -7.6179 H   0  0  0  0  0  0  0  0  0  0  0  0
   -5.8497   35.8586  -10.0850 H   0  0  0  0  0  0  0  0  0  0  0  0
   -4.6212   34.4808  -13.3086 H   0  0  0  0  0  0  0  0  0  0  0  0
   -4.4015   33.8297  -15.7085 H   0  0  0  0  0  0  0  0  0  0  0  0
   -5.6194   35.1091  -17.4696 H   0  0  0  0  0  0  0  0  0  0  0  0
   -7.0599   37.0508  -16.8315 H   0  0  0  0  0  0  0  0  0  0  0  0
  1  2  2  0
  2  3  1  0
  3  4  2  0
  4  5  1  0
  5  6  2  0
  6  7  1  0
  7  8  2  0
  8  9  1  0
  8 10  1  0
 10 11  2  0
  4 12  1  0
 12 13  1  0
 13 14  2  0
 14 15  1  0
 15 16  2  0
 16 17  1  0
 17 18  2  0
 18  2  1  0
 11  5  1  0
 18 13  1  0
  3 19  1  0
  6 20  1  0
  7 21  1  0
 10 22  1  0
 11 23  1  0
 14 24  1  0
 15 25  1  0
 16 26  1  0
 17 27  1  0
M  END
>  <meeko>  (1) 
{"is_sidechain": [false], "free_energy": -11.561, "intermolecular_energy": -12.237, "internal_energy": -0.273}

$$$$
4kzu_ligand
     RDKit          3D

 27 29  0  0  0  0  0  0  0  0999 V2000
   -7.3860   41.0850   -8.7390 O   0  0  0  0  0  0  0  0  0  0  0  0
   -6.9890   39.9410   -8.9160 C   0  0  0  0  0  0  0  0  0  0  0  0
   -6.9110   39.3650  -10.2700 C   0  0  0  0  0  0  0  0  0  0  0  0
   -6.4740   38.1080  -10.4440 C   0  0  0  0  0  0  0  0  0  0  0  0
   -6.3650   37.4520  -11.7800 C   0  0  0  0  0  0  0  0  0  0  0  0
   -5.5620   36.3210  -12.0140 C   0  0  0  0  0  0  0  0  0  0  0  0
   -5.4820   35.7290  -13.2820 C   0  0  0  0  0  0  0  0  0  0  0  0
   -6.2070   36.2610  -14.3420 C   0  0  0  0  0  0  0  0  0  0  0  0
   -6.1000   35.4640  -16.0510 Br  0  0  0  0  0  0  0  0  0  0  0  0
   -7.0100   37.3770  -14.1450 C   0  0  0  0  0  0  0  0  0  0  0  0
   -7.0860   37.9640  -12.8760 C   0  0  0  0  0  0  0  0  0  0  0  0
   -6.0780   37.2950   -9.3840 O   0  0  0  0  0  0  0  0  0  0  0  0
   -6.1330   37.7880   -8.1060 C   0  0  0  0  0  0  0  0  0  0  0  0
   -5.7260   36.9380   -7.0770 C   0  0  0  0  0  0  0  0  0  0  0  0
   -5.7590   37.3830   -5.7530 C   0  0  0  0  0  0  0  0  0  0  0  0
   -6.1980   38.6760   -5.4580 C   0  0  0  0  0  0  0  0  0  0  0  0
   -6.6050   39.5260   -6.4870 C   0  0  0  0  0  0  0  0  0  0  0  0
   -6.5680   39.0740   -7.8090 C   0  0  0  0  0  0  0  0  0  0  0  0
   -7.2117   39.9667  -11.1404 H   0  0  0  0  0  0  0  0  0  0  0  0
   -4.9836   35.8913  -11.1828 H   0  0  0  0  0  0  0  0  0  0  0  0
   -4.8465   34.8448  -13.4380 H   0  0  0  0  0  0  0  0  0  0  0  0
   -7.5844   37.7984  -14.9832 H   0  0  0  0  0  0  0  0  0  0  0  0
   -7.7251   38.8475  -12.7315 H   0  0  0  0  0  0  0  0  0  0  0  0
   -5.3799   35.9197   -7.3077 H   0  0  0  0  0  0  0  0  0  0  0  0
   -5.4386   36.7137   -4.9410 H   0  0  0  0  0  0  0  0  0  0  0  0
   -6.2228   39.0239   -4.4148 H   0  0  0  0  0  0  0  0  0  0  0  0
   -6.9525   40.5445   -6.2593 H   0  0  0  0  0  0  0  0  0  0  0  0
  1  2  2  0
  2  3  1  0
  3  4  2  0
  4  5  1  0
  5  6  2  0
  6  7  1  0
  7  8  2  0
  8  9  1  0
  8 10  1  0
 10 11  2  0
  4 12  1  0
 12 13  1  0
 13 14  2  0
 14 15  1  0
 15 16  2  0
 16 17  1  0
 17 18  2  0
 18  2  1  0
 11  5  1  0
 18 13  1  0
  3 19  1  0
  6 20  1  0
  7 21  1  0
 10 22  1  0
 11 23  1  0
 14 24  1  0
 15 25  1  0
 16 26  1  0
 17 27  1  0
M  END
>  <meeko>  (2) 
{"is_sidechain": [false], "free_energy": -8.792, "intermolecular_energy": -9.308, "internal_energy": -0.272}

$$$$
