3g2z_ligand
     RDKit          3D

 23 24  0  0  0  0  0  0  0  0999 V2000
   -6.4500   56.3230   15.1010 O   0  0  0  0  0  0  0  0  0  0  0  0
   -6.4870   55.6420   14.0040 C   0  0  0  0  0  0  0  0  0  0  0  0
   -5.3640   54.8300   13.4980 C   0  0  0  0  0  0  0  0  0  0  0  0
   -5.4280   54.1880   12.3140 C   0  0  0  0  0  0  0  0  0  0  0  0
   -4.4200   53.3760   11.7940 N   0  0  0  0  0  0  0  0  0  0  0  0
   -3.1110   53.3320   12.1570 C   0  0  0  0  0  0  0  0  0  0  0  0
   -2.5540   53.2830   13.3490 N   0  0  0  0  0  0  0  0  0  0  0  0
   -1.1970   53.2550   13.1460 N   0  0  0  0  0  0  0  0  0  0  0  0
   -0.9110   53.2860   11.8540 N   0  0  0  0  0  0  0  0  0  0  0  0
   -2.0970   53.3340   11.2350 N   0  0  0  0  0  0  0  0  0  0  0  0
   -6.6580   54.3300   11.4240 C   0  0  0  0  0  0  0  0  0  0  0  0
   -7.4990   55.5660   11.7450 C   0  0  0  0  0  0  0  0  0  0  0  0
   -7.7780   55.6710   13.2340 C   0  0  0  0  0  0  0  0  0  0  0  0
   -5.5810   56.2570   15.5660 H   0  0  0  0  0  0  0  0  0  0  0  0
   -4.4493   54.7460   14.1033 H   0  0  0  0  0  0  0  0  0  0  0  0
   -4.7390   52.7440   11.0590 H   0  0  0  0  0  0  0  0  0  0  0  0
   -2.1270   53.3660   10.2240 H   0  0  0  0  0  0  0  0  0  0  0  0
   -6.3257   54.3963   10.3775 H   0  0  0  0  0  0  0  0  0  0  0  0
   -7.2925   53.4494   11.6031 H   0  0  0  0  0  0  0  0  0  0  0  0
   -6.9551   56.4645   11.4180 H   0  0  0  0  0  0  0  0  0  0  0  0
   -8.4599   55.4794   11.2166 H   0  0  0  0  0  0  0  0  0  0  0  0
   -8.3036   56.6151   13.4401 H   0  0  0  0  0  0  0  0  0  0  0  0
   -8.4021   54.8201   13.5446 H   0  0  0  0  0  0  0  0  0  0  0  0
  1  2  2  3
  2  3  1  0
  3  4  2  0
  4  5  1  0
  5  6  1  0
  6  7  2  0
  7  8  1  0
  8  9  2  0
  9 10  1  0
  4 11  1  0
 11 12  1  0
 12 13  1  0
 13  2  1  0
 10  6  1  0
  1 14  1  0
  3 15  1  0
  5 16  1  0
 10 17  1  0
 11 18  1  0
 11 19  1  0
 12 20  1  0
 12 21  1  0
 13 22  1  0
 13 23  1  0
M  CHG  1   1   1
M  END
>  <meeko>  (1) 
{"is_sidechain": [false], "free_energy": -7.098, "intermolecular_energy": -7.928, "internal_energy": 0.055}

$$$$
3g2z_ligand
     RDKit          3D

 23 24  0  0  0  0  0  0  0  0999 V2000
   -1.1290   52.8450   12.4960 O   0  0  0  0  0  0  0  0  0  0  0  0
   -2.4070   52.9890   12.6110 C   0  0  0  0  0  0  0  0  0  0  0  0
   -3.0690   54.2700   12.9220 C   0  0  0  0  0  0  0  0  0  0  0  0
   -4.4030   54.3560   13.0960 C   0  0  0  0  0  0  0  0  0  0  0  0
   -5.0970   55.5380   13.3540 N   0  0  0  0  0  0  0  0  0  0  0  0
   -6.4420   55.7300   13.3820 C   0  0  0  0  0  0  0  0  0  0  0  0
   -7.2820   55.7560   14.3960 N   0  0  0  0  0  0  0  0  0  0  0  0
   -8.5280   55.9850   13.8670 N   0  0  0  0  0  0  0  0  0  0  0  0
   -8.4670   56.1000   12.5490 N   0  0  0  0  0  0  0  0  0  0  0  0
   -7.1740   55.9420   12.2430 N   0  0  0  0  0  0  0  0  0  0  0  0
   -5.2730   53.1060   13.0320 C   0  0  0  0  0  0  0  0  0  0  0  0
   -4.4900   51.8110   13.2500 C   0  0  0  0  0  0  0  0  0  0  0  0
   -3.2490   51.7650   12.3760 C   0  0  0  0  0  0  0  0  0  0  0  0
   -0.6320   53.6840   12.6520 H   0  0  0  0  0  0  0  0  0  0  0  0
   -2.4576   55.1797   13.0144 H   0  0  0  0  0  0  0  0  0  0  0  0
   -4.4910   56.3370   13.5500 H   0  0  0  0  0  0  0  0  0  0  0  0
   -6.8850   55.9900   11.2750 H   0  0  0  0  0  0  0  0  0  0  0  0
   -6.0480   53.1801   13.8091 H   0  0  0  0  0  0  0  0  0  0  0  0
   -5.7025   53.0601   12.0204 H   0  0  0  0  0  0  0  0  0  0  0  0
   -4.1877   51.7481   14.3058 H   0  0  0  0  0  0  0  0  0  0  0  0
   -5.1372   50.9634   12.9803 H   0  0  0  0  0  0  0  0  0  0  0  0
   -2.6631   50.8673   12.6227 H   0  0  0  0  0  0  0  0  0  0  0  0
   -3.5532   51.7341   11.3193 H   0  0  0  0  0  0  0  0  0  0  0  0
  1  2  2  3
  2  3  1  0
  3  4  2  0
  4  5  1  0
  5  6  1  0
  6  7  2  0
  7  8  1  0
  8  9  2  0
  9 10  1  0
  4 11  1  0
 11 12  1  0
 12 13  1  0
 13  2  1  0
 10  6  1  0
  1 14  1  0
  3 15  1  0
  5 16  1  0
 10 17  1  0
 11 18  1  0
 11 19  1  0
 12 20  1  0
 12 21  1  0
 13 22  1  0
 13 23  1  0
M  CHG  1   1   1
M  END
>  <meeko>  (2) 
{"is_sidechain": [false], "free_energy": -7.06, "intermolecular_energy": -7.689, "internal_energy": -0.141}

$$$$
3g2z_ligand
     RDKit          3D

 23 24  0  0  0  0  0  0  0  0999 V2000
   -5.0070   53.4670   15.4560 O   0  0  0  0  0  0  0  0  0  0  0  0
   -5.4060   53.5080   14.2290 C   0  0  0  0  0  0  0  0  0  0  0  0
   -6.0670   54.6750   13.6140 C   0  0  0  0  0  0  0  0  0  0  0  0
   -6.5240   54.6470   12.3460 C   0  0  0  0  0  0  0  0  0  0  0  0
   -7.1240   55.7230   11.6930 N   0  0  0  0  0  0  0  0  0  0  0  0
   -8.3290   56.2930   11.9530 C   0  0  0  0  0  0  0  0  0  0  0  0
   -9.0240   56.3550   13.0700 N   0  0  0  0  0  0  0  0  0  0  0  0
  -10.1730   57.0470   12.7790 N   0  0  0  0  0  0  0  0  0  0  0  0
  -10.1970   57.4100   11.5060 N   0  0  0  0  0  0  0  0  0  0  0  0
   -9.0540   56.9440   10.9880 N   0  0  0  0  0  0  0  0  0  0  0  0
   -6.4220   53.3720   11.5160 C   0  0  0  0  0  0  0  0  0  0  0  0
   -6.2420   52.1110   12.3630 C   0  0  0  0  0  0  0  0  0  0  0  0
   -5.1370   52.2890   13.3900 C   0  0  0  0  0  0  0  0  0  0  0  0
   -5.2020   54.2980   15.9520 H   0  0  0  0  0  0  0  0  0  0  0  0
   -6.1903   55.5935   14.2066 H   0  0  0  0  0  0  0  0  0  0  0  0
   -6.5590   56.1120   10.9360 H   0  0  0  0  0  0  0  0  0  0  0  0
   -8.8520   57.1040   10.0100 H   0  0  0  0  0  0  0  0  0  0  0  0
   -7.3430   53.2663   10.9239 H   0  0  0  0  0  0  0  0  0  0  0  0
   -5.5292   53.4676   10.8806 H   0  0  0  0  0  0  0  0  0  0  0  0
   -7.1850   51.8927   12.8855 H   0  0  0  0  0  0  0  0  0  0  0  0
   -5.9656   51.2812   11.6959 H   0  0  0  0  0  0  0  0  0  0  0  0
   -5.0965   51.4018   14.0390 H   0  0  0  0  0  0  0  0  0  0  0  0
   -4.1764   52.4142   12.8688 H   0  0  0  0  0  0  0  0  0  0  0  0
  1  2  2  3
  2  3  1  0
  3  4  2  0
  4  5  1  0
  5  6  1  0
  6  7  2  0
  7  8  1  0
  8  9  2  0
  9 10  1  0
  4 11  1  0
 11 12  1  0
 12 13  1  0
 13  2  1  0
 10  6  1  0
  1 14  1  0
  3 15  1  0
  5 16  1  0
 10 17  1  0
 11 18  1  0
 11 19  1  0
 12 20  1  0
 12 21  1  0
 13 22  1  0
 13 23  1  0
M  CHG  1   1   1
M  END
>  <meeko>  (3) 
{"is_sidechain": [false], "free_energy": -7.007, "intermolecular_energy": -7.673, "internal_energy": -0.099}

$$$$
3g2z_ligand
     RDKit          3D

 23 24  0  0  0  0  0  0  0  0999 V2000
   -0.8160   53.5660   11.3600 O   0  0  0  0  0  0  0  0  0  0  0  0
   -1.8920   53.0390   11.8430 C   0  0  0  0  0  0  0  0  0  0  0  0
   -2.7440   53.6850   12.8590 C   0  0  0  0  0  0  0  0  0  0  0  0
   -3.8220   53.0660   13.3790 C   0  0  0  0  0  0  0  0  0  0  0  0
   -4.6900   53.6310   14.3130 N   0  0  0  0  0  0  0  0  0  0  0  0
   -5.8750   54.2550   14.0830 C   0  0  0  0  0  0  0  0  0  0  0  0
   -6.9590   53.8350   13.4630 N   0  0  0  0  0  0  0  0  0  0  0  0
   -7.8640   54.8640   13.5140 N   0  0  0  0  0  0  0  0  0  0  0  0
   -7.3580   55.9070   14.1540 N   0  0  0  0  0  0  0  0  0  0  0  0
   -6.1230   55.5350   14.5090 N   0  0  0  0  0  0  0  0  0  0  0  0
   -4.1660   51.6380   12.9700 C   0  0  0  0  0  0  0  0  0  0  0  0
   -2.9830   50.8780   12.3690 C   0  0  0  0  0  0  0  0  0  0  0  0
   -2.2920   51.6980   11.2920 C   0  0  0  0  0  0  0  0  0  0  0  0
   -0.6110   54.4490   11.7520 H   0  0  0  0  0  0  0  0  0  0  0  0
   -2.4926   54.6996   13.2015 H   0  0  0  0  0  0  0  0  0  0  0  0
   -4.3710   53.5420   15.2790 H   0  0  0  0  0  0  0  0  0  0  0  0
   -5.5360   56.1830   15.0180 H   0  0  0  0  0  0  0  0  0  0  0  0
   -4.5139   51.0942   13.8606 H   0  0  0  0  0  0  0  0  0  0  0  0
   -4.9415   51.7003   12.1924 H   0  0  0  0  0  0  0  0  0  0  0  0
   -2.2600   50.6512   13.1664 H   0  0  0  0  0  0  0  0  0  0  0  0
   -3.3606   49.9513   11.9123 H   0  0  0  0  0  0  0  0  0  0  0  0
   -1.3945   51.1636   10.9470 H   0  0  0  0  0  0  0  0  0  0  0  0
   -2.9850   51.8457   10.4506 H   0  0  0  0  0  0  0  0  0  0  0  0
  1  2  2  3
  2  3  1  0
  3  4  2  0
  4  5  1  0
  5  6  1  0
  6  7  2  0
  7  8  1  0
  8  9  2  0
  9 10  1  0
  4 11  1  0
 11 12  1  0
 12 13  1  0
 13  2  1  0
 10  6  1  0
  1 14  1  0
  3 15  1  0
  5 16  1  0
 10 17  1  0
 11 18  1  0
 11 19  1  0
 12 20  1  0
 12 21  1  0
 13 22  1  0
 13 23  1  0
M  CHG  1   1   1
M  END
>  <meeko>  (4) 
{"is_sidechain": [false], "free_energy": -6.907, "intermolecular_energy": -7.502, "internal_energy": -0.158}

$$$$
3g2z_ligand
     RDKit          3D

 23 24  0  0  0  0  0  0  0  0999 V2000
   -7.9300   55.6130   13.5470 O   0  0  0  0  0  0  0  0  0  0  0  0
   -7.0490   54.6880   13.3550 C   0  0  0  0  0  0  0  0  0  0  0  0
   -5.5930   54.8980   13.4640 C   0  0  0  0  0  0  0  0  0  0  0  0
   -4.7110   53.9160   13.1910 C   0  0  0  0  0  0  0  0  0  0  0  0
   -3.3260   54.0350   13.3090 N   0  0  0  0  0  0  0  0  0  0  0  0
   -2.3680   53.3960   12.5880 C   0  0  0  0  0  0  0  0  0  0  0  0
   -1.8960   53.6410   11.3830 N   0  0  0  0  0  0  0  0  0  0  0  0
   -0.9380   52.6900   11.1360 N   0  0  0  0  0  0  0  0  0  0  0  0
   -0.8110   51.8680   12.1660 N   0  0  0  0  0  0  0  0  0  0  0  0
   -1.6970   52.3020   13.0710 N   0  0  0  0  0  0  0  0  0  0  0  0
   -5.1960   52.5570   12.6980 C   0  0  0  0  0  0  0  0  0  0  0  0
   -6.6060   52.5940   12.1080 C   0  0  0  0  0  0  0  0  0  0  0  0
   -7.5710   53.3150   13.0340 C   0  0  0  0  0  0  0  0  0  0  0  0
   -7.5270   56.4880   13.7650 H   0  0  0  0  0  0  0  0  0  0  0  0
   -5.2167   55.8832   13.7767 H   0  0  0  0  0  0  0  0  0  0  0  0
   -3.0300   54.6960   14.0290 H   0  0  0  0  0  0  0  0  0  0  0  0
   -1.7800   51.8170   13.9550 H   0  0  0  0  0  0  0  0  0  0  0  0
   -4.5026   52.1994   11.9225 H   0  0  0  0  0  0  0  0  0  0  0  0
   -5.2257   51.8866   13.5696 H   0  0  0  0  0  0  0  0  0  0  0  0
   -6.5768   53.1185   11.1415 H   0  0  0  0  0  0  0  0  0  0  0  0
   -6.9560   51.5594   11.9777 H   0  0  0  0  0  0  0  0  0  0  0  0
   -8.5505   53.4039   12.5413 H   0  0  0  0  0  0  0  0  0  0  0  0
   -7.6726   52.7408   13.9667 H   0  0  0  0  0  0  0  0  0  0  0  0
  1  2  2  3
  2  3  1  0
  3  4  2  0
  4  5  1  0
  5  6  1  0
  6  7  2  0
  7  8  1  0
  8  9  2  0
  9 10  1  0
  4 11  1  0
 11 12  1  0
 12 13  1  0
 13  2  1  0
 10  6  1  0
  1 14  1  0
  3 15  1  0
  5 16  1  0
 10 17  1  0
 11 18  1  0
 11 19  1  0
 12 20  1  0
 12 21  1  0
 13 22  1  0
 13 23  1  0
M  CHG  1   1   1
M  END
>  <meeko>  (5) 
{"is_sidechain": [false], "free_energy": -6.555, "intermolecular_energy": -7.103, "internal_energy": -0.163}

$$$$
3g2z_ligand
     RDKit          3D

 23 24  0  0  0  0  0  0  0  0999 V2000
   -6.8370   55.8090   12.7620 O   0  0  0  0  0  0  0  0  0  0  0  0
   -6.0960   54.7740   12.9820 C   0  0  0  0  0  0  0  0  0  0  0  0
   -4.6210   54.8020   12.9910 C   0  0  0  0  0  0  0  0  0  0  0  0
   -3.8900   53.6810   13.1610 C   0  0  0  0  0  0  0  0  0  0  0  0
   -2.4980   53.6410   13.2180 N   0  0  0  0  0  0  0  0  0  0  0  0
   -1.6520   52.8790   12.4750 C   0  0  0  0  0  0  0  0  0  0  0  0
   -1.2070   51.6550   12.6700 N   0  0  0  0  0  0  0  0  0  0  0  0
   -0.3780   51.3670   11.6160 N   0  0  0  0  0  0  0  0  0  0  0  0
   -0.3060   52.3890   10.7780 N   0  0  0  0  0  0  0  0  0  0  0  0
   -1.0950   53.3310   11.3070 N   0  0  0  0  0  0  0  0  0  0  0  0
   -4.5750   52.3260   13.2940 C   0  0  0  0  0  0  0  0  0  0  0  0
   -6.0020   52.3110   12.7450 C   0  0  0  0  0  0  0  0  0  0  0  0
   -6.8090   53.4830   13.2760 C   0  0  0  0  0  0  0  0  0  0  0  0
   -6.3120   56.6270   12.5860 H   0  0  0  0  0  0  0  0  0  0  0  0
   -4.1032   55.7630   12.8554 H   0  0  0  0  0  0  0  0  0  0  0  0
   -2.0950   54.2790   13.9060 H   0  0  0  0  0  0  0  0  0  0  0  0
   -1.1960   54.2180   10.8300 H   0  0  0  0  0  0  0  0  0  0  0  0
   -3.9821   51.5800   12.7445 H   0  0  0  0  0  0  0  0  0  0  0  0
   -4.6377   52.0977   14.3682 H   0  0  0  0  0  0  0  0  0  0  0  0
   -5.9644   52.3697   11.6472 H   0  0  0  0  0  0  0  0  0  0  0  0
   -6.4889   51.3790   13.0680 H   0  0  0  0  0  0  0  0  0  0  0  0
   -7.7968   53.4941   12.7921 H   0  0  0  0  0  0  0  0  0  0  0  0
   -6.9277   53.3759   14.3643 H   0  0  0  0  0  0  0  0  0  0  0  0
  1  2  2  3
  2  3  1  0
  3  4  2  0
  4  5  1  0
  5  6  1  0
  6  7  2  0
  7  8  1  0
  8  9  2  0
  9 10  1  0
  4 11  1  0
 11 12  1  0
 12 13  1  0
 13  2  1  0
 10  6  1  0
  1 14  1  0
  3 15  1  0
  5 16  1  0
 10 17  1  0
 11 18  1  0
 11 19  1  0
 12 20  1  0
 12 21  1  0
 13 22  1  0
 13 23  1  0
M  CHG  1   1   1
M  END
>  <meeko>  (6) 
{"is_sidechain": [false], "free_energy": -6.539, "intermolecular_energy": -7.11, "internal_energy": -0.138}

$$$$
3g2z_ligand
     RDKit          3D

 23 24  0  0  0  0  0  0  0  0999 V2000
   -5.2150   50.5560   11.8490 O   0  0  0  0  0  0  0  0  0  0  0  0
   -4.6430   51.6410   12.2540 C   0  0  0  0  0  0  0  0  0  0  0  0
   -5.3190   52.9500   12.3380 C   0  0  0  0  0  0  0  0  0  0  0  0
   -4.6600   54.0670   12.7050 C   0  0  0  0  0  0  0  0  0  0  0  0
   -5.2450   55.3260   12.8420 N   0  0  0  0  0  0  0  0  0  0  0  0
   -6.5540   55.6220   13.0510 C   0  0  0  0  0  0  0  0  0  0  0  0
   -7.2590   55.6500   14.1640 N   0  0  0  0  0  0  0  0  0  0  0  0
   -8.5350   56.0110   13.8110 N   0  0  0  0  0  0  0  0  0  0  0  0
   -8.6270   56.2050   12.5050 N   0  0  0  0  0  0  0  0  0  0  0  0
   -7.4000   55.9640   12.0280 N   0  0  0  0  0  0  0  0  0  0  0  0
   -3.1640   54.0230   12.9930 C   0  0  0  0  0  0  0  0  0  0  0  0
   -2.4630   52.8120   12.3750 C   0  0  0  0  0  0  0  0  0  0  0  0
   -3.2080   51.5260   12.6890 C   0  0  0  0  0  0  0  0  0  0  0  0
   -6.1580   50.6930   11.5870 H   0  0  0  0  0  0  0  0  0  0  0  0
   -6.3897   53.0160   12.0945 H   0  0  0  0  0  0  0  0  0  0  0  0
   -4.5790   56.0980   12.7790 H   0  0  0  0  0  0  0  0  0  0  0  0
   -7.2280   56.0510   11.0350 H   0  0  0  0  0  0  0  0  0  0  0  0
   -2.7038   54.9366   12.5885 H   0  0  0  0  0  0  0  0  0  0  0  0
   -3.0449   53.9461   14.0838 H   0  0  0  0  0  0  0  0  0  0  0  0
   -2.4168   52.9425   11.2837 H   0  0  0  0  0  0  0  0  0  0  0  0
   -1.4511   52.7409   12.8005 H   0  0  0  0  0  0  0  0  0  0  0  0
   -2.7319   50.6901   12.1555 H   0  0  0  0  0  0  0  0  0  0  0  0
   -3.1738   51.3456   13.7736 H   0  0  0  0  0  0  0  0  0  0  0  0
  1  2  2  3
  2  3  1  0
  3  4  2  0
  4  5  1  0
  5  6  1  0
  6  7  2  0
  7  8  1  0
  8  9  2  0
  9 10  1  0
  4 11  1  0
 11 12  1  0
 12 13  1  0
 13  2  1  0
 10  6  1  0
  1 14  1  0
  3 15  1  0
  5 16  1  0
 10 17  1  0
 11 18  1  0
 11 19  1  0
 12 20  1  0
 12 21  1  0
 13 22  1  0
 13 23  1  0
M  CHG  1   1   1
M  END
>  <meeko>  (7) 
{"is_sidechain": [false], "free_energy": -6.511, "intermolecular_energy": -7.031, "internal_energy": -0.187}

$$$$
3g2z_ligand
     RDKit          3D

 23 24  0  0  0  0  0  0  0  0999 V2000
   -3.9350   49.5270   11.8540 O   0  0  0  0  0  0  0  0  0  0  0  0
   -3.6020   50.7480   12.1100 C   0  0  0  0  0  0  0  0  0  0  0  0
   -4.4840   51.9090   11.8870 C   0  0  0  0  0  0  0  0  0  0  0  0
   -4.0660   53.1720   12.1100 C   0  0  0  0  0  0  0  0  0  0  0  0
   -4.8570   54.3100   11.9560 N   0  0  0  0  0  0  0  0  0  0  0  0
   -5.6250   54.9270   12.8910 C   0  0  0  0  0  0  0  0  0  0  0  0
   -6.9210   54.8590   13.1170 N   0  0  0  0  0  0  0  0  0  0  0  0
   -7.1770   55.6840   14.1830 N   0  0  0  0  0  0  0  0  0  0  0  0
   -6.0650   56.2560   14.6160 N   0  0  0  0  0  0  0  0  0  0  0  0
   -5.0970   55.7900   13.8170 N   0  0  0  0  0  0  0  0  0  0  0  0
   -2.6320   53.4450   12.5500 C   0  0  0  0  0  0  0  0  0  0  0  0
   -1.6720   52.2960   12.2360 C   0  0  0  0  0  0  0  0  0  0  0  0
   -2.2360   50.9650   12.7020 C   0  0  0  0  0  0  0  0  0  0  0  0
   -4.8450   49.4480   11.4770 H   0  0  0  0  0  0  0  0  0  0  0  0
   -5.5104   51.7404   11.5292 H   0  0  0  0  0  0  0  0  0  0  0  0
   -4.8280   54.7080   11.0160 H   0  0  0  0  0  0  0  0  0  0  0  0
   -4.1440   56.0960   13.9630 H   0  0  0  0  0  0  0  0  0  0  0  0
   -2.2749   54.3487   12.0344 H   0  0  0  0  0  0  0  0  0  0  0  0
   -2.6451   53.5683   13.6430 H   0  0  0  0  0  0  0  0  0  0  0  0
   -1.5057   52.2544   11.1494 H   0  0  0  0  0  0  0  0  0  0  0  0
   -0.7260   52.4781   12.7669 H   0  0  0  0  0  0  0  0  0  0  0  0
   -1.5667   50.1534   12.3804 H   0  0  0  0  0  0  0  0  0  0  0  0
   -2.3154   50.9713   13.7991 H   0  0  0  0  0  0  0  0  0  0  0  0
  1  2  2  3
  2  3  1  0
  3  4  2  0
  4  5  1  0
  5  6  1  0
  6  7  2  0
  7  8  1  0
  8  9  2  0
  9 10  1  0
  4 11  1  0
 11 12  1  0
 12 13  1  0
 13  2  1  0
 10  6  1  0
  1 14  1  0
  3 15  1  0
  5 16  1  0
 10 17  1  0
 11 18  1  0
 11 19  1  0
 12 20  1  0
 12 21  1  0
 13 22  1  0
 13 23  1  0
M  CHG  1   1   1
M  END
>  <meeko>  (8) 
{"is_sidechain": [false], "free_energy": -6.125, "intermolecular_energy": -6.614, "internal_energy": -0.172}

$$$$
3g2z_ligand
     RDKit          3D

 23 24  0  0  0  0  0  0  0  0999 V2000
    0.4420   54.0960    9.6290 O   0  0  0  0  0  0  0  0  0  0  0  0
   -0.5360   53.3420   10.0080 C   0  0  0  0  0  0  0  0  0  0  0  0
   -1.1870   53.4350   11.3280 C   0  0  0  0  0  0  0  0  0  0  0  0
   -2.1610   52.5820   11.7020 C   0  0  0  0  0  0  0  0  0  0  0  0
   -2.8430   52.6360   12.9170 N   0  0  0  0  0  0  0  0  0  0  0  0
   -3.7270   53.5770   13.3390 C   0  0  0  0  0  0  0  0  0  0  0  0
   -3.8900   54.8290   12.9620 N   0  0  0  0  0  0  0  0  0  0  0  0
   -4.9250   55.3320   13.7100 N   0  0  0  0  0  0  0  0  0  0  0  0
   -5.3990   54.4140   14.5380 N   0  0  0  0  0  0  0  0  0  0  0  0
   -4.6580   53.3220   14.3120 N   0  0  0  0  0  0  0  0  0  0  0  0
   -2.5870   51.4440   10.7800 C   0  0  0  0  0  0  0  0  0  0  0  0
   -1.5380   51.0950    9.7240 C   0  0  0  0  0  0  0  0  0  0  0  0
   -1.0420   52.3390    9.0080 C   0  0  0  0  0  0  0  0  0  0  0  0
    0.7230   54.7400   10.3230 H   0  0  0  0  0  0  0  0  0  0  0  0
   -0.8687   54.2226   12.0268 H   0  0  0  0  0  0  0  0  0  0  0  0
   -2.6360   51.8540   13.5410 H   0  0  0  0  0  0  0  0  0  0  0  0
   -4.8430   52.4800   14.8410 H   0  0  0  0  0  0  0  0  0  0  0  0
   -2.7758   50.5503   11.3930 H   0  0  0  0  0  0  0  0  0  0  0  0
   -3.4882   51.7785   10.2453 H   0  0  0  0  0  0  0  0  0  0  0  0
   -0.6867   50.6001   10.2142 H   0  0  0  0  0  0  0  0  0  0  0  0
   -2.0006   50.4279    8.9817 H   0  0  0  0  0  0  0  0  0  0  0  0
   -0.2261   52.0641    8.3233 H   0  0  0  0  0  0  0  0  0  0  0  0
   -1.8726   52.7835    8.4400 H   0  0  0  0  0  0  0  0  0  0  0  0
  1  2  2  3
  2  3  1  0
  3  4  2  0
  4  5  1  0
  5  6  1  0
  6  7  2  0
  7  8  1  0
  8  9  2  0
  9 10  1  0
  4 11  1  0
 11 12  1  0
 12 13  1  0
 13  2  1  0
 10  6  1  0
  1 14  1  0
  3 15  1  0
  5 16  1  0
 10 17  1  0
 11 18  1  0
 11 19  1  0
 12 20  1  0
 12 21  1  0
 13 22  1  0
 13 23  1  0
M  CHG  1   1   1
M  END
>  <meeko>  (9) 
{"is_sidechain": [false], "free_energy": -6.094, "intermolecular_energy": -6.648, "internal_energy": -0.104}

$$$$
