2pog_ligand
     RDKit          3D

 39 42  0  0  0  0  0  0  0  0999 V2000
    6.5410   51.7950   60.4980 O   0  0  0  0  0  0  0  0  0  0  0  0
    7.8490   51.7440   60.1150 C   0  0  0  0  0  0  0  0  0  0  0  0
    8.6410   52.8570   60.3640 C   0  0  0  0  0  0  0  0  0  0  0  0
    9.9860   52.8490   59.9870 C   0  0  0  0  0  0  0  0  0  0  0  0
   10.5480   51.7240   59.3620 C   0  0  0  0  0  0  0  0  0  0  0  0
   12.0040   51.6940   58.9220 C   0  0  2  0  0  0  0  0  0  0  0  0
   12.2980   50.4510   58.2700 O   0  0  0  0  0  0  0  0  0  0  0  0
   13.5810   50.3970   57.7940 C   0  0  0  0  0  0  0  0  0  0  0  0
   13.7880   49.5700   56.6900 C   0  0  0  0  0  0  0  0  0  0  0  0
   15.0530   49.4710   56.1180 C   0  0  0  0  0  0  0  0  0  0  0  0
   16.1150   50.1990   56.6530 C   0  0  0  0  0  0  0  0  0  0  0  0
   15.9040   51.0050   57.7730 C   0  0  0  0  0  0  0  0  0  0  0  0
   16.9420   51.7230   58.2990 O   0  0  0  0  0  0  0  0  0  0  0  0
   14.6420   51.1010   58.3770 C   0  0  0  0  0  0  0  0  0  0  0  0
   14.4290   51.9310   59.6220 C   0  0  2  0  0  0  0  0  0  0  0  0
   15.2290   51.3960   60.8300 C   0  0  0  0  0  0  0  0  0  0  0  0
   14.2210   51.1660   61.9480 C   0  0  0  0  0  0  0  0  0  0  0  0
   12.9170   50.9080   61.2140 C   0  0  0  0  0  0  0  0  0  0  0  0
   12.9600   51.9490   60.0890 C   0  0  2  0  0  0  0  0  0  0  0  0
    9.7240   50.6100   59.1170 C   0  0  0  0  0  0  0  0  0  0  0  0
    8.3780   50.6180   59.4940 C   0  0  0  0  0  0  0  0  0  0  0  0
    6.3560   52.6830   60.8450 H   0  0  0  0  0  0  0  0  0  0  0  0
    8.2109   53.7417   60.8563 H   0  0  0  0  0  0  0  0  0  0  0  0
   10.6113   53.7328   60.1816 H   0  0  0  0  0  0  0  0  0  0  0  0
   12.1570   52.5126   58.2033 H   0  0  0  0  0  0  0  0  0  0  0  0
   12.9495   48.9947   56.2705 H   0  0  0  0  0  0  0  0  0  0  0  0
   15.2145   48.8201   55.2461 H   0  0  0  0  0  0  0  0  0  0  0  0
   17.1134   50.1385   56.1951 H   0  0  0  0  0  0  0  0  0  0  0  0
   17.7730   51.3920   57.9240 H   0  0  0  0  0  0  0  0  0  0  0  0
   14.7633   52.9360   59.3249 H   0  0  0  0  0  0  0  0  0  0  0  0
   15.7275   50.4513   60.5674 H   0  0  0  0  0  0  0  0  0  0  0  0
   16.0089   52.1081   61.1377 H   0  0  0  0  0  0  0  0  0  0  0  0
   14.5053   50.2965   62.5589 H   0  0  0  0  0  0  0  0  0  0  0  0
   14.1563   52.0159   62.6434 H   0  0  0  0  0  0  0  0  0  0  0  0
   12.8839   49.8858   60.8091 H   0  0  0  0  0  0  0  0  0  0  0  0
   12.0277   50.9915   61.8560 H   0  0  0  0  0  0  0  0  0  0  0  0
   12.6187   52.9241   60.4667 H   0  0  0  0  0  0  0  0  0  0  0  0
   10.1443   49.7218   58.6226 H   0  0  0  0  0  0  0  0  0  0  0  0
    7.7427   49.7410   59.3010 H   0  0  0  0  0  0  0  0  0  0  0  0
  1  2  1  0
  2  3  2  0
  3  4  1  0
  4  5  2  0
  5  6  1  0
  6  7  1  0
  7  8  1  0
  8  9  2  0
  9 10  1  0
 10 11  2  0
 11 12  1  0
 12 13  1  0
 12 14  2  0
 14 15  1  0
 15 16  1  0
 16 17  1  0
 17 18  1  0
 18 19  1  0
  5 20  1  0
 20 21  2  0
 21  2  1  0
 19  6  1  0
 14  8  1  0
 19 15  1  0
  1 22  1  0
  3 23  1  0
  4 24  1  0
  6 25  1  6
  9 26  1  0
 10 27  1  0
 11 28  1  0
 13 29  1  0
 15 30  1  6
 16 31  1  0
 16 32  1  0
 17 33  1  0
 17 34  1  0
 18 35  1  0
 18 36  1  0
 19 37  1  1
 20 38  1  0
 21 39  1  0
M  END
>  <meeko>  (1) 
{"is_sidechain": [false], "free_energy": -9.684, "intermolecular_energy": -10.817, "internal_energy": -0.564}

$$$$
2pog_ligand
     RDKit          3D

 39 42  0  0  0  0  0  0  0  0999 V2000
    6.5950   53.2550   59.0680 O   0  0  0  0  0  0  0  0  0  0  0  0
    7.9110   52.9160   59.1830 C   0  0  0  0  0  0  0  0  0  0  0  0
    8.8410   53.9440   59.2610 C   0  0  0  0  0  0  0  0  0  0  0  0
   10.1990   53.6430   59.3780 C   0  0  0  0  0  0  0  0  0  0  0  0
   10.6360   52.3090   59.4210 C   0  0  0  0  0  0  0  0  0  0  0  0
   12.1120   51.9510   59.5260 C   0  0  2  0  0  0  0  0  0  0  0  0
   12.2980   50.5480   59.2880 O   0  0  0  0  0  0  0  0  0  0  0  0
   13.6170   50.1820   59.3060 C   0  0  0  0  0  0  0  0  0  0  0  0
   13.9520   49.0680   58.5360 C   0  0  0  0  0  0  0  0  0  0  0  0
   15.2740   48.6360   58.4700 C   0  0  0  0  0  0  0  0  0  0  0  0
   16.2630   49.3190   59.1760 C   0  0  0  0  0  0  0  0  0  0  0  0
   15.9150   50.4180   59.9620 C   0  0  0  0  0  0  0  0  0  0  0  0
   16.8820   51.0930   60.6540 O   0  0  0  0  0  0  0  0  0  0  0  0
   14.5860   50.8560   60.0600 C   0  0  0  0  0  0  0  0  0  0  0  0
   14.2050   52.0120   60.9560 C   0  0  2  0  0  0  0  0  0  0  0  0
   14.4650   51.7110   62.4480 C   0  0  0  0  0  0  0  0  0  0  0  0
   13.1440   51.9400   63.1710 C   0  0  0  0  0  0  0  0  0  0  0  0
   12.0960   51.6870   62.1020 C   0  0  0  0  0  0  0  0  0  0  0  0
   12.7070   52.3680   60.8730 C   0  0  2  0  0  0  0  0  0  0  0  0
    9.6760   51.2850   59.3350 C   0  0  0  0  0  0  0  0  0  0  0  0
    8.3160   51.5860   59.2180 C   0  0  0  0  0  0  0  0  0  0  0  0
    6.0980   52.8020   59.7690 H   0  0  0  0  0  0  0  0  0  0  0  0
    8.5087   54.9922   59.2307 H   0  0  0  0  0  0  0  0  0  0  0  0
   10.9344   54.4589   59.4371 H   0  0  0  0  0  0  0  0  0  0  0  0
   12.6532   52.5148   58.7519 H   0  0  0  0  0  0  0  0  0  0  0  0
   13.1702   48.5299   57.9799 H   0  0  0  0  0  0  0  0  0  0  0  0
   15.5373   47.7578   57.8622 H   0  0  0  0  0  0  0  0  0  0  0  0
   17.3119   48.9934   59.1138 H   0  0  0  0  0  0  0  0  0  0  0  0
   17.7220   51.0170   60.1730 H   0  0  0  0  0  0  0  0  0  0  0  0
   14.8311   52.8403   60.5928 H   0  0  0  0  0  0  0  0  0  0  0  0
   14.7917   50.6682   62.5742 H   0  0  0  0  0  0  0  0  0  0  0  0
   15.2576   52.3577   62.8524 H   0  0  0  0  0  0  0  0  0  0  0  0
   13.0281   51.2353   64.0076 H   0  0  0  0  0  0  0  0  0  0  0  0
   13.0688   52.9457   63.6102 H   0  0  0  0  0  0  0  0  0  0  0  0
   11.9546   50.6097   61.9306 H   0  0  0  0  0  0  0  0  0  0  0  0
   11.0988   52.0693   62.3655 H   0  0  0  0  0  0  0  0  0  0  0  0
   12.4975   53.4475   60.9005 H   0  0  0  0  0  0  0  0  0  0  0  0
    9.9994   50.2339   59.3601 H   0  0  0  0  0  0  0  0  0  0  0  0
    7.5725   50.7779   59.1542 H   0  0  0  0  0  0  0  0  0  0  0  0
  1  2  1  0
  2  3  2  0
  3  4  1  0
  4  5  2  0
  5  6  1  0
  6  7  1  0
  7  8  1  0
  8  9  2  0
  9 10  1  0
 10 11  2  0
 11 12  1  0
 12 13  1  0
 12 14  2  0
 14 15  1  0
 15 16  1  0
 16 17  1  0
 17 18  1  0
 18 19  1  0
  5 20  1  0
 20 21  2  0
 21  2  1  0
 19  6  1  0
 14  8  1  0
 19 15  1  0
  1 22  1  0
  3 23  1  0
  4 24  1  0
  6 25  1  6
  9 26  1  0
 10 27  1  0
 11 28  1  0
 13 29  1  0
 15 30  1  6
 16 31  1  0
 16 32  1  0
 17 33  1  0
 17 34  1  0
 18 35  1  0
 18 36  1  0
 19 37  1  1
 20 38  1  0
 21 39  1  0
M  END
>  <meeko>  (2) 
{"is_sidechain": [false], "free_energy": -9.603, "intermolecular_energy": -10.736, "internal_energy": -0.553}

$$$$
2pog_ligand
     RDKit          3D

 39 42  0  0  0  0  0  0  0  0999 V2000
    6.5410   53.6260   58.8070 O   0  0  0  0  0  0  0  0  0  0  0  0
    7.7100   52.9680   59.0490 C   0  0  0  0  0  0  0  0  0  0  0  0
    7.7280   51.5910   58.8700 C   0  0  0  0  0  0  0  0  0  0  0  0
    8.9040   50.8760   59.1070 C   0  0  0  0  0  0  0  0  0  0  0  0
   10.0710   51.5360   59.5230 C   0  0  0  0  0  0  0  0  0  0  0  0
   11.3610   50.7800   59.8100 C   0  0  2  0  0  0  0  0  0  0  0  0
   12.1480   51.4940   60.7730 O   0  0  0  0  0  0  0  0  0  0  0  0
   13.2920   50.8240   61.1180 C   0  0  0  0  0  0  0  0  0  0  0  0
   13.7900   51.0850   62.3950 C   0  0  0  0  0  0  0  0  0  0  0  0
   14.9340   50.4300   62.8450 C   0  0  0  0  0  0  0  0  0  0  0  0
   15.5810   49.5160   62.0170 C   0  0  0  0  0  0  0  0  0  0  0  0
   15.0890   49.2790   60.7320 C   0  0  0  0  0  0  0  0  0  0  0  0
   15.7200   48.3800   59.9170 O   0  0  0  0  0  0  0  0  0  0  0  0
   13.9520   49.9440   60.2520 C   0  0  0  0  0  0  0  0  0  0  0  0
   13.4540   49.7270   58.8400 C   0  0  2  0  0  0  0  0  0  0  0  0
   14.4710   50.2000   57.7790 C   0  0  0  0  0  0  0  0  0  0  0  0
   13.7320   51.1870   56.8840 C   0  0  0  0  0  0  0  0  0  0  0  0
   12.6470   51.7510   57.7830 C   0  0  0  0  0  0  0  0  0  0  0  0
   12.1600   50.5070   58.5330 C   0  0  2  0  0  0  0  0  0  0  0  0
   10.0270   52.9300   59.7020 C   0  0  0  0  0  0  0  0  0  0  0  0
    8.8510   53.6460   59.4650 C   0  0  0  0  0  0  0  0  0  0  0  0
    6.5520   54.4650   59.2970 H   0  0  0  0  0  0  0  0  0  0  0  0
    6.8190   51.0652   58.5426 H   0  0  0  0  0  0  0  0  0  0  0  0
    8.9159   49.7851   58.9663 H   0  0  0  0  0  0  0  0  0  0  0  0
   11.0927   49.8001   60.2316 H   0  0  0  0  0  0  0  0  0  0  0  0
   13.2788   51.8086   63.0469 H   0  0  0  0  0  0  0  0  0  0  0  0
   15.3256   50.6343   63.8524 H   0  0  0  0  0  0  0  0  0  0  0  0
   16.4751   48.9835   62.3736 H   0  0  0  0  0  0  0  0  0  0  0  0
   15.0850   47.6930   59.6590 H   0  0  0  0  0  0  0  0  0  0  0  0
   13.2852   48.6413   58.7866 H   0  0  0  0  0  0  0  0  0  0  0  0
   15.3258   50.6934   58.2648 H   0  0  0  0  0  0  0  0  0  0  0  0
   14.8643   49.3526   57.1983 H   0  0  0  0  0  0  0  0  0  0  0  0
   14.4073   51.9835   56.5381 H   0  0  0  0  0  0  0  0  0  0  0  0
   13.3286   50.7166   55.9751 H   0  0  0  0  0  0  0  0  0  0  0  0
   13.0554   52.4998   58.4776 H   0  0  0  0  0  0  0  0  0  0  0  0
   11.8494   52.2731   57.2341 H   0  0  0  0  0  0  0  0  0  0  0  0
   11.4369   49.9556   57.9141 H   0  0  0  0  0  0  0  0  0  0  0  0
   10.9302   53.4636   60.0329 H   0  0  0  0  0  0  0  0  0  0  0  0
    8.8276   54.7367   59.6062 H   0  0  0  0  0  0  0  0  0  0  0  0
  1  2  1  0
  2  3  2  0
  3  4  1  0
  4  5  2  0
  5  6  1  0
  6  7  1  0
  7  8  1  0
  8  9  2  0
  9 10  1  0
 10 11  2  0
 11 12  1  0
 12 13  1  0
 12 14  2  0
 14 15  1  0
 15 16  1  0
 16 17  1  0
 17 18  1  0
 18 19  1  0
  5 20  1  0
 20 21  2  0
 21  2  1  0
 19  6  1  0
 14  8  1  0
 19 15  1  0
  1 22  1  0
  3 23  1  0
  4 24  1  0
  6 25  1  1
  9 26  1  0
 10 27  1  0
 11 28  1  0
 13 29  1  0
 15 30  1  6
 16 31  1  0
 16 32  1  0
 17 33  1  0
 17 34  1  0
 18 35  1  0
 18 36  1  0
 19 37  1  6
 20 38  1  0
 21 39  1  0
M  END
>  <meeko>  (3) 
{"is_sidechain": [false], "free_energy": -8.783, "intermolecular_energy": -9.939, "internal_energy": -0.435}

$$$$
2pog_ligand
     RDKit          3D

 39 42  0  0  0  0  0  0  0  0999 V2000
   17.4080   50.1190   56.8140 O   0  0  0  0  0  0  0  0  0  0  0  0
   16.0860   50.3320   57.0700 C   0  0  0  0  0  0  0  0  0  0  0  0
   15.7550   51.3210   57.9860 C   0  0  0  0  0  0  0  0  0  0  0  0
   14.4130   51.5730   58.2790 C   0  0  0  0  0  0  0  0  0  0  0  0
   13.3930   50.8380   57.6550 C   0  0  0  0  0  0  0  0  0  0  0  0
   11.9230   51.0750   57.9700 C   0  0  2  0  0  0  0  0  0  0  0  0
   11.7740   52.2600   58.7660 O   0  0  0  0  0  0  0  0  0  0  0  0
   10.4620   52.5580   59.0250 C   0  0  0  0  0  0  0  0  0  0  0  0
   10.1740   53.9060   59.2370 C   0  0  0  0  0  0  0  0  0  0  0  0
    8.8630   54.3100   59.4800 C   0  0  0  0  0  0  0  0  0  0  0  0
    7.8410   53.3630   59.5130 C   0  0  0  0  0  0  0  0  0  0  0  0
    8.1430   52.0140   59.3230 C   0  0  0  0  0  0  0  0  0  0  0  0
    7.1420   51.0820   59.3520 O   0  0  0  0  0  0  0  0  0  0  0  0
    9.4590   51.5840   59.1000 C   0  0  0  0  0  0  0  0  0  0  0  0
    9.7900   50.1160   58.9500 C   0  0  2  0  0  0  0  0  0  0  0  0
    9.4950   49.3120   60.2350 C   0  0  0  0  0  0  0  0  0  0  0  0
   10.7900   48.6020   60.6060 C   0  0  0  0  0  0  0  0  0  0  0  0
   11.8720   49.4870   60.0150 C   0  0  0  0  0  0  0  0  0  0  0  0
   11.2820   49.8650   58.6520 C   0  0  2  0  0  0  0  0  0  0  0  0
   13.7540   49.8370   56.7340 C   0  0  0  0  0  0  0  0  0  0  0  0
   15.0970   49.5860   56.4400 C   0  0  0  0  0  0  0  0  0  0  0  0
   17.8270   50.9740   56.6220 H   0  0  0  0  0  0  0  0  0  0  0  0
   16.5467   51.9040   58.4792 H   0  0  0  0  0  0  0  0  0  0  0  0
   14.1526   52.3558   59.0066 H   0  0  0  0  0  0  0  0  0  0  0  0
   11.3914   51.2203   57.0180 H   0  0  0  0  0  0  0  0  0  0  0  0
   10.9829   54.6511   59.2123 H   0  0  0  0  0  0  0  0  0  0  0  0
    8.6352   55.3734   59.6453 H   0  0  0  0  0  0  0  0  0  0  0  0
    6.8015   53.6774   59.6879 H   0  0  0  0  0  0  0  0  0  0  0  0
    7.4730   50.2810   59.7890 H   0  0  0  0  0  0  0  0  0  0  0  0
    9.1567   49.7898   58.1118 H   0  0  0  0  0  0  0  0  0  0  0  0
    9.1872   49.9894   61.0452 H   0  0  0  0  0  0  0  0  0  0  0  0
    8.6779   48.5929   60.0762 H   0  0  0  0  0  0  0  0  0  0  0  0
   10.8973   48.5286   61.6983 H   0  0  0  0  0  0  0  0  0  0  0  0
   10.8319   47.5699   60.2280 H   0  0  0  0  0  0  0  0  0  0  0  0
   12.0401   50.3787   60.6367 H   0  0  0  0  0  0  0  0  0  0  0  0
   12.8533   48.9947   59.9472 H   0  0  0  0  0  0  0  0  0  0  0  0
   11.4683   49.0594   57.9265 H   0  0  0  0  0  0  0  0  0  0  0  0
   12.9697   49.2451   56.2396 H   0  0  0  0  0  0  0  0  0  0  0  0
   15.3692   48.8042   55.7157 H   0  0  0  0  0  0  0  0  0  0  0  0
  1  2  1  0
  2  3  2  0
  3  4  1  0
  4  5  2  0
  5  6  1  0
  6  7  1  0
  7  8  1  0
  8  9  2  0
  9 10  1  0
 10 11  2  0
 11 12  1  0
 12 13  1  0
 12 14  2  0
 14 15  1  0
 15 16  1  0
 16 17  1  0
 17 18  1  0
 18 19  1  0
  5 20  1  0
 20 21  2  0
 21  2  1  0
 19  6  1  0
 14  8  1  0
 19 15  1  0
  1 22  1  0
  3 23  1  0
  4 24  1  0
  6 25  1  6
  9 26  1  0
 10 27  1  0
 11 28  1  0
 13 29  1  0
 15 30  1  6
 16 31  1  0
 16 32  1  0
 17 33  1  0
 17 34  1  0
 18 35  1  0
 18 36  1  0
 19 37  1  6
 20 38  1  0
 21 39  1  0
M  END
>  <meeko>  (4) 
{"is_sidechain": [false], "free_energy": -6.783, "intermolecular_energy": -7.579, "internal_energy": -0.561}

$$$$
