1nc3_ligand
     RDKit          3D

 32 34  0  0  0  0  0  0  0  0999 V2000
   43.0280   43.2140   31.5320 N   0  0  0  0  0  0  0  0  0  0  0  0
   43.0140   44.3680   30.7650 C   0  0  0  0  0  0  0  0  0  0  0  0
   43.6330   44.3480   29.5740 N   0  0  0  0  0  0  0  0  0  0  0  0
   43.6380   45.4760   28.8340 C   0  0  0  0  0  0  0  0  0  0  0  0
   43.0950   46.6640   29.1380 N   0  0  0  0  0  0  0  0  0  0  0  0
   42.4610   46.6620   30.3310 C   0  0  0  0  0  0  0  0  0  0  0  0
   41.7520   47.6690   31.0360 C   0  0  0  0  0  0  0  0  0  0  0  0
   41.5060   49.0900   30.6270 C   0  0  2  0  0  0  0  0  0  0  0  0
   41.4620   49.9980   31.7480 O   0  0  0  0  0  0  0  0  0  0  0  0
   40.2970   50.8510   31.6090 C   0  0  2  0  0  0  0  0  0  0  0  0
   39.2690   50.4120   32.6570 C   0  0  0  0  0  0  0  0  0  0  0  0
   39.2040   51.3740   33.7100 O   0  0  0  0  0  0  0  0  0  0  0  0
   39.7890   50.6670   30.1830 C   0  0  1  0  0  0  0  0  0  0  0  0
   40.4930   51.5350   29.2850 O   0  0  0  0  0  0  0  0  0  0  0  0
   40.1690   49.2270   29.8880 C   0  0  1  0  0  0  0  0  0  0  0  0
   40.2620   49.0040   28.4790 O   0  0  0  0  0  0  0  0  0  0  0  0
   41.3220   47.2270   32.2340 N   0  0  0  0  0  0  0  0  0  0  0  0
   41.6870   45.9270   32.2370 N   0  0  0  0  0  0  0  0  0  0  0  0
   42.4140   45.5500   31.1490 C   0  0  0  0  0  0  0  0  0  0  0  0
   43.0210   43.3620   32.5310 H   0  0  0  0  0  0  0  0  0  0  0  0
   43.7820   42.6120   31.2100 H   0  0  0  0  0  0  0  0  0  0  0  0
   44.1501   45.4137   27.8625 H   0  0  0  0  0  0  0  0  0  0  0  0
   42.3526   49.3532   29.9758 H   0  0  0  0  0  0  0  0  0  0  0  0
   40.5122   51.9168   31.7754 H   0  0  0  0  0  0  0  0  0  0  0  0
   38.2804   50.3235   32.1828 H   0  0  0  0  0  0  0  0  0  0  0  0
   39.5710   49.4399   33.0740 H   0  0  0  0  0  0  0  0  0  0  0  0
   38.3720   51.8670   33.5510 H   0  0  0  0  0  0  0  0  0  0  0  0
   38.7176   50.8887   30.0689 H   0  0  0  0  0  0  0  0  0  0  0  0
   41.3010   51.8050   29.7690 H   0  0  0  0  0  0  0  0  0  0  0  0
   39.4361   48.4763   30.2184 H   0  0  0  0  0  0  0  0  0  0  0  0
   40.1940   48.0350   28.3520 H   0  0  0  0  0  0  0  0  0  0  0  0
   41.4100   45.3470   33.0220 H   0  0  0  0  0  0  0  0  0  0  0  0
  1  2  1  0
  2  3  2  0
  3  4  1  0
  4  5  2  0
  5  6  1  0
  6  7  1  0
  7  8  1  0
  8  9  1  0
  9 10  1  0
 10 11  1  0
 11 12  1  0
 10 13  1  0
 13 14  1  0
 13 15  1  0
 15 16  1  0
  7 17  2  0
 17 18  1  0
 18 19  1  0
 19  2  1  0
 19  6  2  0
 15  8  1  0
  1 20  1  0
  1 21  1  0
  4 22  1  0
  8 23  1  6
 10 24  1  1
 11 25  1  0
 11 26  1  0
 12 27  1  0
 13 28  1  1
 14 29  1  0
 15 30  1  1
 16 31  1  0
 18 32  1  0
M  END
>  <meeko>  (1) 
{"is_sidechain": [false], "free_energy": -6.757, "intermolecular_energy": -8.337, "internal_energy": -0.414}

$$$$
1nc3_ligand
     RDKit          3D

 32 34  0  0  0  0  0  0  0  0999 V2000
   46.1810   47.3280   25.2530 N   0  0  0  0  0  0  0  0  0  0  0  0
   45.5280   46.2030   25.7270 C   0  0  0  0  0  0  0  0  0  0  0  0
   44.9500   46.2650   26.9370 N   0  0  0  0  0  0  0  0  0  0  0  0
   44.3300   45.1640   27.4100 C   0  0  0  0  0  0  0  0  0  0  0  0
   44.2110   43.9660   26.8180 N   0  0  0  0  0  0  0  0  0  0  0  0
   44.7820   43.9260   25.5940 C   0  0  0  0  0  0  0  0  0  0  0  0
   44.8890   42.8950   24.6250 C   0  0  0  0  0  0  0  0  0  0  0  0
   44.3740   41.4890   24.7030 C   0  0  2  0  0  0  0  0  0  0  0  0
   45.1890   40.5500   23.9710 O   0  0  0  0  0  0  0  0  0  0  0  0
   44.3210   39.7160   23.1620 C   0  0  2  0  0  0  0  0  0  0  0  0
   44.5010   40.1360   21.6990 C   0  0  0  0  0  0  0  0  0  0  0  0
   45.5590   39.3880   21.1030 O   0  0  0  0  0  0  0  0  0  0  0  0
   42.9010   39.9470   23.6630 C   0  0  1  0  0  0  0  0  0  0  0  0
   42.6200   39.0970   24.7840 O   0  0  0  0  0  0  0  0  0  0  0  0
   42.9540   41.3900   24.1310 C   0  0  1  0  0  0  0  0  0  0  0  0
   41.9260   41.6540   25.0890 O   0  0  0  0  0  0  0  0  0  0  0  0
   45.6000   43.2940   23.5520 N   0  0  0  0  0  0  0  0  0  0  0  0
   45.8590   44.5930   23.8140 N   0  0  0  0  0  0  0  0  0  0  0  0
   45.4390   45.0080   25.0410 C   0  0  0  0  0  0  0  0  0  0  0  0
   46.5140   47.2640   24.3010 H   0  0  0  0  0  0  0  0  0  0  0  0
   46.8990   47.6010   25.9210 H   0  0  0  0  0  0  0  0  0  0  0  0
   43.8653   45.2604   28.4023 H   0  0  0  0  0  0  0  0  0  0  0  0
   44.3939   41.2338   25.7728 H   0  0  0  0  0  0  0  0  0  0  0  0
   44.5528   38.6432   23.2347 H   0  0  0  0  0  0  0  0  0  0  0  0
   43.5673   39.9482   21.1487 H   0  0  0  0  0  0  0  0  0  0  0  0
   44.7490   41.2069   21.6589 H   0  0  0  0  0  0  0  0  0  0  0  0
   45.1910   39.0590   20.2560 H   0  0  0  0  0  0  0  0  0  0  0  0
   42.1318   39.7410   22.9041 H   0  0  0  0  0  0  0  0  0  0  0  0
   42.8070   39.6450   25.5750 H   0  0  0  0  0  0  0  0  0  0  0  0
   42.7706   42.1390   23.3466 H   0  0  0  0  0  0  0  0  0  0  0  0
   41.1160   41.8460   24.5730 H   0  0  0  0  0  0  0  0  0  0  0  0
   46.3360   45.1450   23.1090 H   0  0  0  0  0  0  0  0  0  0  0  0
  1  2  1  0
  2  3  2  0
  3  4  1  0
  4  5  2  0
  5  6  1  0
  6  7  1  0
  7  8  1  0
  8  9  1  0
  9 10  1  0
 10 11  1  0
 11 12  1  0
 10 13  1  0
 13 14  1  0
 13 15  1  0
 15 16  1  0
  7 17  2  0
 17 18  1  0
 18 19  1  0
 19  2  1  0
 19  6  2  0
 15  8  1  0
  1 20  1  0
  1 21  1  0
  4 22  1  0
  8 23  1  1
 10 24  1  6
 11 25  1  0
 11 26  1  0
 12 27  1  0
 13 28  1  6
 14 29  1  0
 15 30  1  6
 16 31  1  0
 18 32  1  0
M  END
>  <meeko>  (2) 
{"is_sidechain": [false], "free_energy": -6.617, "intermolecular_energy": -8.159, "internal_energy": -0.42}

$$$$
1nc3_ligand
     RDKit          3D

 32 34  0  0  0  0  0  0  0  0999 V2000
   43.4320   38.0900   23.2450 N   0  0  0  0  0  0  0  0  0  0  0  0
   44.1140   39.2840   23.0820 C   0  0  0  0  0  0  0  0  0  0  0  0
   44.9430   39.4050   22.0330 N   0  0  0  0  0  0  0  0  0  0  0  0
   45.6250   40.5590   21.8820 C   0  0  0  0  0  0  0  0  0  0  0  0
   45.5930   41.6450   22.6710 N   0  0  0  0  0  0  0  0  0  0  0  0
   44.7410   41.5140   23.7110 C   0  0  0  0  0  0  0  0  0  0  0  0
   44.3870   42.3900   24.7690 C   0  0  0  0  0  0  0  0  0  0  0  0
   44.8930   43.7750   25.0380 C   0  0  2  0  0  0  0  0  0  0  0  0
   46.3240   43.8240   25.2230 O   0  0  0  0  0  0  0  0  0  0  0  0
   46.6110   44.6130   26.4060 C   0  0  2  0  0  0  0  0  0  0  0  0
   47.0770   43.6530   27.5060 C   0  0  0  0  0  0  0  0  0  0  0  0
   48.5030   43.6080   27.5420 O   0  0  0  0  0  0  0  0  0  0  0  0
   45.3200   45.3360   26.7720 C   0  0  1  0  0  0  0  0  0  0  0  0
   45.1990   46.5550   26.0270 O   0  0  0  0  0  0  0  0  0  0  0  0
   44.2580   44.3580   26.3060 C   0  0  1  0  0  0  0  0  0  0  0  0
   43.0160   45.0260   26.0750 O   0  0  0  0  0  0  0  0  0  0  0  0
   43.5190   41.8110   25.6230 N   0  0  0  0  0  0  0  0  0  0  0  0
   43.2690   40.6140   25.0520 N   0  0  0  0  0  0  0  0  0  0  0  0
   44.0100   40.3630   23.9370 C   0  0  0  0  0  0  0  0  0  0  0  0
   43.6970   37.3530   22.6070 H   0  0  0  0  0  0  0  0  0  0  0  0
   42.4320   38.2790   23.2610 H   0  0  0  0  0  0  0  0  0  0  0  0
   46.2879   40.6175   21.0061 H   0  0  0  0  0  0  0  0  0  0  0  0
   44.6182   44.3601   24.1479 H   0  0  0  0  0  0  0  0  0  0  0  0
   47.4049   45.3589   26.2534 H   0  0  0  0  0  0  0  0  0  0  0  0
   46.6988   44.0018   28.4783 H   0  0  0  0  0  0  0  0  0  0  0  0
   46.6890   42.6457   27.2946 H   0  0  0  0  0  0  0  0  0  0  0  0
   48.7260   43.4230   28.4790 H   0  0  0  0  0  0  0  0  0  0  0  0
   45.2576   45.6043   27.8370 H   0  0  0  0  0  0  0  0  0  0  0  0
   44.3190   46.9150   26.2650 H   0  0  0  0  0  0  0  0  0  0  0  0
   43.9962   43.5761   27.0340 H   0  0  0  0  0  0  0  0  0  0  0  0
   43.1520   45.9570   26.3480 H   0  0  0  0  0  0  0  0  0  0  0  0
   42.5790   40.0060   25.4800 H   0  0  0  0  0  0  0  0  0  0  0  0
  1  2  1  0
  2  3  2  0
  3  4  1  0
  4  5  2  0
  5  6  1  0
  6  7  1  0
  7  8  1  0
  8  9  1  0
  9 10  1  0
 10 11  1  0
 11 12  1  0
 10 13  1  0
 13 14  1  0
 13 15  1  0
 15 16  1  0
  7 17  2  0
 17 18  1  0
 18 19  1  0
 19  2  1  0
 19  6  2  0
 15  8  1  0
  1 20  1  0
  1 21  1  0
  4 22  1  0
  8 23  1  6
 10 24  1  6
 11 25  1  0
 11 26  1  0
 12 27  1  0
 13 28  1  1
 14 29  1  0
 15 30  1  1
 16 31  1  0
 18 32  1  0
M  END
>  <meeko>  (3) 
{"is_sidechain": [false], "free_energy": -6.514, "intermolecular_energy": -7.934, "internal_energy": -0.518}

$$$$
1nc3_ligand
     RDKit          3D

 32 34  0  0  0  0  0  0  0  0999 V2000
   44.1900   45.1890   29.6420 N   0  0  0  0  0  0  0  0  0  0  0  0
   43.9840   46.5470   29.4670 C   0  0  0  0  0  0  0  0  0  0  0  0
   44.7730   47.2030   28.6010 N   0  0  0  0  0  0  0  0  0  0  0  0
   44.5890   48.5300   28.4430 C   0  0  0  0  0  0  0  0  0  0  0  0
   43.6940   49.3180   29.0600 N   0  0  0  0  0  0  0  0  0  0  0  0
   42.8970   48.6390   29.9140 C   0  0  0  0  0  0  0  0  0  0  0  0
   41.8310   49.0510   30.7540 C   0  0  0  0  0  0  0  0  0  0  0  0
   41.2720   50.4290   30.9370 C   0  0  2  0  0  0  0  0  0  0  0  0
   41.1530   50.8080   32.3250 O   0  0  0  0  0  0  0  0  0  0  0  0
   39.8350   51.3740   32.5400 C   0  0  2  0  0  0  0  0  0  0  0  0
   39.0160   50.3560   33.3420 C   0  0  0  0  0  0  0  0  0  0  0  0
   37.7650   50.9270   33.7220 O   0  0  0  0  0  0  0  0  0  0  0  0
   39.2440   51.6400   31.1610 C   0  0  1  0  0  0  0  0  0  0  0  0
   39.6750   52.9160   30.6680 O   0  0  0  0  0  0  0  0  0  0  0  0
   39.8710   50.5420   30.3220 C   0  0  1  0  0  0  0  0  0  0  0  0
   39.8750   50.8980   28.9380 O   0  0  0  0  0  0  0  0  0  0  0  0
   41.3480   48.0240   31.4810 N   0  0  0  0  0  0  0  0  0  0  0  0
   42.0520   46.9630   31.0330 N   0  0  0  0  0  0  0  0  0  0  0  0
   43.0250   47.2810   30.1340 C   0  0  0  0  0  0  0  0  0  0  0  0
   44.8540   44.9440   30.3630 H   0  0  0  0  0  0  0  0  0  0  0  0
   44.3910   44.7640   28.7390 H   0  0  0  0  0  0  0  0  0  0  0  0
   45.2532   49.0271   27.7206 H   0  0  0  0  0  0  0  0  0  0  0  0
   41.9858   51.0981   30.4343 H   0  0  0  0  0  0  0  0  0  0  0  0
   39.8493   52.3161   33.1077 H   0  0  0  0  0  0  0  0  0  0  0  0
   38.8365   49.4644   32.7233 H   0  0  0  0  0  0  0  0  0  0  0  0
   39.5748   50.0757   34.2471 H   0  0  0  0  0  0  0  0  0  0  0  0
   37.2220   50.1680   34.0230 H   0  0  0  0  0  0  0  0  0  0  0  0
   38.1441   51.6485   31.1526 H   0  0  0  0  0  0  0  0  0  0  0  0
   38.9080   53.5130   30.7930 H   0  0  0  0  0  0  0  0  0  0  0  0
   39.3341   49.5820   30.3377 H   0  0  0  0  0  0  0  0  0  0  0  0
   40.6680   50.4740   28.5490 H   0  0  0  0  0  0  0  0  0  0  0  0
   41.8210   46.0420   31.3870 H   0  0  0  0  0  0  0  0  0  0  0  0
  1  2  1  0
  2  3  2  0
  3  4  1  0
  4  5  2  0
  5  6  1  0
  6  7  1  0
  7  8  1  0
  8  9  1  0
  9 10  1  0
 10 11  1  0
 11 12  1  0
 10 13  1  0
 13 14  1  0
 13 15  1  0
 15 16  1  0
  7 17  2  0
 17 18  1  0
 18 19  1  0
 19  2  1  0
 19  6  2  0
 15  8  1  0
  1 20  1  0
  1 21  1  0
  4 22  1  0
  8 23  1  6
 10 24  1  1
 11 25  1  0
 11 26  1  0
 12 27  1  0
 13 28  1  1
 14 29  1  0
 15 30  1  6
 16 31  1  0
 18 32  1  0
M  END
>  <meeko>  (4) 
{"is_sidechain": [false], "free_energy": -6.474, "intermolecular_energy": -8.001, "internal_energy": -0.4}

$$$$
1nc3_ligand
     RDKit          3D

 32 34  0  0  0  0  0  0  0  0999 V2000
   38.5760   51.5540   32.7240 N   0  0  0  0  0  0  0  0  0  0  0  0
   39.2860   51.1780   31.5960 C   0  0  0  0  0  0  0  0  0  0  0  0
   39.1040   51.8800   30.4660 N   0  0  0  0  0  0  0  0  0  0  0  0
   39.7790   51.5040   29.3600 C   0  0  0  0  0  0  0  0  0  0  0  0
   40.6370   50.4810   29.2250 N   0  0  0  0  0  0  0  0  0  0  0  0
   40.8220   49.7960   30.3750 C   0  0  0  0  0  0  0  0  0  0  0  0
   41.6280   48.6740   30.6960 C   0  0  0  0  0  0  0  0  0  0  0  0
   42.5390   47.8950   29.7950 C   0  0  2  0  0  0  0  0  0  0  0  0
   42.9170   46.6170   30.3460 O   0  0  0  0  0  0  0  0  0  0  0  0
   44.3520   46.4580   30.2070 C   0  0  2  0  0  0  0  0  0  0  0  0
   44.9750   46.6000   31.6000 C   0  0  0  0  0  0  0  0  0  0  0  0
   46.3390   47.0040   31.4850 O   0  0  0  0  0  0  0  0  0  0  0  0
   44.8200   47.5450   29.2460 C   0  0  1  0  0  0  0  0  0  0  0  0
   44.6720   47.1110   27.8880 O   0  0  0  0  0  0  0  0  0  0  0  0
   43.8360   48.6670   29.5230 C   0  0  1  0  0  0  0  0  0  0  0  0
   43.7550   49.5600   28.4100 O   0  0  0  0  0  0  0  0  0  0  0  0
   41.4590   48.2920   31.9780 N   0  0  0  0  0  0  0  0  0  0  0  0
   40.6170   49.2240   32.4740 N   0  0  0  0  0  0  0  0  0  0  0  0
   40.1660   50.1160   31.5480 C   0  0  0  0  0  0  0  0  0  0  0  0
   38.6430   52.5330   32.9680 H   0  0  0  0  0  0  0  0  0  0  0  0
   38.8090   50.9240   33.4880 H   0  0  0  0  0  0  0  0  0  0  0  0
   39.6047   52.1101   28.4587 H   0  0  0  0  0  0  0  0  0  0  0  0
   41.9646   47.7381   28.8701 H   0  0  0  0  0  0  0  0  0  0  0  0
   44.6476   45.4773   29.8059 H   0  0  0  0  0  0  0  0  0  0  0  0
   44.4181   47.3560   32.1729 H   0  0  0  0  0  0  0  0  0  0  0  0
   44.9276   45.6306   32.1176 H   0  0  0  0  0  0  0  0  0  0  0  0
   46.3040   47.9750   31.3510 H   0  0  0  0  0  0  0  0  0  0  0  0
   45.8763   47.8210   29.3803 H   0  0  0  0  0  0  0  0  0  0  0  0
   44.5210   46.1440   27.9420 H   0  0  0  0  0  0  0  0  0  0  0  0
   44.1074   49.3268   30.3602 H   0  0  0  0  0  0  0  0  0  0  0  0
   44.5930   49.4530   27.9130 H   0  0  0  0  0  0  0  0  0  0  0  0
   40.3850   49.1930   33.4600 H   0  0  0  0  0  0  0  0  0  0  0  0
  1  2  1  0
  2  3  2  0
  3  4  1  0
  4  5  2  0
  5  6  1  0
  6  7  1  0
  7  8  1  0
  8  9  1  0
  9 10  1  0
 10 11  1  0
 11 12  1  0
 10 13  1  0
 13 14  1  0
 13 15  1  0
 15 16  1  0
  7 17  2  0
 17 18  1  0
 18 19  1  0
 19  2  1  0
 19  6  2  0
 15  8  1  0
  1 20  1  0
  1 21  1  0
  4 22  1  0
  8 23  1  6
 10 24  1  6
 11 25  1  0
 11 26  1  0
 12 27  1  0
 13 28  1  1
 14 29  1  0
 15 30  1  1
 16 31  1  0
 18 32  1  0
M  END
>  <meeko>  (5) 
{"is_sidechain": [false], "free_energy": -6.463, "intermolecular_energy": -7.821, "internal_energy": -0.567}

$$$$
1nc3_ligand
     RDKit          3D

 32 34  0  0  0  0  0  0  0  0999 V2000
   41.1310   45.5270   32.6520 N   0  0  0  0  0  0  0  0  0  0  0  0
   41.8240   46.0990   31.5980 C   0  0  0  0  0  0  0  0  0  0  0  0
   41.6260   47.4010   31.3390 N   0  0  0  0  0  0  0  0  0  0  0  0
   42.2840   47.9570   30.3000 C   0  0  0  0  0  0  0  0  0  0  0  0
   43.1380   47.3640   29.4530 N   0  0  0  0  0  0  0  0  0  0  0  0
   43.3400   46.0590   29.7380 C   0  0  0  0  0  0  0  0  0  0  0  0
   44.1490   45.0640   29.1300 C   0  0  0  0  0  0  0  0  0  0  0  0
   45.0450   45.1970   27.9360 C   0  0  2  0  0  0  0  0  0  0  0  0
   44.3970   45.8350   26.8150 O   0  0  0  0  0  0  0  0  0  0  0  0
   44.6590   45.0530   25.6220 C   0  0  2  0  0  0  0  0  0  0  0  0
   43.3580   44.3410   25.2350 C   0  0  0  0  0  0  0  0  0  0  0  0
   42.2370   45.0650   25.7400 O   0  0  0  0  0  0  0  0  0  0  0  0
   45.7740   44.0760   25.9760 C   0  0  1  0  0  0  0  0  0  0  0  0
   47.0560   44.6980   25.8130 O   0  0  0  0  0  0  0  0  0  0  0  0
   45.5260   43.8240   27.4520 C   0  0  1  0  0  0  0  0  0  0  0  0
   46.7160   43.3680   28.0980 O   0  0  0  0  0  0  0  0  0  0  0  0
   43.9970   43.8670   29.7300 N   0  0  0  0  0  0  0  0  0  0  0  0
   43.1650   44.1350   30.7590 N   0  0  0  0  0  0  0  0  0  0  0  0
   42.7010   45.4150   30.7810 C   0  0  0  0  0  0  0  0  0  0  0  0
   41.6140   45.5370   33.5400 H   0  0  0  0  0  0  0  0  0  0  0  0
   40.8040   44.6050   32.3720 H   0  0  0  0  0  0  0  0  0  0  0  0
   42.0970   49.0271   30.1268 H   0  0  0  0  0  0  0  0  0  0  0  0
   45.8862   45.8193   28.2752 H   0  0  0  0  0  0  0  0  0  0  0  0
   44.9783   45.6600   24.7620 H   0  0  0  0  0  0  0  0  0  0  0  0
   43.2884   44.2797   24.1389 H   0  0  0  0  0  0  0  0  0  0  0  0
   43.3582   43.3289   25.6658 H   0  0  0  0  0  0  0  0  0  0  0  0
   41.5360   44.9490   25.0640 H   0  0  0  0  0  0  0  0  0  0  0  0
   45.7751   43.1704   25.3516 H   0  0  0  0  0  0  0  0  0  0  0  0
   47.4930   44.6190   26.6870 H   0  0  0  0  0  0  0  0  0  0  0  0
   44.7964   43.0304   27.6708 H   0  0  0  0  0  0  0  0  0  0  0  0
   46.4330   42.6880   28.7450 H   0  0  0  0  0  0  0  0  0  0  0  0
   42.9470   43.3920   31.4130 H   0  0  0  0  0  0  0  0  0  0  0  0
  1  2  1  0
  2  3  2  0
  3  4  1  0
  4  5  2  0
  5  6  1  0
  6  7  1  0
  7  8  1  0
  8  9  1  0
  9 10  1  0
 10 11  1  0
 11 12  1  0
 10 13  1  0
 13 14  1  0
 13 15  1  0
 15 16  1  0
  7 17  2  0
 17 18  1  0
 18 19  1  0
 19  2  1  0
 19  6  2  0
 15  8  1  0
  1 20  1  0
  1 21  1  0
  4 22  1  0
  8 23  1  1
 10 24  1  6
 11 25  1  0
 11 26  1  0
 12 27  1  0
 13 28  1  6
 14 29  1  0
 15 30  1  6
 16 31  1  0
 18 32  1  0
M  END
>  <meeko>  (6) 
{"is_sidechain": [false], "free_energy": -6.459, "intermolecular_energy": -7.803, "internal_energy": -0.581}

$$$$
1nc3_ligand
     RDKit          3D

 32 34  0  0  0  0  0  0  0  0999 V2000
   45.1600   42.9120   27.9010 N   0  0  0  0  0  0  0  0  0  0  0  0
   45.2670   42.8430   26.5210 C   0  0  0  0  0  0  0  0  0  0  0  0
   46.0090   43.7690   25.8940 N   0  0  0  0  0  0  0  0  0  0  0  0
   46.0980   43.7170   24.5490 C   0  0  0  0  0  0  0  0  0  0  0  0
   45.5210   42.8360   23.7170 N   0  0  0  0  0  0  0  0  0  0  0  0
   44.7930   41.9010   24.3660 C   0  0  0  0  0  0  0  0  0  0  0  0
   44.0350   40.7940   23.9040 C   0  0  0  0  0  0  0  0  0  0  0  0
   43.8180   40.3410   22.4920 C   0  0  2  0  0  0  0  0  0  0  0  0
   42.7040   39.4340   22.3580 O   0  0  0  0  0  0  0  0  0  0  0  0
   43.1230   38.3000   21.5560 C   0  0  2  0  0  0  0  0  0  0  0  0
   43.2550   37.0910   22.4890 C   0  0  0  0  0  0  0  0  0  0  0  0
   42.6180   37.3660   23.7360 O   0  0  0  0  0  0  0  0  0  0  0  0
   44.4490   38.6870   20.9130 C   0  0  1  0  0  0  0  0  0  0  0  0
   44.2240   39.4200   19.7010 O   0  0  0  0  0  0  0  0  0  0  0  0
   45.0550   39.6120   21.9520 C   0  0  1  0  0  0  0  0  0  0  0  0
   46.0230   40.4810   21.3580 O   0  0  0  0  0  0  0  0  0  0  0  0
   43.4240   40.1530   24.9210 N   0  0  0  0  0  0  0  0  0  0  0  0
   43.8700   40.8050   26.0150 N   0  0  0  0  0  0  0  0  0  0  0  0
   44.6490   41.8880   25.7400 C   0  0  0  0  0  0  0  0  0  0  0  0
   44.2890   42.5700   28.2820 H   0  0  0  0  0  0  0  0  0  0  0  0
   45.4010   43.8530   28.2050 H   0  0  0  0  0  0  0  0  0  0  0  0
   46.7197   44.4916   24.0762 H   0  0  0  0  0  0  0  0  0  0  0  0
   43.6129   41.2594   21.9223 H   0  0  0  0  0  0  0  0  0  0  0  0
   42.4075   38.0354   20.7635 H   0  0  0  0  0  0  0  0  0  0  0  0
   42.7790   36.2163   22.0217 H   0  0  0  0  0  0  0  0  0  0  0  0
   44.3211   36.8852   22.6653 H   0  0  0  0  0  0  0  0  0  0  0  0
   41.6730   37.4980   23.5130 H   0  0  0  0  0  0  0  0  0  0  0  0
   45.0758   37.8216   20.6517 H   0  0  0  0  0  0  0  0  0  0  0  0
   44.0600   40.3440   19.9860 H   0  0  0  0  0  0  0  0  0  0  0  0
   45.6191   39.1071   22.7500 H   0  0  0  0  0  0  0  0  0  0  0  0
   45.7640   41.3910   21.6110 H   0  0  0  0  0  0  0  0  0  0  0  0
   43.6000   40.4600   26.9300 H   0  0  0  0  0  0  0  0  0  0  0  0
  1  2  1  0
  2  3  2  0
  3  4  1  0
  4  5  2  0
  5  6  1  0
  6  7  1  0
  7  8  1  0
  8  9  1  0
  9 10  1  0
 10 11  1  0
 11 12  1  0
 10 13  1  0
 13 14  1  0
 13 15  1  0
 15 16  1  0
  7 17  2  0
 17 18  1  0
 18 19  1  0
 19  2  1  0
 19  6  2  0
 15  8  1  0
  1 20  1  0
  1 21  1  0
  4 22  1  0
  8 23  1  6
 10 24  1  6
 11 25  1  0
 11 26  1  0
 12 27  1  0
 13 28  1  6
 14 29  1  0
 15 30  1  1
 16 31  1  0
 18 32  1  0
M  END
>  <meeko>  (7) 
{"is_sidechain": [false], "free_energy": -6.384, "intermolecular_energy": -7.483, "internal_energy": -0.807}

$$$$
1nc3_ligand
     RDKit          3D

 32 34  0  0  0  0  0  0  0  0999 V2000
   39.6200   52.5090   30.1870 N   0  0  0  0  0  0  0  0  0  0  0  0
   39.9870   51.4140   30.9500 C   0  0  0  0  0  0  0  0  0  0  0  0
   39.5540   51.3490   32.2200 N   0  0  0  0  0  0  0  0  0  0  0  0
   39.9260   50.2930   32.9720 C   0  0  0  0  0  0  0  0  0  0  0  0
   40.7050   49.2600   32.6170 N   0  0  0  0  0  0  0  0  0  0  0  0
   41.1170   49.3320   31.3320 C   0  0  0  0  0  0  0  0  0  0  0  0
   41.9280   48.4760   30.5420 C   0  0  0  0  0  0  0  0  0  0  0  0
   42.5890   47.1920   30.9430 C   0  0  2  0  0  0  0  0  0  0  0  0
   43.9960   47.1600   30.6230 O   0  0  0  0  0  0  0  0  0  0  0  0
   44.2950   45.8990   29.9710 C   0  0  2  0  0  0  0  0  0  0  0  0
   44.5480   46.1880   28.4880 C   0  0  0  0  0  0  0  0  0  0  0  0
   44.7210   47.5900   28.2870 O   0  0  0  0  0  0  0  0  0  0  0  0
   43.0850   44.9970   30.1900 C   0  0  1  0  0  0  0  0  0  0  0  0
   43.1800   44.3300   31.4560 O   0  0  0  0  0  0  0  0  0  0  0  0
   41.9420   45.9950   30.2350 C   0  0  1  0  0  0  0  0  0  0  0  0
   40.8180   45.4500   30.9310 O   0  0  0  0  0  0  0  0  0  0  0  0
   42.1190   48.9770   29.3050 N   0  0  0  0  0  0  0  0  0  0  0  0
   41.3620   50.0940   29.2990 N   0  0  0  0  0  0  0  0  0  0  0  0
   40.7830   50.3810   30.4980 C   0  0  0  0  0  0  0  0  0  0  0  0
   39.3380   52.2980   29.2400 H   0  0  0  0  0  0  0  0  0  0  0  0
   40.3480   53.2170   30.2500 H   0  0  0  0  0  0  0  0  0  0  0  0
   39.5436   50.2767   34.0033 H   0  0  0  0  0  0  0  0  0  0  0  0
   42.4605   47.1299   32.0337 H   0  0  0  0  0  0  0  0  0  0  0  0
   45.1888   45.3994   30.3728 H   0  0  0  0  0  0  0  0  0  0  0  0
   45.4559   45.6586   28.1634 H   0  0  0  0  0  0  0  0  0  0  0  0
   43.6847   45.8426   27.9003 H   0  0  0  0  0  0  0  0  0  0  0  0
   43.8710   47.8970   27.9060 H   0  0  0  0  0  0  0  0  0  0  0  0
   42.9786   44.2154   29.4233 H   0  0  0  0  0  0  0  0  0  0  0  0
   43.4020   43.4000   31.2400 H   0  0  0  0  0  0  0  0  0  0  0  0
   41.5270   46.2706   29.2543 H   0  0  0  0  0  0  0  0  0  0  0  0
   41.1830   44.9520   31.6910 H   0  0  0  0  0  0  0  0  0  0  0  0
   41.2860   50.6240   28.4380 H   0  0  0  0  0  0  0  0  0  0  0  0
  1  2  1  0
  2  3  2  0
  3  4  1  0
  4  5  2  0
  5  6  1  0
  6  7  1  0
  7  8  1  0
  8  9  1  0
  9 10  1  0
 10 11  1  0
 11 12  1  0
 10 13  1  0
 13 14  1  0
 13 15  1  0
 15 16  1  0
  7 17  2  0
 17 18  1  0
 18 19  1  0
 19  2  1  0
 19  6  2  0
 15  8  1  0
  1 20  1  0
  1 21  1  0
  4 22  1  0
  8 23  1  1
 10 24  1  1
 11 25  1  0
 11 26  1  0
 12 27  1  0
 13 28  1  6
 14 29  1  0
 15 30  1  6
 16 31  1  0
 18 32  1  0
M  END
>  <meeko>  (8) 
{"is_sidechain": [false], "free_energy": -6.297, "intermolecular_energy": -7.508, "internal_energy": -0.676}

$$$$
1nc3_ligand
     RDKit          3D

 32 34  0  0  0  0  0  0  0  0999 V2000
   44.9440   47.5930   29.3240 N   0  0  0  0  0  0  0  0  0  0  0  0
   43.8170   47.6050   30.1310 C   0  0  0  0  0  0  0  0  0  0  0  0
   43.6630   46.6130   31.0230 N   0  0  0  0  0  0  0  0  0  0  0  0
   42.5580   46.6110   31.7960 C   0  0  0  0  0  0  0  0  0  0  0  0
   41.5470   47.4940   31.7920 N   0  0  0  0  0  0  0  0  0  0  0  0
   41.7260   48.4940   30.9020 C   0  0  0  0  0  0  0  0  0  0  0  0
   40.9390   49.6270   30.5690 C   0  0  0  0  0  0  0  0  0  0  0  0
   39.6180   50.0410   31.1430 C   0  0  2  0  0  0  0  0  0  0  0  0
   38.7870   50.7420   30.1940 O   0  0  0  0  0  0  0  0  0  0  0  0
   38.2600   51.9340   30.8310 C   0  0  2  0  0  0  0  0  0  0  0  0
   38.9810   53.1440   30.2270 C   0  0  0  0  0  0  0  0  0  0  0  0
   39.7060   52.7490   29.0630 O   0  0  0  0  0  0  0  0  0  0  0  0
   38.5250   51.7840   32.3240 C   0  0  1  0  0  0  0  0  0  0  0  0
   37.4770   51.0270   32.9460 O   0  0  0  0  0  0  0  0  0  0  0  0
   39.8080   50.9740   32.3460 C   0  0  1  0  0  0  0  0  0  0  0  0
   39.9570   50.2880   33.5910 O   0  0  0  0  0  0  0  0  0  0  0  0
   41.4950   50.3400   29.5700 N   0  0  0  0  0  0  0  0  0  0  0  0
   42.6630   49.7030   29.3410 N   0  0  0  0  0  0  0  0  0  0  0  0
   42.8290   48.5660   30.0720 C   0  0  0  0  0  0  0  0  0  0  0  0
   45.0000   48.3460   28.6530 H   0  0  0  0  0  0  0  0  0  0  0  0
   45.0480   46.6680   28.9140 H   0  0  0  0  0  0  0  0  0  0  0  0
   42.4750   45.7851   32.5178 H   0  0  0  0  0  0  0  0  0  0  0  0
   39.1251   49.1027   31.4374 H   0  0  0  0  0  0  0  0  0  0  0  0
   37.1803   52.0740   30.6739 H   0  0  0  0  0  0  0  0  0  0  0  0
   38.2405   53.9097   29.9525 H   0  0  0  0  0  0  0  0  0  0  0  0
   39.6832   53.5530   30.9683 H   0  0  0  0  0  0  0  0  0  0  0  0
   39.0190   52.4780   28.4180 H   0  0  0  0  0  0  0  0  0  0  0  0
   38.5838   52.7456   32.8550 H   0  0  0  0  0  0  0  0  0  0  0  0
   36.6770   51.2080   32.4100 H   0  0  0  0  0  0  0  0  0  0  0  0
   40.7319   51.5660   32.2686 H   0  0  0  0  0  0  0  0  0  0  0  0
   40.1270   49.3500   33.3670 H   0  0  0  0  0  0  0  0  0  0  0  0
   43.3060   50.0960   28.6630 H   0  0  0  0  0  0  0  0  0  0  0  0
  1  2  1  0
  2  3  2  0
  3  4  1  0
  4  5  2  0
  5  6  1  0
  6  7  1  0
  7  8  1  0
  8  9  1  0
  9 10  1  0
 10 11  1  0
 11 12  1  0
 10 13  1  0
 13 14  1  0
 13 15  1  0
 15 16  1  0
  7 17  2  0
 17 18  1  0
 18 19  1  0
 19  2  1  0
 19  6  2  0
 15  8  1  0
  1 20  1  0
  1 21  1  0
  4 22  1  0
  8 23  1  1
 10 24  1  1
 11 25  1  0
 11 26  1  0
 12 27  1  0
 13 28  1  1
 14 29  1  0
 15 30  1  6
 16 31  1  0
 18 32  1  0
M  END
>  <meeko>  (9) 
{"is_sidechain": [false], "free_energy": -6.287, "intermolecular_energy": -7.456, "internal_energy": -0.715}

$$$$
