2xnb_ligand
     RDKit          3D

 50 53  0  0  0  0  0  0  0  0999 V2000
   25.9970   28.2700   24.9690 C   0  0  0  0  0  0  0  0  0  0  0  0
   27.2510   29.0510   25.2130 C   0  0  0  0  0  0  0  0  0  0  0  0
   27.4010   30.1120   26.0300 C   0  0  0  0  0  0  0  0  0  0  0  0
   26.3840   30.8110   26.8250 C   0  0  0  0  0  0  0  0  0  0  0  0
   26.2210   32.1770   26.7550 C   0  0  0  0  0  0  0  0  0  0  0  0
   25.2270   32.6990   27.5400 C   0  0  0  0  0  0  0  0  0  0  0  0
   24.4420   31.9510   28.3360 N   0  0  0  0  0  0  0  0  0  0  0  0
   24.6580   30.6300   28.3490 C   0  0  0  0  0  0  0  0  0  0  0  0
   23.8940   29.7620   29.1250 N   0  0  0  0  0  0  0  0  0  0  0  0
   23.3480   28.4950   28.9110 C   0  0  0  0  0  0  0  0  0  0  0  0
   23.7390   27.6380   27.8840 C   0  0  0  0  0  0  0  0  0  0  0  0
   23.1520   26.3720   27.7280 C   0  0  0  0  0  0  0  0  0  0  0  0
   22.1530   25.9070   28.5930 C   0  0  0  0  0  0  0  0  0  0  0  0
   21.6020   24.6280   28.3930 N   0  0  0  0  0  0  0  0  0  0  0  0
   20.2750   24.5510   27.7520 C   0  0  0  0  0  0  0  0  0  0  0  0
   19.9710   23.0990   27.3350 C   0  0  0  0  0  0  0  0  0  0  0  0
   20.1100   22.1740   28.5200 N   0  0  0  0  0  0  0  0  0  0  0  0
   21.4730   22.2710   29.1600 C   0  0  0  0  0  0  0  0  0  0  0  0
   21.7850   23.7270   29.5560 C   0  0  0  0  0  0  0  0  0  0  0  0
   21.7450   26.7780   29.6080 C   0  0  0  0  0  0  0  0  0  0  0  0
   22.3340   28.0430   29.7650 C   0  0  0  0  0  0  0  0  0  0  0  0
   25.6140   30.0340   27.6190 N   0  0  0  0  0  0  0  0  0  0  0  0
   29.0410   30.7050   26.0310 S   0  0  0  0  0  0  0  0  0  0  0  0
   29.5410   29.4670   24.8780 C   0  0  0  0  0  0  0  0  0  0  0  0
   30.6820   29.3600   24.4590 O   0  0  0  0  0  0  0  0  0  0  0  0
   28.4340   28.6890   24.5740 N   0  0  0  0  0  0  0  0  0  0  0  0
   28.5420   27.5850   23.6460 C   0  0  0  0  0  0  0  0  0  0  0  0
   25.5465   27.9894   25.9325 H   0  0  0  0  0  0  0  0  0  0  0  0
   25.2868   28.8858   24.3976 H   0  0  0  0  0  0  0  0  0  0  0  0
   26.2365   27.3610   24.3976 H   0  0  0  0  0  0  0  0  0  0  0  0
   26.8492   32.8087   26.1097 H   0  0  0  0  0  0  0  0  0  0  0  0
   25.0622   33.7864   27.5182 H   0  0  0  0  0  0  0  0  0  0  0  0
   23.7970   30.1590   30.0480 H   0  0  0  0  0  0  0  0  0  0  0  0
   24.5225   27.9595   27.1821 H   0  0  0  0  0  0  0  0  0  0  0  0
   23.4864   25.7265   26.9025 H   0  0  0  0  0  0  0  0  0  0  0  0
   19.5078   24.8938   28.4618 H   0  0  0  0  0  0  0  0  0  0  0  0
   20.2701   25.1908   26.8572 H   0  0  0  0  0  0  0  0  0  0  0  0
   18.9433   23.0403   26.9473 H   0  0  0  0  0  0  0  0  0  0  0  0
   20.6853   22.7931   26.5564 H   0  0  0  0  0  0  0  0  0  0  0  0
   19.9400   21.2050   28.2200 H   0  0  0  0  0  0  0  0  0  0  0  0
   19.3900   22.4020   29.2180 H   0  0  0  0  0  0  0  0  0  0  0  0
   21.4953   21.6391   30.0601 H   0  0  0  0  0  0  0  0  0  0  0  0
   22.2289   21.9309   28.4368 H   0  0  0  0  0  0  0  0  0  0  0  0
   21.1065   24.0363   30.3647 H   0  0  0  0  0  0  0  0  0  0  0  0
   22.8295   23.7891   29.8954 H   0  0  0  0  0  0  0  0  0  0  0  0
   20.9466   26.4659   30.2973 H   0  0  0  0  0  0  0  0  0  0  0  0
   21.9899   28.6963   30.5803 H   0  0  0  0  0  0  0  0  0  0  0  0
   28.6342   26.6428   24.2062 H   0  0  0  0  0  0  0  0  0  0  0  0
   27.6431   27.5488   23.0130 H   0  0  0  0  0  0  0  0  0  0  0  0
   29.4309   27.7237   23.0130 H   0  0  0  0  0  0  0  0  0  0  0  0
  1  2  1  0
  2  3  2  0
  3  4  1  0
  4  5  2  0
  5  6  1  0
  6  7  2  0
  7  8  1  0
  8  9  1  0
  9 10  1  0
 10 11  2  0
 11 12  1  0
 12 13  2  0
 13 14  1  0
 14 15  1  0
 15 16  1  0
 16 17  1  0
 17 18  1  0
 18 19  1  0
 13 20  1  0
 20 21  2  0
  8 22  2  0
  3 23  1  0
 23 24  1  0
 24 25  2  0
 24 26  1  0
 26 27  1  0
 26  2  1  0
 22  4  1  0
 21 10  1  0
 19 14  1  0
  1 28  1  0
  1 29  1  0
  1 30  1  0
  5 31  1  0
  6 32  1  0
  9 33  1  0
 11 34  1  0
 12 35  1  0
 15 36  1  0
 15 37  1  0
 16 38  1  0
 16 39  1  0
 17 40  1  0
 17 41  1  0
 18 42  1  0
 18 43  1  0
 19 44  1  0
 19 45  1  0
 20 46  1  0
 21 47  1  0
 27 48  1  0
 27 49  1  0
 27 50  1  0
M  CHG  1  17   1
M  END
>  <meeko>  (1) 
{"is_sidechain": [false], "free_energy": -10.672, "intermolecular_energy": -13.168, "internal_energy": -0.22}

$$$$
2xnb_ligand
     RDKit          3D

 50 53  0  0  0  0  0  0  0  0999 V2000
   29.0410   31.6020   25.7810 C   0  0  0  0  0  0  0  0  0  0  0  0
   28.3960   30.2640   25.5930 C   0  0  0  0  0  0  0  0  0  0  0  0
   27.1830   29.8780   26.0330 C   0  0  0  0  0  0  0  0  0  0  0  0
   26.2230   30.6240   26.8550 C   0  0  0  0  0  0  0  0  0  0  0  0
   26.1480   31.9990   26.8140 C   0  0  0  0  0  0  0  0  0  0  0  0
   25.1990   32.5670   27.6240 C   0  0  0  0  0  0  0  0  0  0  0  0
   24.3780   31.8550   28.4160 N   0  0  0  0  0  0  0  0  0  0  0  0
   24.5090   30.5230   28.4000 C   0  0  0  0  0  0  0  0  0  0  0  0
   23.7010   29.6900   29.1700 N   0  0  0  0  0  0  0  0  0  0  0  0
   23.1730   28.4110   28.9860 C   0  0  0  0  0  0  0  0  0  0  0  0
   23.4710   27.5900   27.9000 C   0  0  0  0  0  0  0  0  0  0  0  0
   22.9080   26.3090   27.7780 C   0  0  0  0  0  0  0  0  0  0  0  0
   22.0270   25.7930   28.7380 C   0  0  0  0  0  0  0  0  0  0  0  0
   21.4960   24.5010   28.5680 N   0  0  0  0  0  0  0  0  0  0  0  0
   21.8030   23.8010   27.3050 C   0  0  0  0  0  0  0  0  0  0  0  0
   21.4140   22.3130   27.4160 C   0  0  0  0  0  0  0  0  0  0  0  0
   19.9680   22.1790   27.8310 N   0  0  0  0  0  0  0  0  0  0  0  0
   19.6780   22.9050   29.1230 C   0  0  0  0  0  0  0  0  0  0  0  0
   20.0880   24.3870   29.0170 C   0  0  0  0  0  0  0  0  0  0  0  0
   21.7100   26.6280   29.8140 C   0  0  0  0  0  0  0  0  0  0  0  0
   22.2750   27.9070   29.9360 C   0  0  0  0  0  0  0  0  0  0  0  0
   25.4150   29.8820   27.6450 N   0  0  0  0  0  0  0  0  0  0  0  0
   26.8150   28.2370   25.5710 S   0  0  0  0  0  0  0  0  0  0  0  0
   28.3680   28.0680   24.7510 C   0  0  0  0  0  0  0  0  0  0  0  0
   28.7190   27.0490   24.1800 O   0  0  0  0  0  0  0  0  0  0  0  0
   29.0560   29.2660   24.8800 N   0  0  0  0  0  0  0  0  0  0  0  0
   30.3720   29.4250   24.3020 C   0  0  0  0  0  0  0  0  0  0  0  0
   29.1424   31.8124   26.8559 H   0  0  0  0  0  0  0  0  0  0  0  0
   30.0363   31.5983   25.3126 H   0  0  0  0  0  0  0  0  0  0  0  0
   28.4182   32.3783   25.3126 H   0  0  0  0  0  0  0  0  0  0  0  0
   26.8072   32.6023   26.1726 H   0  0  0  0  0  0  0  0  0  0  0  0
   25.1041   33.6629   27.6262 H   0  0  0  0  0  0  0  0  0  0  0  0
   23.5470   30.1310   30.0640 H   0  0  0  0  0  0  0  0  0  0  0  0
   24.1605   27.9523   27.1233 H   0  0  0  0  0  0  0  0  0  0  0  0
   23.1660   25.6931   26.9039 H   0  0  0  0  0  0  0  0  0  0  0  0
   21.2359   24.2651   26.4846 H   0  0  0  0  0  0  0  0  0  0  0  0
   22.8818   23.8772   27.1041 H   0  0  0  0  0  0  0  0  0  0  0  0
   21.5580   21.8265   26.4400 H   0  0  0  0  0  0  0  0  0  0  0  0
   22.0499   21.8324   28.1740 H   0  0  0  0  0  0  0  0  0  0  0  0
   19.7320   21.1850   27.9370 H   0  0  0  0  0  0  0  0  0  0  0  0
   19.3630   22.5540   27.0890 H   0  0  0  0  0  0  0  0  0  0  0  0
   18.6012   22.8425   29.3389 H   0  0  0  0  0  0  0  0  0  0  0  0
   20.2564   22.4342   29.9316 H   0  0  0  0  0  0  0  0  0  0  0  0
   19.4339   24.8934   28.2919 H   0  0  0  0  0  0  0  0  0  0  0  0
   19.9891   24.8570   30.0066 H   0  0  0  0  0  0  0  0  0  0  0  0
   21.0037   26.2754   30.5801 H   0  0  0  0  0  0  0  0  0  0  0  0
   22.0054   28.5307   30.8011 H   0  0  0  0  0  0  0  0  0  0  0  0
   31.1172   29.5150   25.1061 H   0  0  0  0  0  0  0  0  0  0  0  0
   30.6076   28.5488   23.6801 H   0  0  0  0  0  0  0  0  0  0  0  0
   30.3922   30.3321   23.6801 H   0  0  0  0  0  0  0  0  0  0  0  0
  1  2  1  0
  2  3  2  0
  3  4  1  0
  4  5  2  0
  5  6  1  0
  6  7  2  0
  7  8  1  0
  8  9  1  0
  9 10  1  0
 10 11  2  0
 11 12  1  0
 12 13  2  0
 13 14  1  0
 14 15  1  0
 15 16  1  0
 16 17  1  0
 17 18  1  0
 18 19  1  0
 13 20  1  0
 20 21  2  0
  8 22  2  0
  3 23  1  0
 23 24  1  0
 24 25  2  0
 24 26  1  0
 26 27  1  0
 26  2  1  0
 22  4  1  0
 21 10  1  0
 19 14  1  0
  1 28  1  0
  1 29  1  0
  1 30  1  0
  5 31  1  0
  6 32  1  0
  9 33  1  0
 11 34  1  0
 12 35  1  0
 15 36  1  0
 15 37  1  0
 16 38  1  0
 16 39  1  0
 17 40  1  0
 17 41  1  0
 18 42  1  0
 18 43  1  0
 19 44  1  0
 19 45  1  0
 20 46  1  0
 21 47  1  0
 27 48  1  0
 27 49  1  0
 27 50  1  0
M  CHG  1  17   1
M  END
>  <meeko>  (2) 
{"is_sidechain": [false], "free_energy": -9.844, "intermolecular_energy": -12.45, "internal_energy": 0.084}

$$$$
2xnb_ligand
     RDKit          3D

 50 53  0  0  0  0  0  0  0  0999 V2000
   26.2540   28.2550   27.2980 C   0  0  0  0  0  0  0  0  0  0  0  0
   26.3290   29.7470   27.1860 C   0  0  0  0  0  0  0  0  0  0  0  0
   27.2350   30.4660   26.4960 C   0  0  0  0  0  0  0  0  0  0  0  0
   28.4040   29.9920   25.7440 C   0  0  0  0  0  0  0  0  0  0  0  0
   29.6380   30.5910   25.8690 C   0  0  0  0  0  0  0  0  0  0  0  0
   30.6450   30.0410   25.1200 C   0  0  0  0  0  0  0  0  0  0  0  0
   30.4710   28.9830   24.3090 N   0  0  0  0  0  0  0  0  0  0  0  0
   29.2440   28.4520   24.2420 C   0  0  0  0  0  0  0  0  0  0  0  0
   28.9570   27.3460   23.4460 N   0  0  0  0  0  0  0  0  0  0  0  0
   28.0240   26.3110   23.5230 C   0  0  0  0  0  0  0  0  0  0  0  0
   27.4510   25.8610   24.7110 C   0  0  0  0  0  0  0  0  0  0  0  0
   26.5130   24.8170   24.7190 C   0  0  0  0  0  0  0  0  0  0  0  0
   26.1040   24.1790   23.5390 C   0  0  0  0  0  0  0  0  0  0  0  0
   25.1580   23.1410   23.6040 N   0  0  0  0  0  0  0  0  0  0  0  0
   24.4780   22.9210   24.8960 C   0  0  0  0  0  0  0  0  0  0  0  0
   23.2760   21.9740   24.7080 C   0  0  0  0  0  0  0  0  0  0  0  0
   23.7190   20.6910   24.0450 N   0  0  0  0  0  0  0  0  0  0  0  0
   24.4130   20.9420   22.7280 C   0  0  0  0  0  0  0  0  0  0  0  0
   25.6010   21.9060   22.9150 C   0  0  0  0  0  0  0  0  0  0  0  0
   26.6990   24.6160   22.3510 C   0  0  0  0  0  0  0  0  0  0  0  0
   27.6350   25.6620   22.3450 C   0  0  0  0  0  0  0  0  0  0  0  0
   28.1980   28.9300   24.9340 N   0  0  0  0  0  0  0  0  0  0  0  0
   26.9370   32.1790   26.6190 S   0  0  0  0  0  0  0  0  0  0  0  0
   25.5310   31.9110   27.6500 C   0  0  0  0  0  0  0  0  0  0  0  0
   24.8420   32.8130   28.0960 O   0  0  0  0  0  0  0  0  0  0  0  0
   25.3810   30.5420   27.8260 N   0  0  0  0  0  0  0  0  0  0  0  0
   24.3010   30.0180   28.6330 C   0  0  0  0  0  0  0  0  0  0  0  0
   26.2395   27.9673   28.3596 H   0  0  0  0  0  0  0  0  0  0  0  0
   25.3367   27.8962   26.8083 H   0  0  0  0  0  0  0  0  0  0  0  0
   27.1307   27.8060   26.8083 H   0  0  0  0  0  0  0  0  0  0  0  0
   29.8045   31.4558   26.5281 H   0  0  0  0  0  0  0  0  0  0  0  0
   31.6478   30.4883   25.1857 H   0  0  0  0  0  0  0  0  0  0  0  0
   29.5370   27.3880   22.6200 H   0  0  0  0  0  0  0  0  0  0  0  0
   27.7397   26.3335   25.6615 H   0  0  0  0  0  0  0  0  0  0  0  0
   26.0863   24.4897   25.6786 H   0  0  0  0  0  0  0  0  0  0  0  0
   25.1864   22.4727   25.6082 H   0  0  0  0  0  0  0  0  0  0  0  0
   24.1187   23.8862   25.2825 H   0  0  0  0  0  0  0  0  0  0  0  0
   22.8389   21.7427   25.6906 H   0  0  0  0  0  0  0  0  0  0  0  0
   22.5279   22.4671   24.0699 H   0  0  0  0  0  0  0  0  0  0  0  0
   22.9030   20.0850   23.8920 H   0  0  0  0  0  0  0  0  0  0  0  0
   24.3560   20.1840   24.6730 H   0  0  0  0  0  0  0  0  0  0  0  0
   24.7824   19.9869   22.3264 H   0  0  0  0  0  0  0  0  0  0  0  0
   23.6945   21.3964   22.0299 H   0  0  0  0  0  0  0  0  0  0  0  0
   26.3772   21.4125   23.5183 H   0  0  0  0  0  0  0  0  0  0  0  0
   26.0042   22.1726   21.9269 H   0  0  0  0  0  0  0  0  0  0  0  0
   26.4279   24.1301   21.4021 H   0  0  0  0  0  0  0  0  0  0  0  0
   28.0750   25.9806   21.3885 H   0  0  0  0  0  0  0  0  0  0  0  0
   24.5478   30.1377   29.6982 H   0  0  0  0  0  0  0  0  0  0  0  0
   23.3749   30.5669   28.4072 H   0  0  0  0  0  0  0  0  0  0  0  0
   24.1590   28.9508   28.4072 H   0  0  0  0  0  0  0  0  0  0  0  0
  1  2  1  0
  2  3  2  0
  3  4  1  0
  4  5  2  0
  5  6  1  0
  6  7  2  0
  7  8  1  0
  8  9  1  0
  9 10  1  0
 10 11  2  0
 11 12  1  0
 12 13  2  0
 13 14  1  0
 14 15  1  0
 15 16  1  0
 16 17  1  0
 17 18  1  0
 18 19  1  0
 13 20  1  0
 20 21  2  0
  8 22  2  0
  3 23  1  0
 23 24  1  0
 24 25  2  0
 24 26  1  0
 26 27  1  0
 26  2  1  0
 22  4  1  0
 21 10  1  0
 19 14  1  0
  1 28  1  0
  1 29  1  0
  1 30  1  0
  5 31  1  0
  6 32  1  0
  9 33  1  0
 11 34  1  0
 12 35  1  0
 15 36  1  0
 15 37  1  0
 16 38  1  0
 16 39  1  0
 17 40  1  0
 17 41  1  0
 18 42  1  0
 18 43  1  0
 19 44  1  0
 19 45  1  0
 20 46  1  0
 21 47  1  0
 27 48  1  0
 27 49  1  0
 27 50  1  0
M  CHG  1  17   1
M  END
>  <meeko>  (3) 
{"is_sidechain": [false], "free_energy": -9.698, "intermolecular_energy": -11.86, "internal_energy": -0.326}

$$$$
2xnb_ligand
     RDKit          3D

 50 53  0  0  0  0  0  0  0  0999 V2000
   26.1430   29.7730   27.2660 C   0  0  0  0  0  0  0  0  0  0  0  0
   27.1810   29.8400   26.1880 C   0  0  0  0  0  0  0  0  0  0  0  0
   27.4840   28.8820   25.2910 C   0  0  0  0  0  0  0  0  0  0  0  0
   26.9400   27.5230   25.1790 C   0  0  0  0  0  0  0  0  0  0  0  0
   27.7270   26.4540   24.8120 C   0  0  0  0  0  0  0  0  0  0  0  0
   27.0950   25.2390   24.7590 C   0  0  0  0  0  0  0  0  0  0  0  0
   25.7920   25.0700   25.0430 N   0  0  0  0  0  0  0  0  0  0  0  0
   25.0910   26.1550   25.3950 C   0  0  0  0  0  0  0  0  0  0  0  0
   23.7390   26.0900   25.7250 N   0  0  0  0  0  0  0  0  0  0  0  0
   23.0370   26.0260   26.9290 C   0  0  0  0  0  0  0  0  0  0  0  0
   23.1050   26.9960   27.9270 C   0  0  0  0  0  0  0  0  0  0  0  0
   22.3680   26.8730   29.1150 C   0  0  0  0  0  0  0  0  0  0  0  0
   21.5260   25.7780   29.3550 C   0  0  0  0  0  0  0  0  0  0  0  0
   20.8060   25.7080   30.5620 N   0  0  0  0  0  0  0  0  0  0  0  0
   19.3420   25.5430   30.4710 C   0  0  0  0  0  0  0  0  0  0  0  0
   18.7630   25.1780   31.8520 C   0  0  0  0  0  0  0  0  0  0  0  0
   19.1810   26.2000   32.8820 N   0  0  0  0  0  0  0  0  0  0  0  0
   20.6810   26.3520   32.9550 C   0  0  0  0  0  0  0  0  0  0  0  0
   21.2600   26.6960   31.5680 C   0  0  0  0  0  0  0  0  0  0  0  0
   21.4770   24.7940   28.3620 C   0  0  0  0  0  0  0  0  0  0  0  0
   22.2140   24.9190   27.1740 C   0  0  0  0  0  0  0  0  0  0  0  0
   25.6260   27.3840   25.4660 N   0  0  0  0  0  0  0  0  0  0  0  0
   28.7440   29.3890   24.1980 S   0  0  0  0  0  0  0  0  0  0  0  0
   28.8660   30.9600   24.9900 C   0  0  0  0  0  0  0  0  0  0  0  0
   29.6450   31.8310   24.6390 O   0  0  0  0  0  0  0  0  0  0  0  0
   27.9420   30.9940   26.0240 N   0  0  0  0  0  0  0  0  0  0  0  0
   27.8130   32.1700   26.8580 C   0  0  0  0  0  0  0  0  0  0  0  0
   26.6337   29.8047   28.2500 H   0  0  0  0  0  0  0  0  0  0  0  0
   25.4587   30.6288   27.1698 H   0  0  0  0  0  0  0  0  0  0  0  0
   25.5744   28.8363   27.1698 H   0  0  0  0  0  0  0  0  0  0  0  0
   28.7954   26.5681   24.5763 H   0  0  0  0  0  0  0  0  0  0  0  0
   27.6844   24.3566   24.4691 H   0  0  0  0  0  0  0  0  0  0  0  0
   23.1990   26.1720   24.8760 H   0  0  0  0  0  0  0  0  0  0  0  0
   23.7491   27.8756   27.7808 H   0  0  0  0  0  0  0  0  0  0  0  0
   22.4535   27.6586   29.8802 H   0  0  0  0  0  0  0  0  0  0  0  0
   18.8907   26.4844   30.1246 H   0  0  0  0  0  0  0  0  0  0  0  0
   19.1144   24.7349   29.7603 H   0  0  0  0  0  0  0  0  0  0  0  0
   17.6650   25.1532   31.7901 H   0  0  0  0  0  0  0  0  0  0  0  0
   19.1459   24.1911   32.1511 H   0  0  0  0  0  0  0  0  0  0  0  0
   18.8190   25.9250   33.8040 H   0  0  0  0  0  0  0  0  0  0  0  0
   18.7580   27.1090   32.6530 H   0  0  0  0  0  0  0  0  0  0  0  0
   20.9286   27.1590   33.6603 H   0  0  0  0  0  0  0  0  0  0  0  0
   21.1175   25.4015   33.2956 H   0  0  0  0  0  0  0  0  0  0  0  0
   20.9193   27.6989   31.2711 H   0  0  0  0  0  0  0  0  0  0  0  0
   22.3584   26.6720   31.6228 H   0  0  0  0  0  0  0  0  0  0  0  0
   20.8483   23.9045   28.5152 H   0  0  0  0  0  0  0  0  0  0  0  0
   22.1435   24.1262   26.4147 H   0  0  0  0  0  0  0  0  0  0  0  0
   27.8455   31.8739   27.9169 H   0  0  0  0  0  0  0  0  0  0  0  0
   28.6405   32.8628   26.6454 H   0  0  0  0  0  0  0  0  0  0  0  0
   26.8550   32.6670   26.6454 H   0  0  0  0  0  0  0  0  0  0  0  0
  1  2  1  0
  2  3  2  0
  3  4  1  0
  4  5  2  0
  5  6  1  0
  6  7  2  0
  7  8  1  0
  8  9  1  0
  9 10  1  0
 10 11  2  0
 11 12  1  0
 12 13  2  0
 13 14  1  0
 14 15  1  0
 15 16  1  0
 16 17  1  0
 17 18  1  0
 18 19  1  0
 13 20  1  0
 20 21  2  0
  8 22  2  0
  3 23  1  0
 23 24  1  0
 24 25  2  0
 24 26  1  0
 26 27  1  0
 26  2  1  0
 22  4  1  0
 21 10  1  0
 19 14  1  0
  1 28  1  0
  1 29  1  0
  1 30  1  0
  5 31  1  0
  6 32  1  0
  9 33  1  0
 11 34  1  0
 12 35  1  0
 15 36  1  0
 15 37  1  0
 16 38  1  0
 16 39  1  0
 17 40  1  0
 17 41  1  0
 18 42  1  0
 18 43  1  0
 19 44  1  0
 19 45  1  0
 20 46  1  0
 21 47  1  0
 27 48  1  0
 27 49  1  0
 27 50  1  0
M  CHG  1  17   1
M  END
>  <meeko>  (4) 
{"is_sidechain": [false], "free_energy": -9.331, "intermolecular_energy": -11.387, "internal_energy": -0.346}

$$$$
2xnb_ligand
     RDKit          3D

 50 53  0  0  0  0  0  0  0  0999 V2000
   26.7870   29.0920   27.0580 C   0  0  0  0  0  0  0  0  0  0  0  0
   27.7610   28.8100   25.9560 C   0  0  0  0  0  0  0  0  0  0  0  0
   27.7100   27.8030   25.0630 C   0  0  0  0  0  0  0  0  0  0  0  0
   26.7460   26.6990   24.9780 C   0  0  0  0  0  0  0  0  0  0  0  0
   27.0920   25.4720   24.4570 C   0  0  0  0  0  0  0  0  0  0  0  0
   26.0990   24.5270   24.4490 C   0  0  0  0  0  0  0  0  0  0  0  0
   24.8580   24.7530   24.9150 N   0  0  0  0  0  0  0  0  0  0  0  0
   24.5970   25.9690   25.4100 C   0  0  0  0  0  0  0  0  0  0  0  0
   23.3500   26.3050   25.9320 N   0  0  0  0  0  0  0  0  0  0  0  0
   22.7480   26.1490   27.1820 C   0  0  0  0  0  0  0  0  0  0  0  0
   21.7990   25.1720   27.4760 C   0  0  0  0  0  0  0  0  0  0  0  0
   21.2350   25.0660   28.7570 C   0  0  0  0  0  0  0  0  0  0  0  0
   21.5990   25.9290   29.8010 C   0  0  0  0  0  0  0  0  0  0  0  0
   21.0050   25.7740   31.0670 N   0  0  0  0  0  0  0  0  0  0  0  0
   21.4760   26.6590   32.1510 C   0  0  0  0  0  0  0  0  0  0  0  0
   20.5230   26.5710   33.3590 C   0  0  0  0  0  0  0  0  0  0  0  0
   20.3600   25.1340   33.7950 N   0  0  0  0  0  0  0  0  0  0  0  0
   19.8810   24.2500   32.6700 C   0  0  0  0  0  0  0  0  0  0  0  0
   20.8240   24.3560   31.4550 C   0  0  0  0  0  0  0  0  0  0  0  0
   22.5330   26.9230   29.4960 C   0  0  0  0  0  0  0  0  0  0  0  0
   23.0980   27.0270   28.2150 C   0  0  0  0  0  0  0  0  0  0  0  0
   25.5050   26.9570   25.4500 N   0  0  0  0  0  0  0  0  0  0  0  0
   29.0390   27.8630   23.9370 S   0  0  0  0  0  0  0  0  0  0  0  0
   29.6920   29.3090   24.7080 C   0  0  0  0  0  0  0  0  0  0  0  0
   30.7050   29.8730   24.3310 O   0  0  0  0  0  0  0  0  0  0  0  0
   28.8570   29.6480   25.7630 N   0  0  0  0  0  0  0  0  0  0  0  0
   29.1430   30.8030   26.5860 C   0  0  0  0  0  0  0  0  0  0  0  0
   27.2816   28.9488   28.0300 H   0  0  0  0  0  0  0  0  0  0  0  0
   26.4318   30.1299   26.9767 H   0  0  0  0  0  0  0  0  0  0  0  0
   25.9322   28.4045   26.9767 H   0  0  0  0  0  0  0  0  0  0  0  0
   28.1010   25.2635   24.0718 H   0  0  0  0  0  0  0  0  0  0  0  0
   26.3293   23.5321   24.0401 H   0  0  0  0  0  0  0  0  0  0  0  0
   22.8400   26.8240   25.2330 H   0  0  0  0  0  0  0  0  0  0  0  0
   21.4857   24.4702   26.6890 H   0  0  0  0  0  0  0  0  0  0  0  0
   20.4858   24.2834   28.9476 H   0  0  0  0  0  0  0  0  0  0  0  0
   22.4852   26.3496   32.4606 H   0  0  0  0  0  0  0  0  0  0  0  0
   21.4980   27.6960   31.7849 H   0  0  0  0  0  0  0  0  0  0  0  0
   20.9377   27.1580   34.1918 H   0  0  0  0  0  0  0  0  0  0  0  0
   19.5400   26.9704   33.0689 H   0  0  0  0  0  0  0  0  0  0  0  0
   19.6950   25.0860   34.5760 H   0  0  0  0  0  0  0  0  0  0  0  0
   21.2600   24.7800   34.1450 H   0  0  0  0  0  0  0  0  0  0  0  0
   19.8547   23.2064   33.0168 H   0  0  0  0  0  0  0  0  0  0  0  0
   18.8753   24.5767   32.3669 H   0  0  0  0  0  0  0  0  0  0  0  0
   21.8013   23.9234   31.7153 H   0  0  0  0  0  0  0  0  0  0  0  0
   20.3821   23.8074   30.6101 H   0  0  0  0  0  0  0  0  0  0  0  0
   22.8317   27.6388   30.2760 H   0  0  0  0  0  0  0  0  0  0  0  0
   23.8352   27.8192   28.0176 H   0  0  0  0  0  0  0  0  0  0  0  0
   29.0737   30.5231   27.6475 H   0  0  0  0  0  0  0  0  0  0  0  0
   30.1582   31.1662   26.3681 H   0  0  0  0  0  0  0  0  0  0  0  0
   28.4146   31.5979   26.3681 H   0  0  0  0  0  0  0  0  0  0  0  0
  1  2  1  0
  2  3  2  0
  3  4  1  0
  4  5  2  0
  5  6  1  0
  6  7  2  0
  7  8  1  0
  8  9  1  0
  9 10  1  0
 10 11  2  0
 11 12  1  0
 12 13  2  0
 13 14  1  0
 14 15  1  0
 15 16  1  0
 16 17  1  0
 17 18  1  0
 18 19  1  0
 13 20  1  0
 20 21  2  0
  8 22  2  0
  3 23  1  0
 23 24  1  0
 24 25  2  0
 24 26  1  0
 26 27  1  0
 26  2  1  0
 22  4  1  0
 21 10  1  0
 19 14  1  0
  1 28  1  0
  1 29  1  0
  1 30  1  0
  5 31  1  0
  6 32  1  0
  9 33  1  0
 11 34  1  0
 12 35  1  0
 15 36  1  0
 15 37  1  0
 16 38  1  0
 16 39  1  0
 17 40  1  0
 17 41  1  0
 18 42  1  0
 18 43  1  0
 19 44  1  0
 19 45  1  0
 20 46  1  0
 21 47  1  0
 27 48  1  0
 27 49  1  0
 27 50  1  0
M  CHG  1  17   1
M  END
>  <meeko>  (5) 
{"is_sidechain": [false], "free_energy": -9.329, "intermolecular_energy": -11.457, "internal_energy": -0.274}

$$$$
2xnb_ligand
     RDKit          3D

 50 53  0  0  0  0  0  0  0  0999 V2000
   28.3330   31.9830   26.1010 C   0  0  0  0  0  0  0  0  0  0  0  0
   28.3800   30.5340   25.7270 C   0  0  0  0  0  0  0  0  0  0  0  0
   27.4920   29.5790   26.0660 C   0  0  0  0  0  0  0  0  0  0  0  0
   26.3100   29.6880   26.9290 C   0  0  0  0  0  0  0  0  0  0  0  0
   25.9790   30.8650   27.5620 C   0  0  0  0  0  0  0  0  0  0  0  0
   24.8430   30.8310   28.3280 C   0  0  0  0  0  0  0  0  0  0  0  0
   24.0780   29.7350   28.4690 N   0  0  0  0  0  0  0  0  0  0  0  0
   24.4610   28.6280   27.8200 C   0  0  0  0  0  0  0  0  0  0  0  0
   23.7330   27.4420   27.8840 N   0  0  0  0  0  0  0  0  0  0  0  0
   22.9660   26.8270   28.8750 C   0  0  0  0  0  0  0  0  0  0  0  0
   22.5950   25.4840   28.8570 C   0  0  0  0  0  0  0  0  0  0  0  0
   21.8240   24.9260   29.8890 C   0  0  0  0  0  0  0  0  0  0  0  0
   21.3950   25.6850   30.9870 C   0  0  0  0  0  0  0  0  0  0  0  0
   20.6290   25.0740   31.9960 N   0  0  0  0  0  0  0  0  0  0  0  0
   20.4480   25.8190   33.2580 C   0  0  0  0  0  0  0  0  0  0  0  0
   19.3490   25.1560   34.1110 C   0  0  0  0  0  0  0  0  0  0  0  0
   19.6630   23.6940   34.3260 N   0  0  0  0  0  0  0  0  0  0  0  0
   19.8460   22.9550   33.0230 C   0  0  0  0  0  0  0  0  0  0  0  0
   20.9300   23.6320   32.1610 C   0  0  0  0  0  0  0  0  0  0  0  0
   21.7490   27.0380   30.9910 C   0  0  0  0  0  0  0  0  0  0  0  0
   22.5200   27.5950   29.9590 C   0  0  0  0  0  0  0  0  0  0  0  0
   25.5620   28.5680   27.0550 N   0  0  0  0  0  0  0  0  0  0  0  0
   27.9200   28.0260   25.3980 S   0  0  0  0  0  0  0  0  0  0  0  0
   29.3600   28.6980   24.6310 C   0  0  0  0  0  0  0  0  0  0  0  0
   30.1340   28.0380   23.9590 O   0  0  0  0  0  0  0  0  0  0  0  0
   29.4150   30.0520   24.9310 N   0  0  0  0  0  0  0  0  0  0  0  0
   30.4970   30.8720   24.4330 C   0  0  0  0  0  0  0  0  0  0  0  0
   28.3299   32.0789   27.1968 H   0  0  0  0  0  0  0  0  0  0  0  0
   29.2150   32.4964   25.6905 H   0  0  0  0  0  0  0  0  0  0  0  0
   27.4196   32.4382   25.6905 H   0  0  0  0  0  0  0  0  0  0  0  0
   26.5879   31.7753   27.4594 H   0  0  0  0  0  0  0  0  0  0  0  0
   24.5417   31.7485   28.8548 H   0  0  0  0  0  0  0  0  0  0  0  0
   23.7500   27.0070   26.9740 H   0  0  0  0  0  0  0  0  0  0  0  0
   22.9126   24.8483   28.0174 H   0  0  0  0  0  0  0  0  0  0  0  0
   21.5485   23.8625   29.8346 H   0  0  0  0  0  0  0  0  0  0  0  0
   21.3940   25.8191   33.8194 H   0  0  0  0  0  0  0  0  0  0  0  0
   20.1502   26.8523   33.0267 H   0  0  0  0  0  0  0  0  0  0  0  0
   19.2915   25.6621   35.0860 H   0  0  0  0  0  0  0  0  0  0  0  0
   18.3869   25.2418   33.5848 H   0  0  0  0  0  0  0  0  0  0  0  0
   18.9050   23.2570   34.8650 H   0  0  0  0  0  0  0  0  0  0  0  0
   20.5190   23.6070   34.8880 H   0  0  0  0  0  0  0  0  0  0  0  0
   20.1480   21.9187   33.2348 H   0  0  0  0  0  0  0  0  0  0  0  0
   18.8946   22.9697   32.4711 H   0  0  0  0  0  0  0  0  0  0  0  0
   21.9076   23.5192   32.6526 H   0  0  0  0  0  0  0  0  0  0  0  0
   20.9494   23.1546   31.1702 H   0  0  0  0  0  0  0  0  0  0  0  0
   21.4161   27.6792   31.8205 H   0  0  0  0  0  0  0  0  0  0  0  0
   22.7811   28.6627   30.0022 H   0  0  0  0  0  0  0  0  0  0  0  0
   31.0560   31.2956   25.2804 H   0  0  0  0  0  0  0  0  0  0  0  0
   31.1715   30.2563   23.8199 H   0  0  0  0  0  0  0  0  0  0  0  0
   30.0866   31.6879   23.8199 H   0  0  0  0  0  0  0  0  0  0  0  0
  1  2  1  0
  2  3  2  0
  3  4  1  0
  4  5  2  0
  5  6  1  0
  6  7  2  0
  7  8  1  0
  8  9  1  0
  9 10  1  0
 10 11  2  0
 11 12  1  0
 12 13  2  0
 13 14  1  0
 14 15  1  0
 15 16  1  0
 16 17  1  0
 17 18  1  0
 18 19  1  0
 13 20  1  0
 20 21  2  0
  8 22  2  0
  3 23  1  0
 23 24  1  0
 24 25  2  0
 24 26  1  0
 26 27  1  0
 26  2  1  0
 22  4  1  0
 21 10  1  0
 19 14  1  0
  1 28  1  0
  1 29  1  0
  1 30  1  0
  5 31  1  0
  6 32  1  0
  9 33  1  0
 11 34  1  0
 12 35  1  0
 15 36  1  0
 15 37  1  0
 16 38  1  0
 16 39  1  0
 17 40  1  0
 17 41  1  0
 18 42  1  0
 18 43  1  0
 19 44  1  0
 19 45  1  0
 20 46  1  0
 21 47  1  0
 27 48  1  0
 27 49  1  0
 27 50  1  0
M  CHG  1  17   1
M  END
>  <meeko>  (6) 
{"is_sidechain": [false], "free_energy": -9.107, "intermolecular_energy": -11.779, "internal_energy": 0.323}

$$$$
2xnb_ligand
     RDKit          3D

 50 53  0  0  0  0  0  0  0  0999 V2000
   19.4250   22.1670   26.6830 C   0  0  0  0  0  0  0  0  0  0  0  0
   20.8270   22.1910   26.1570 C   0  0  0  0  0  0  0  0  0  0  0  0
   21.8950   22.7910   26.7180 C   0  0  0  0  0  0  0  0  0  0  0  0
   21.9530   23.6210   27.9270 C   0  0  0  0  0  0  0  0  0  0  0  0
   21.8370   23.0770   29.1870 C   0  0  0  0  0  0  0  0  0  0  0  0
   21.9210   23.9640   30.2280 C   0  0  0  0  0  0  0  0  0  0  0  0
   22.1080   25.2850   30.0630 N   0  0  0  0  0  0  0  0  0  0  0  0
   22.2150   25.7400   28.8090 C   0  0  0  0  0  0  0  0  0  0  0  0
   22.4250   27.0870   28.5240 N   0  0  0  0  0  0  0  0  0  0  0  0
   23.5380   27.8350   28.1340 C   0  0  0  0  0  0  0  0  0  0  0  0
   24.5360   27.3650   27.2830 C   0  0  0  0  0  0  0  0  0  0  0  0
   25.6290   28.1710   26.9260 C   0  0  0  0  0  0  0  0  0  0  0  0
   25.7690   29.4820   27.4000 C   0  0  0  0  0  0  0  0  0  0  0  0
   26.8810   30.2480   27.0070 N   0  0  0  0  0  0  0  0  0  0  0  0
   26.6190   31.5760   26.4200 C   0  0  0  0  0  0  0  0  0  0  0  0
   27.9280   32.3870   26.3380 C   0  0  0  0  0  0  0  0  0  0  0  0
   28.9820   31.6060   25.5890 N   0  0  0  0  0  0  0  0  0  0  0  0
   29.2300   30.2510   26.2060 C   0  0  0  0  0  0  0  0  0  0  0  0
   27.9170   29.4510   26.3070 C   0  0  0  0  0  0  0  0  0  0  0  0
   24.7780   29.9430   28.2740 C   0  0  0  0  0  0  0  0  0  0  0  0
   23.6850   29.1360   28.6290 C   0  0  0  0  0  0  0  0  0  0  0  0
   22.1370   24.9460   27.7290 N   0  0  0  0  0  0  0  0  0  0  0  0
   23.3440   22.5500   25.7790 S   0  0  0  0  0  0  0  0  0  0  0  0
   22.4680   21.5990   24.5790 C   0  0  0  0  0  0  0  0  0  0  0  0
   22.9940   21.1090   23.5940 O   0  0  0  0  0  0  0  0  0  0  0  0
   21.1390   21.5270   24.9730 N   0  0  0  0  0  0  0  0  0  0  0  0
   20.1730   20.8040   24.1760 C   0  0  0  0  0  0  0  0  0  0  0  0
   19.4459   22.1674   27.7828 H   0  0  0  0  0  0  0  0  0  0  0  0
   18.8843   23.0560   26.3263 H   0  0  0  0  0  0  0  0  0  0  0  0
   18.9150   21.2600   26.3263 H   0  0  0  0  0  0  0  0  0  0  0  0
   21.6865   21.9992   29.3474 H   0  0  0  0  0  0  0  0  0  0  0  0
   21.8307   23.5746   31.2528 H   0  0  0  0  0  0  0  0  0  0  0  0
   21.5370   27.5650   28.5650 H   0  0  0  0  0  0  0  0  0  0  0  0
   24.4664   26.3427   26.8830 H   0  0  0  0  0  0  0  0  0  0  0  0
   26.3978   27.7611   26.2545 H   0  0  0  0  0  0  0  0  0  0  0  0
   26.2043   31.4514   25.4088 H   0  0  0  0  0  0  0  0  0  0  0  0
   25.9008   32.1150   27.0554 H   0  0  0  0  0  0  0  0  0  0  0  0
   27.7359   33.3340   25.8123 H   0  0  0  0  0  0  0  0  0  0  0  0
   28.2887   32.5886   27.3574 H   0  0  0  0  0  0  0  0  0  0  0  0
   29.8590   32.1420   25.5730 H   0  0  0  0  0  0  0  0  0  0  0  0
   28.6870   31.4850   24.6110 H   0  0  0  0  0  0  0  0  0  0  0  0
   29.9447   29.6950   25.5814 H   0  0  0  0  0  0  0  0  0  0  0  0
   29.6374   30.3920   27.2180 H   0  0  0  0  0  0  0  0  0  0  0  0
   27.5632   29.2051   25.2949 H   0  0  0  0  0  0  0  0  0  0  0  0
   28.1033   28.5281   26.8759 H   0  0  0  0  0  0  0  0  0  0  0  0
   24.8568   30.9577   28.6912 H   0  0  0  0  0  0  0  0  0  0  0  0
   22.9239   29.5370   29.3145 H   0  0  0  0  0  0  0  0  0  0  0  0
   19.4704   20.2782   24.8393 H   0  0  0  0  0  0  0  0  0  0  0  0
   19.6187   21.5110   23.5412 H   0  0  0  0  0  0  0  0  0  0  0  0
   20.6950   20.0729   23.5412 H   0  0  0  0  0  0  0  0  0  0  0  0
  1  2  1  0
  2  3  2  0
  3  4  1  0
  4  5  2  0
  5  6  1  0
  6  7  2  0
  7  8  1  0
  8  9  1  0
  9 10  1  0
 10 11  2  0
 11 12  1  0
 12 13  2  0
 13 14  1  0
 14 15  1  0
 15 16  1  0
 16 17  1  0
 17 18  1  0
 18 19  1  0
 13 20  1  0
 20 21  2  0
  8 22  2  0
  3 23  1  0
 23 24  1  0
 24 25  2  0
 24 26  1  0
 26 27  1  0
 26  2  1  0
 22  4  1  0
 21 10  1  0
 19 14  1  0
  1 28  1  0
  1 29  1  0
  1 30  1  0
  5 31  1  0
  6 32  1  0
  9 33  1  0
 11 34  1  0
 12 35  1  0
 15 36  1  0
 15 37  1  0
 16 38  1  0
 16 39  1  0
 17 40  1  0
 17 41  1  0
 18 42  1  0
 18 43  1  0
 19 44  1  0
 19 45  1  0
 20 46  1  0
 21 47  1  0
 27 48  1  0
 27 49  1  0
 27 50  1  0
M  CHG  1  17   1
M  END
>  <meeko>  (7) 
{"is_sidechain": [false], "free_energy": -8.85, "intermolecular_energy": -10.562, "internal_energy": -0.578}

$$$$
2xnb_ligand
     RDKit          3D

 50 53  0  0  0  0  0  0  0  0999 V2000
   22.6330   22.3600   29.5970 C   0  0  0  0  0  0  0  0  0  0  0  0
   21.5290   22.8950   28.7370 C   0  0  0  0  0  0  0  0  0  0  0  0
   21.0010   24.1340   28.7710 C   0  0  0  0  0  0  0  0  0  0  0  0
   21.3090   25.2400   29.6860 C   0  0  0  0  0  0  0  0  0  0  0  0
   21.1450   25.1220   31.0480 C   0  0  0  0  0  0  0  0  0  0  0  0
   21.4830   26.2260   31.7860 C   0  0  0  0  0  0  0  0  0  0  0  0
   21.9500   27.3650   31.2440 N   0  0  0  0  0  0  0  0  0  0  0  0
   22.0850   27.4030   29.9130 C   0  0  0  0  0  0  0  0  0  0  0  0
   22.5740   28.5270   29.2500 N   0  0  0  0  0  0  0  0  0  0  0  0
   23.7170   28.7840   28.4910 C   0  0  0  0  0  0  0  0  0  0  0  0
   24.3250   27.8540   27.6510 C   0  0  0  0  0  0  0  0  0  0  0  0
   25.4720   28.1800   26.9110 C   0  0  0  0  0  0  0  0  0  0  0  0
   26.0590   29.4510   26.9750 C   0  0  0  0  0  0  0  0  0  0  0  0
   27.2060   29.7250   26.2070 N   0  0  0  0  0  0  0  0  0  0  0  0
   28.0370   28.5780   25.7940 C   0  0  0  0  0  0  0  0  0  0  0  0
   29.0540   29.0190   24.7220 C   0  0  0  0  0  0  0  0  0  0  0  0
   29.8660   30.1900   25.2220 N   0  0  0  0  0  0  0  0  0  0  0  0
   28.9950   31.3490   25.6410 C   0  0  0  0  0  0  0  0  0  0  0  0
   27.9650   30.9010   26.6960 C   0  0  0  0  0  0  0  0  0  0  0  0
   25.4610   30.3760   27.8360 C   0  0  0  0  0  0  0  0  0  0  0  0
   24.3130   30.0490   28.5750 C   0  0  0  0  0  0  0  0  0  0  0  0
   21.7720   26.3730   29.1120 N   0  0  0  0  0  0  0  0  0  0  0  0
   19.7470   24.3390   27.5770 S   0  0  0  0  0  0  0  0  0  0  0  0
   19.9460   22.6800   27.0110 C   0  0  0  0  0  0  0  0  0  0  0  0
   19.2890   22.1950   26.1060 O   0  0  0  0  0  0  0  0  0  0  0  0
   20.9500   22.0870   27.7620 N   0  0  0  0  0  0  0  0  0  0  0  0
   21.3370   20.7140   27.5200 C   0  0  0  0  0  0  0  0  0  0  0  0
   22.3675   22.4887   30.6567 H   0  0  0  0  0  0  0  0  0  0  0  0
   22.7794   21.2910   29.3829 H   0  0  0  0  0  0  0  0  0  0  0  0
   23.5627   22.9075   29.3829 H   0  0  0  0  0  0  0  0  0  0  0  0
   20.7667   24.2002   31.5140 H   0  0  0  0  0  0  0  0  0  0  0  0
   21.3663   26.1783   32.8788 H   0  0  0  0  0  0  0  0  0  0  0  0
   21.8840   29.2610   29.3140 H   0  0  0  0  0  0  0  0  0  0  0  0
   23.8976   26.8440   27.5660 H   0  0  0  0  0  0  0  0  0  0  0  0
   25.9236   27.4155   26.2617 H   0  0  0  0  0  0  0  0  0  0  0  0
   28.5771   28.1864   26.6686 H   0  0  0  0  0  0  0  0  0  0  0  0
   27.3876   27.7958   25.3740 H   0  0  0  0  0  0  0  0  0  0  0  0
   29.7284   28.1803   24.4944 H   0  0  0  0  0  0  0  0  0  0  0  0
   28.5101   29.3213   23.8149 H   0  0  0  0  0  0  0  0  0  0  0  0
   30.5140   30.4970   24.4850 H   0  0  0  0  0  0  0  0  0  0  0  0
   30.4410   29.8910   26.0210 H   0  0  0  0  0  0  0  0  0  0  0  0
   29.6280   32.1410   26.0676 H   0  0  0  0  0  0  0  0  0  0  0  0
   28.4572   31.7252   24.7583 H   0  0  0  0  0  0  0  0  0  0  0  0
   28.4899   30.6335   27.6249 H   0  0  0  0  0  0  0  0  0  0  0  0
   27.2632   31.7269   26.8842 H   0  0  0  0  0  0  0  0  0  0  0  0
   25.8988   31.3801   27.9364 H   0  0  0  0  0  0  0  0  0  0  0  0
   23.8695   30.8066   29.2379 H   0  0  0  0  0  0  0  0  0  0  0  0
   21.4821   20.1991   28.4812 H   0  0  0  0  0  0  0  0  0  0  0  0
   20.5471   20.2059   26.9474 H   0  0  0  0  0  0  0  0  0  0  0  0
   22.2760   20.6932   26.9474 H   0  0  0  0  0  0  0  0  0  0  0  0
  1  2  1  0
  2  3  2  0
  3  4  1  0
  4  5  2  0
  5  6  1  0
  6  7  2  0
  7  8  1  0
  8  9  1  0
  9 10  1  0
 10 11  2  0
 11 12  1  0
 12 13  2  0
 13 14  1  0
 14 15  1  0
 15 16  1  0
 16 17  1  0
 17 18  1  0
 18 19  1  0
 13 20  1  0
 20 21  2  0
  8 22  2  0
  3 23  1  0
 23 24  1  0
 24 25  2  0
 24 26  1  0
 26 27  1  0
 26  2  1  0
 22  4  1  0
 21 10  1  0
 19 14  1  0
  1 28  1  0
  1 29  1  0
  1 30  1  0
  5 31  1  0
  6 32  1  0
  9 33  1  0
 11 34  1  0
 12 35  1  0
 15 36  1  0
 15 37  1  0
 16 38  1  0
 16 39  1  0
 17 40  1  0
 17 41  1  0
 18 42  1  0
 18 43  1  0
 19 44  1  0
 19 45  1  0
 20 46  1  0
 21 47  1  0
 27 48  1  0
 27 49  1  0
 27 50  1  0
M  CHG  1  17   1
M  END
>  <meeko>  (8) 
{"is_sidechain": [false], "free_energy": -8.784, "intermolecular_energy": -10.628, "internal_energy": -0.43}

$$$$
2xnb_ligand
     RDKit          3D

 50 53  0  0  0  0  0  0  0  0999 V2000
   27.5930   32.5050   26.1820 C   0  0  0  0  0  0  0  0  0  0  0  0
   26.8980   31.2890   26.7150 C   0  0  0  0  0  0  0  0  0  0  0  0
   27.2190   30.0020   26.4800 C   0  0  0  0  0  0  0  0  0  0  0  0
   28.2670   29.4610   25.6060 C   0  0  0  0  0  0  0  0  0  0  0  0
   29.5350   29.9980   25.5740 C   0  0  0  0  0  0  0  0  0  0  0  0
   30.4180   29.3880   24.7220 C   0  0  0  0  0  0  0  0  0  0  0  0
   30.0980   28.3310   23.9550 N   0  0  0  0  0  0  0  0  0  0  0  0
   28.8470   27.8630   24.0420 C   0  0  0  0  0  0  0  0  0  0  0  0
   28.4140   26.7630   23.3050 N   0  0  0  0  0  0  0  0  0  0  0  0
   27.4850   25.7460   23.5330 C   0  0  0  0  0  0  0  0  0  0  0  0
   27.1040   24.8060   22.5790 C   0  0  0  0  0  0  0  0  0  0  0  0
   26.1670   23.8040   22.8760 C   0  0  0  0  0  0  0  0  0  0  0  0
   25.5730   23.6970   24.1410 C   0  0  0  0  0  0  0  0  0  0  0  0
   24.6420   22.6700   24.3850 N   0  0  0  0  0  0  0  0  0  0  0  0
   24.1020   21.9490   23.2160 C   0  0  0  0  0  0  0  0  0  0  0  0
   23.3550   20.6810   23.6740 C   0  0  0  0  0  0  0  0  0  0  0  0
   22.2970   21.0350   24.6920 N   0  0  0  0  0  0  0  0  0  0  0  0
   22.8720   21.7740   25.8760 C   0  0  0  0  0  0  0  0  0  0  0  0
   23.6370   23.0290   25.4140 C   0  0  0  0  0  0  0  0  0  0  0  0
   25.9380   24.6570   25.0900 C   0  0  0  0  0  0  0  0  0  0  0  0
   26.8770   25.6570   24.7920 C   0  0  0  0  0  0  0  0  0  0  0  0
   27.9140   28.4010   24.8430 N   0  0  0  0  0  0  0  0  0  0  0  0
   26.1570   28.9030   27.3190 S   0  0  0  0  0  0  0  0  0  0  0  0
   25.2400   30.2410   28.0120 C   0  0  0  0  0  0  0  0  0  0  0  0
   24.2860   30.0890   28.7570 O   0  0  0  0  0  0  0  0  0  0  0  0
   25.8040   31.4270   27.5640 N   0  0  0  0  0  0  0  0  0  0  0  0
   25.2570   32.7030   27.9730 C   0  0  0  0  0  0  0  0  0  0  0  0
   27.9461   33.1228   27.0209 H   0  0  0  0  0  0  0  0  0  0  0  0
   28.4513   32.1967   25.5669 H   0  0  0  0  0  0  0  0  0  0  0  0
   26.8918   33.0881   25.5669 H   0  0  0  0  0  0  0  0  0  0  0  0
   29.8206   30.8614   26.1929 H   0  0  0  0  0  0  0  0  0  0  0  0
   31.4426   29.7839   24.6624 H   0  0  0  0  0  0  0  0  0  0  0  0
   28.8540   26.7940   22.3970 H   0  0  0  0  0  0  0  0  0  0  0  0
   27.5461   24.8495   21.5727 H   0  0  0  0  0  0  0  0  0  0  0  0
   25.8909   23.0819   22.0934 H   0  0  0  0  0  0  0  0  0  0  0  0
   23.4057   22.6054   22.6736 H   0  0  0  0  0  0  0  0  0  0  0  0
   24.9333   21.6586   22.5568 H   0  0  0  0  0  0  0  0  0  0  0  0
   22.8772   20.2071   22.8039 H   0  0  0  0  0  0  0  0  0  0  0  0
   24.0751   19.9874   24.1327 H   0  0  0  0  0  0  0  0  0  0  0  0
   21.8320   20.1780   25.0150 H   0  0  0  0  0  0  0  0  0  0  0  0
   21.5760   21.6180   24.2460 H   0  0  0  0  0  0  0  0  0  0  0  0
   22.0533   22.0760   26.5457 H   0  0  0  0  0  0  0  0  0  0  0  0
   23.5703   21.1080   26.4041 H   0  0  0  0  0  0  0  0  0  0  0  0
   22.9250   23.7519   24.9891 H   0  0  0  0  0  0  0  0  0  0  0  0
   24.1531   23.4717   26.2787 H   0  0  0  0  0  0  0  0  0  0  0  0
   25.4803   24.6280   26.0898 H   0  0  0  0  0  0  0  0  0  0  0  0
   27.1425   26.3903   25.5677 H   0  0  0  0  0  0  0  0  0  0  0  0
   25.2339   32.7569   29.0714 H   0  0  0  0  0  0  0  0  0  0  0  0
   25.8862   33.5148   27.5792 H   0  0  0  0  0  0  0  0  0  0  0  0
   24.2352   32.8071   27.5792 H   0  0  0  0  0  0  0  0  0  0  0  0
  1  2  1  0
  2  3  2  0
  3  4  1  0
  4  5  2  0
  5  6  1  0
  6  7  2  0
  7  8  1  0
  8  9  1  0
  9 10  1  0
 10 11  2  0
 11 12  1  0
 12 13  2  0
 13 14  1  0
 14 15  1  0
 15 16  1  0
 16 17  1  0
 17 18  1  0
 18 19  1  0
 13 20  1  0
 20 21  2  0
  8 22  2  0
  3 23  1  0
 23 24  1  0
 24 25  2  0
 24 26  1  0
 26 27  1  0
 26  2  1  0
 22  4  1  0
 21 10  1  0
 19 14  1  0
  1 28  1  0
  1 29  1  0
  1 30  1  0
  5 31  1  0
  6 32  1  0
  9 33  1  0
 11 34  1  0
 12 35  1  0
 15 36  1  0
 15 37  1  0
 16 38  1  0
 16 39  1  0
 17 40  1  0
 17 41  1  0
 18 42  1  0
 18 43  1  0
 19 44  1  0
 19 45  1  0
 20 46  1  0
 21 47  1  0
 27 48  1  0
 27 49  1  0
 27 50  1  0
M  CHG  1  17   1
M  END
>  <meeko>  (9) 
{"is_sidechain": [false], "free_energy": -8.559, "intermolecular_energy": -10.784, "internal_energy": 0.003}

$$$$
