2wn9_ligand
     RDKit          3D

 41 43  0  0  0  0  0  0  0  0999 V2000
   31.9480   -2.3170   60.0280 C   0  0  0  0  0  0  0  0  0  0  0  0
   31.0460   -3.4160   59.9520 O   0  0  0  0  0  0  0  0  0  0  0  0
   30.4060   -3.7820   61.1120 C   0  0  0  0  0  0  0  0  0  0  0  0
   30.1720   -2.9290   62.1960 C   0  0  0  0  0  0  0  0  0  0  0  0
   29.4960   -3.4090   63.3160 C   0  0  0  0  0  0  0  0  0  0  0  0
   29.2440   -2.6110   64.3930 O   0  0  0  0  0  0  0  0  0  0  0  0
   29.0470   -4.7220   63.3800 C   0  0  0  0  0  0  0  0  0  0  0  0
   29.2730   -5.5800   62.3060 C   0  0  0  0  0  0  0  0  0  0  0  0
   29.9480   -5.1150   61.1690 C   0  0  0  0  0  0  0  0  0  0  0  0
   30.1690   -6.0390   60.0450 C   0  0  0  0  0  0  0  0  0  0  0  0
   29.1790   -6.6610   59.3780 C   0  0  0  0  0  0  0  0  0  0  0  0
   27.7060   -6.4830   59.6810 C   0  0  0  0  0  0  0  0  0  0  0  0
   26.8960   -6.4340   58.3880 C   0  0  0  0  0  0  0  0  0  0  0  0
   27.1080   -7.6910   57.5640 C   0  0  0  0  0  0  0  0  0  0  0  0
   28.5540   -7.9710   57.4240 N   0  0  0  0  0  0  0  0  0  0  0  0
   29.4920   -7.5420   58.2020 C   0  0  0  0  0  0  0  0  0  0  0  0
   30.8810   -7.9420   57.9280 C   0  0  0  0  0  0  0  0  0  0  0  0
   31.4180   -9.0880   58.5140 C   0  0  0  0  0  0  0  0  0  0  0  0
   32.7260   -9.4500   58.1980 C   0  0  0  0  0  0  0  0  0  0  0  0
   33.4330   -8.6570   57.3060 C   0  0  0  0  0  0  0  0  0  0  0  0
   32.9240   -7.5450   56.7260 N   0  0  0  0  0  0  0  0  0  0  0  0
   31.6640   -7.1970   57.0560 C   0  0  0  0  0  0  0  0  0  0  0  0
   32.1452   -2.0768   61.0832 H   0  0  0  0  0  0  0  0  0  0  0  0
   32.8921   -2.5824   59.5298 H   0  0  0  0  0  0  0  0  0  0  0  0
   31.5036   -1.4428   59.5298 H   0  0  0  0  0  0  0  0  0  0  0  0
   30.5195   -1.8858   62.1643 H   0  0  0  0  0  0  0  0  0  0  0  0
   29.6810   -2.9770   65.1800 H   0  0  0  0  0  0  0  0  0  0  0  0
   28.5161   -5.0821   64.2735 H   0  0  0  0  0  0  0  0  0  0  0  0
   28.9220   -6.6216   62.3502 H   0  0  0  0  0  0  0  0  0  0  0  0
   31.2053   -6.2329   59.7312 H   0  0  0  0  0  0  0  0  0  0  0  0
   27.3580   -7.3273   60.2943 H   0  0  0  0  0  0  0  0  0  0  0  0
   27.5665   -5.5367   60.2241 H   0  0  0  0  0  0  0  0  0  0  0  0
   25.8282   -6.3425   58.6359 H   0  0  0  0  0  0  0  0  0  0  0  0
   27.2308   -5.5681   57.7979 H   0  0  0  0  0  0  0  0  0  0  0  0
   26.6200   -8.5404   58.0644 H   0  0  0  0  0  0  0  0  0  0  0  0
   26.6721   -7.5436   56.5649 H   0  0  0  0  0  0  0  0  0  0  0  0
   28.8110   -8.5940   56.6490 H   0  0  0  0  0  0  0  0  0  0  0  0
   30.8211   -9.6939   59.2116 H   0  0  0  0  0  0  0  0  0  0  0  0
   33.1868  -10.3431   58.6451 H   0  0  0  0  0  0  0  0  0  0  0  0
   34.4640   -8.9479   57.0563 H   0  0  0  0  0  0  0  0  0  0  0  0
   31.2378   -6.2836   56.6155 H   0  0  0  0  0  0  0  0  0  0  0  0
  1  2  1  0
  2  3  1  0
  3  4  2  0
  4  5  1  0
  5  6  1  0
  5  7  2  0
  7  8  1  0
  8  9  2  0
  9 10  1  0
 10 11  2  0
 11 12  1  0
 12 13  1  0
 13 14  1  0
 14 15  1  0
 15 16  2  0
 16 17  1  0
 17 18  2  0
 18 19  1  0
 19 20  2  0
 20 21  1  0
 21 22  2  0
  9  3  1  0
 16 11  1  0
 22 17  1  0
  1 23  1  0
  1 24  1  0
  1 25  1  0
  4 26  1  0
  6 27  1  0
  7 28  1  0
  8 29  1  0
 10 30  1  0
 12 31  1  0
 12 32  1  0
 13 33  1  0
 13 34  1  0
 14 35  1  0
 14 36  1  0
 15 37  1  0
 18 38  1  0
 19 39  1  0
 20 40  1  0
 22 41  1  0
M  CHG  1  15   1
M  END
>  <meeko>  (1) 
{"is_sidechain": [false], "free_energy": -7.583, "intermolecular_energy": -9.134, "internal_energy": -0.493}

$$$$
2wn9_ligand
     RDKit          3D

 41 43  0  0  0  0  0  0  0  0999 V2000
   30.9090   -9.0370   58.1270 C   0  0  0  0  0  0  0  0  0  0  0  0
   30.3970   -7.7150   57.9940 O   0  0  0  0  0  0  0  0  0  0  0  0
   29.0360   -7.5570   58.0990 C   0  0  0  0  0  0  0  0  0  0  0  0
   28.0940   -8.1950   57.2830 C   0  0  0  0  0  0  0  0  0  0  0  0
   26.7350   -7.9700   57.4950 C   0  0  0  0  0  0  0  0  0  0  0  0
   25.7840   -8.5720   56.7260 O   0  0  0  0  0  0  0  0  0  0  0  0
   26.2930   -7.1230   58.5040 C   0  0  0  0  0  0  0  0  0  0  0  0
   27.2200   -6.4850   59.3240 C   0  0  0  0  0  0  0  0  0  0  0  0
   28.5920   -6.7010   59.1280 C   0  0  0  0  0  0  0  0  0  0  0  0
   29.5510   -6.0190   60.0110 C   0  0  0  0  0  0  0  0  0  0  0  0
   29.7550   -6.3520   61.3000 C   0  0  0  0  0  0  0  0  0  0  0  0
   29.0380   -7.4810   62.0110 C   0  0  0  0  0  0  0  0  0  0  0  0
   29.9970   -8.2270   62.9340 C   0  0  0  0  0  0  0  0  0  0  0  0
   30.6180   -7.2840   63.9510 C   0  0  0  0  0  0  0  0  0  0  0  0
   31.1570   -6.0850   63.2720 N   0  0  0  0  0  0  0  0  0  0  0  0
   30.8010   -5.6420   62.1120 C   0  0  0  0  0  0  0  0  0  0  0  0
   31.4260   -4.4130   61.5980 C   0  0  0  0  0  0  0  0  0  0  0  0
   32.6750   -4.4580   60.9810 C   0  0  0  0  0  0  0  0  0  0  0  0
   33.2130   -3.2760   60.4750 C   0  0  0  0  0  0  0  0  0  0  0  0
   32.4760   -2.1080   60.6020 C   0  0  0  0  0  0  0  0  0  0  0  0
   31.2600   -2.0500   61.1940 N   0  0  0  0  0  0  0  0  0  0  0  0
   30.7620   -3.1970   61.6950 C   0  0  0  0  0  0  0  0  0  0  0  0
   31.0059   -9.2871   59.1938 H   0  0  0  0  0  0  0  0  0  0  0  0
   30.2208   -9.7470   57.6450 H   0  0  0  0  0  0  0  0  0  0  0  0
   31.8959   -9.0982   57.6450 H   0  0  0  0  0  0  0  0  0  0  0  0
   28.4245   -8.8697   56.4795 H   0  0  0  0  0  0  0  0  0  0  0  0
   26.0700   -9.4720   56.4960 H   0  0  0  0  0  0  0  0  0  0  0  0
   25.2160   -6.9573   58.6542 H   0  0  0  0  0  0  0  0  0  0  0  0
   26.8769   -5.8127   60.1242 H   0  0  0  0  0  0  0  0  0  0  0  0
   30.1368   -5.1869   59.5932 H   0  0  0  0  0  0  0  0  0  0  0  0
   28.2115   -7.0663   62.6068 H   0  0  0  0  0  0  0  0  0  0  0  0
   28.6490   -8.1839   61.2596 H   0  0  0  0  0  0  0  0  0  0  0  0
   29.4443   -9.0158   63.4654 H   0  0  0  0  0  0  0  0  0  0  0  0
   30.8015   -8.6641   62.3243 H   0  0  0  0  0  0  0  0  0  0  0  0
   29.8513   -6.9766   64.6774 H   0  0  0  0  0  0  0  0  0  0  0  0
   31.4382   -7.8031   64.4685 H   0  0  0  0  0  0  0  0  0  0  0  0
   31.8540   -5.5520   63.8040 H   0  0  0  0  0  0  0  0  0  0  0  0
   33.2248   -5.4069   60.8952 H   0  0  0  0  0  0  0  0  0  0  0  0
   34.1986   -3.2697   59.9866 H   0  0  0  0  0  0  0  0  0  0  0  0
   32.9031   -1.1776   60.1995 H   0  0  0  0  0  0  0  0  0  0  0  0
   29.7868   -3.1693   62.2032 H   0  0  0  0  0  0  0  0  0  0  0  0
  1  2  1  0
  2  3  1  0
  3  4  2  0
  4  5  1  0
  5  6  1  0
  5  7  2  0
  7  8  1  0
  8  9  2  0
  9 10  1  0
 10 11  2  0
 11 12  1  0
 12 13  1  0
 13 14  1  0
 14 15  1  0
 15 16  2  0
 16 17  1  0
 17 18  2  0
 18 19  1  0
 19 20  2  0
 20 21  1  0
 21 22  2  0
  9  3  1  0
 16 11  1  0
 22 17  1  0
  1 23  1  0
  1 24  1  0
  1 25  1  0
  4 26  1  0
  6 27  1  0
  7 28  1  0
  8 29  1  0
 10 30  1  0
 12 31  1  0
 12 32  1  0
 13 33  1  0
 13 34  1  0
 14 35  1  0
 14 36  1  0
 15 37  1  0
 18 38  1  0
 19 39  1  0
 20 40  1  0
 22 41  1  0
M  CHG  1  15   1
M  END
>  <meeko>  (2) 
{"is_sidechain": [false], "free_energy": -7.553, "intermolecular_energy": -8.916, "internal_energy": -0.675}

$$$$
2wn9_ligand
     RDKit          3D

 41 43  0  0  0  0  0  0  0  0999 V2000
   29.0800   -9.7180   64.0960 C   0  0  0  0  0  0  0  0  0  0  0  0
   29.7180   -8.5370   63.6200 O   0  0  0  0  0  0  0  0  0  0  0  0
   30.7540   -8.0390   64.3720 C   0  0  0  0  0  0  0  0  0  0  0  0
   31.1490   -8.5410   65.6170 C   0  0  0  0  0  0  0  0  0  0  0  0
   32.2290   -7.9630   66.2820 C   0  0  0  0  0  0  0  0  0  0  0  0
   32.6480   -8.4220   67.4950 O   0  0  0  0  0  0  0  0  0  0  0  0
   32.9250   -6.8940   65.7320 C   0  0  0  0  0  0  0  0  0  0  0  0
   32.5430   -6.3870   64.4920 C   0  0  0  0  0  0  0  0  0  0  0  0
   31.4610   -6.9580   63.8070 C   0  0  0  0  0  0  0  0  0  0  0  0
   31.0810   -6.4080   62.4960 C   0  0  0  0  0  0  0  0  0  0  0  0
   30.4110   -5.2510   62.3310 C   0  0  0  0  0  0  0  0  0  0  0  0
   29.9720   -4.3530   63.4700 C   0  0  0  0  0  0  0  0  0  0  0  0
   30.1580   -2.8860   63.0950 C   0  0  0  0  0  0  0  0  0  0  0  0
   29.3830   -2.5430   61.8350 C   0  0  0  0  0  0  0  0  0  0  0  0
   29.6710   -3.5340   60.7740 N   0  0  0  0  0  0  0  0  0  0  0  0
   30.1170   -4.7330   60.9530 C   0  0  0  0  0  0  0  0  0  0  0  0
   30.3220   -5.5970   59.7800 C   0  0  0  0  0  0  0  0  0  0  0  0
   29.3660   -6.5460   59.4220 C   0  0  0  0  0  0  0  0  0  0  0  0
   29.5840   -7.3170   58.2820 C   0  0  0  0  0  0  0  0  0  0  0  0
   30.7410   -7.0990   57.5490 C   0  0  0  0  0  0  0  0  0  0  0  0
   31.6760   -6.1790   57.8810 N   0  0  0  0  0  0  0  0  0  0  0  0
   31.4600   -5.4530   58.9960 C   0  0  0  0  0  0  0  0  0  0  0  0
   29.0805   -9.7171   65.1960 H   0  0  0  0  0  0  0  0  0  0  0  0
   28.0432   -9.7476   63.7298 H   0  0  0  0  0  0  0  0  0  0  0  0
   29.6236  -10.6014   63.7298 H   0  0  0  0  0  0  0  0  0  0  0  0
   30.6102   -9.3871   66.0684 H   0  0  0  0  0  0  0  0  0  0  0  0
   32.5850   -7.7110   68.1540 H   0  0  0  0  0  0  0  0  0  0  0  0
   33.7736   -6.4500   66.2730 H   0  0  0  0  0  0  0  0  0  0  0  0
   33.0893   -5.5402   64.0510 H   0  0  0  0  0  0  0  0  0  0  0  0
   31.3609   -6.9759   61.5965 H   0  0  0  0  0  0  0  0  0  0  0  0
   28.9102   -4.5389   63.6891 H   0  0  0  0  0  0  0  0  0  0  0  0
   30.5861   -4.5748   64.3553 H   0  0  0  0  0  0  0  0  0  0  0  0
   29.7983   -2.2553   63.9213 H   0  0  0  0  0  0  0  0  0  0  0  0
   31.2269   -2.7051   62.9087 H   0  0  0  0  0  0  0  0  0  0  0  0
   28.3057   -2.5509   62.0572 H   0  0  0  0  0  0  0  0  0  0  0  0
   29.6865   -1.5447   61.4867 H   0  0  0  0  0  0  0  0  0  0  0  0
   29.4570   -3.2310   59.8170 H   0  0  0  0  0  0  0  0  0  0  0  0
   28.4578   -6.6835   60.0272 H   0  0  0  0  0  0  0  0  0  0  0  0
   28.8557   -8.0804   57.9708 H   0  0  0  0  0  0  0  0  0  0  0  0
   30.9078   -7.7076   56.6480 H   0  0  0  0  0  0  0  0  0  0  0  0
   32.2173   -4.7147   59.2982 H   0  0  0  0  0  0  0  0  0  0  0  0
  1  2  1  0
  2  3  1  0
  3  4  2  0
  4  5  1  0
  5  6  1  0
  5  7  2  0
  7  8  1  0
  8  9  2  0
  9 10  1  0
 10 11  2  0
 11 12  1  0
 12 13  1  0
 13 14  1  0
 14 15  1  0
 15 16  2  0
 16 17  1  0
 17 18  2  0
 18 19  1  0
 19 20  2  0
 20 21  1  0
 21 22  2  0
  9  3  1  0
 16 11  1  0
 22 17  1  0
  1 23  1  0
  1 24  1  0
  1 25  1  0
  4 26  1  0
  6 27  1  0
  7 28  1  0
  8 29  1  0
 10 30  1  0
 12 31  1  0
 12 32  1  0
 13 33  1  0
 13 34  1  0
 14 35  1  0
 14 36  1  0
 15 37  1  0
 18 38  1  0
 19 39  1  0
 20 40  1  0
 22 41  1  0
M  CHG  1  15   1
M  END
>  <meeko>  (3) 
{"is_sidechain": [false], "free_energy": -7.466, "intermolecular_energy": -8.757, "internal_energy": -0.73}

$$$$
2wn9_ligand
     RDKit          3D

 41 43  0  0  0  0  0  0  0  0999 V2000
   29.4770   -7.9480   63.0720 C   0  0  0  0  0  0  0  0  0  0  0  0
   30.5050   -7.0240   62.7300 O   0  0  0  0  0  0  0  0  0  0  0  0
   30.1480   -5.7020   62.6220 C   0  0  0  0  0  0  0  0  0  0  0  0
   29.9420   -4.8410   63.7050 C   0  0  0  0  0  0  0  0  0  0  0  0
   29.5970   -3.5100   63.4720 C   0  0  0  0  0  0  0  0  0  0  0  0
   29.3890   -2.6370   64.4980 O   0  0  0  0  0  0  0  0  0  0  0  0
   29.4530   -3.0190   62.1800 C   0  0  0  0  0  0  0  0  0  0  0  0
   29.6580   -3.8660   61.0940 C   0  0  0  0  0  0  0  0  0  0  0  0
   30.0090   -5.2060   61.3080 C   0  0  0  0  0  0  0  0  0  0  0  0
   30.2260   -6.0790   60.1440 C   0  0  0  0  0  0  0  0  0  0  0  0
   29.2340   -6.6810   59.4600 C   0  0  0  0  0  0  0  0  0  0  0  0
   27.7620   -6.5280   59.7850 C   0  0  0  0  0  0  0  0  0  0  0  0
   26.9380   -6.4290   58.5040 C   0  0  0  0  0  0  0  0  0  0  0  0
   27.1520   -7.6480   57.6240 C   0  0  0  0  0  0  0  0  0  0  0  0
   28.5990   -7.9100   57.4570 N   0  0  0  0  0  0  0  0  0  0  0  0
   29.5410   -7.5070   58.2440 C   0  0  0  0  0  0  0  0  0  0  0  0
   30.9310   -7.8830   57.9390 C   0  0  0  0  0  0  0  0  0  0  0  0
   31.4860   -9.0430   58.4790 C   0  0  0  0  0  0  0  0  0  0  0  0
   32.7930   -9.3800   58.1340 C   0  0  0  0  0  0  0  0  0  0  0  0
   33.4810   -8.5500   57.2610 C   0  0  0  0  0  0  0  0  0  0  0  0
   32.9540   -7.4250   56.7260 N   0  0  0  0  0  0  0  0  0  0  0  0
   31.6950   -7.1010   57.0830 C   0  0  0  0  0  0  0  0  0  0  0  0
   29.3975   -8.0194   64.1668 H   0  0  0  0  0  0  0  0  0  0  0  0
   28.5193   -7.6012   62.6567 H   0  0  0  0  0  0  0  0  0  0  0  0
   29.7200   -8.9372   62.6567 H   0  0  0  0  0  0  0  0  0  0  0  0
   30.0515   -5.2117   64.7348 H   0  0  0  0  0  0  0  0  0  0  0  0
   30.2400   -2.3960   64.9010 H   0  0  0  0  0  0  0  0  0  0  0  0
   29.1784   -1.9665   62.0160 H   0  0  0  0  0  0  0  0  0  0  0  0
   29.5446   -3.4838   60.0688 H   0  0  0  0  0  0  0  0  0  0  0  0
   31.2607   -6.2505   59.8122 H   0  0  0  0  0  0  0  0  0  0  0  0
   27.4268   -7.4010   60.3642 H   0  0  0  0  0  0  0  0  0  0  0  0
   27.6212   -5.6072   60.3700 H   0  0  0  0  0  0  0  0  0  0  0  0
   25.8722   -6.3574   58.7665 H   0  0  0  0  0  0  0  0  0  0  0  0
   27.2590   -5.5352   57.9489 H   0  0  0  0  0  0  0  0  0  0  0  0
   26.6761   -8.5222   58.0922 H   0  0  0  0  0  0  0  0  0  0  0  0
   26.7048   -7.4609   56.6366 H   0  0  0  0  0  0  0  0  0  0  0  0
   28.8530   -8.4970   56.6540 H   0  0  0  0  0  0  0  0  0  0  0  0
   30.9040   -9.6784   59.1628 H   0  0  0  0  0  0  0  0  0  0  0  0
   33.2683  -10.2832   58.5443 H   0  0  0  0  0  0  0  0  0  0  0  0
   34.5116   -8.8216   56.9889 H   0  0  0  0  0  0  0  0  0  0  0  0
   31.2542   -6.1777   56.6789 H   0  0  0  0  0  0  0  0  0  0  0  0
  1  2  1  0
  2  3  1  0
  3  4  2  0
  4  5  1  0
  5  6  1  0
  5  7  2  0
  7  8  1  0
  8  9  2  0
  9 10  1  0
 10 11  2  0
 11 12  1  0
 12 13  1  0
 13 14  1  0
 14 15  1  0
 15 16  2  0
 16 17  1  0
 17 18  2  0
 18 19  1  0
 19 20  2  0
 20 21  1  0
 21 22  2  0
  9  3  1  0
 16 11  1  0
 22 17  1  0
  1 23  1  0
  1 24  1  0
  1 25  1  0
  4 26  1  0
  6 27  1  0
  7 28  1  0
  8 29  1  0
 10 30  1  0
 12 31  1  0
 12 32  1  0
 13 33  1  0
 13 34  1  0
 14 35  1  0
 14 36  1  0
 15 37  1  0
 18 38  1  0
 19 39  1  0
 20 40  1  0
 22 41  1  0
M  CHG  1  15   1
M  END
>  <meeko>  (4) 
{"is_sidechain": [false], "free_energy": -7.411, "intermolecular_energy": -8.648, "internal_energy": -0.772}

$$$$
2wn9_ligand
     RDKit          3D

 41 43  0  0  0  0  0  0  0  0999 V2000
   29.5720   -8.0290   63.1330 C   0  0  0  0  0  0  0  0  0  0  0  0
   30.3700   -7.0930   62.4150 O   0  0  0  0  0  0  0  0  0  0  0  0
   30.0930   -5.7600   62.6050 C   0  0  0  0  0  0  0  0  0  0  0  0
   30.3750   -5.0460   63.7740 C   0  0  0  0  0  0  0  0  0  0  0  0
   30.0640   -3.6890   63.8450 C   0  0  0  0  0  0  0  0  0  0  0  0
   30.3240   -2.9550   64.9640 O   0  0  0  0  0  0  0  0  0  0  0  0
   29.4760   -3.0280   62.7730 C   0  0  0  0  0  0  0  0  0  0  0  0
   29.1920   -3.7280   61.6030 C   0  0  0  0  0  0  0  0  0  0  0  0
   29.5020   -5.0920   61.5120 C   0  0  0  0  0  0  0  0  0  0  0  0
   29.1970   -5.8080   60.2630 C   0  0  0  0  0  0  0  0  0  0  0  0
   30.0820   -5.9890   59.2640 C   0  0  0  0  0  0  0  0  0  0  0  0
   31.5140   -5.4940   59.2970 C   0  0  0  0  0  0  0  0  0  0  0  0
   32.4510   -6.5280   58.6780 C   0  0  0  0  0  0  0  0  0  0  0  0
   32.0440   -6.8460   57.2500 C   0  0  0  0  0  0  0  0  0  0  0  0
   30.5970   -7.1490   57.1880 N   0  0  0  0  0  0  0  0  0  0  0  0
   29.7050   -6.7860   58.0490 C   0  0  0  0  0  0  0  0  0  0  0  0
   28.3000   -7.1540   57.8150 C   0  0  0  0  0  0  0  0  0  0  0  0
   27.9710   -8.1460   56.8920 C   0  0  0  0  0  0  0  0  0  0  0  0
   26.6290   -8.4890   56.7300 C   0  0  0  0  0  0  0  0  0  0  0  0
   25.6820   -7.8320   57.5010 C   0  0  0  0  0  0  0  0  0  0  0  0
   25.9870   -6.8720   58.4040 N   0  0  0  0  0  0  0  0  0  0  0  0
   27.2860   -6.5380   58.5370 C   0  0  0  0  0  0  0  0  0  0  0  0
   29.7058   -7.8721   64.2135 H   0  0  0  0  0  0  0  0  0  0  0  0
   28.5135   -7.8862   62.8700 H   0  0  0  0  0  0  0  0  0  0  0  0
   29.8804   -9.0516   62.8700 H   0  0  0  0  0  0  0  0  0  0  0  0
   30.8397   -5.5525   64.6328 H   0  0  0  0  0  0  0  0  0  0  0  0
   30.2010   -2.0100   64.7710 H   0  0  0  0  0  0  0  0  0  0  0  0
   29.2361   -1.9571   62.8484 H   0  0  0  0  0  0  0  0  0  0  0  0
   28.7251   -3.2113   60.7515 H   0  0  0  0  0  0  0  0  0  0  0  0
   28.1849   -6.2203   60.1377 H   0  0  0  0  0  0  0  0  0  0  0  0
   31.5856   -4.5546   58.7291 H   0  0  0  0  0  0  0  0  0  0  0  0
   31.8091   -5.3276   60.3435 H   0  0  0  0  0  0  0  0  0  0  0  0
   33.4767   -6.1305   58.6796 H   0  0  0  0  0  0  0  0  0  0  0  0
   32.3947   -7.4519   59.2723 H   0  0  0  0  0  0  0  0  0  0  0  0
   32.2619   -5.9796   56.6083 H   0  0  0  0  0  0  0  0  0  0  0  0
   32.6101   -7.7224   56.9015 H   0  0  0  0  0  0  0  0  0  0  0  0
   30.2890   -7.6680   56.3570 H   0  0  0  0  0  0  0  0  0  0  0  0
   28.7537   -8.6476   56.3039 H   0  0  0  0  0  0  0  0  0  0  0  0
   26.3288   -9.2624   56.0077 H   0  0  0  0  0  0  0  0  0  0  0  0
   24.6247   -8.1065   57.3712 H   0  0  0  0  0  0  0  0  0  0  0  0
   27.5547   -5.7430   59.2482 H   0  0  0  0  0  0  0  0  0  0  0  0
  1  2  1  0
  2  3  1  0
  3  4  2  0
  4  5  1  0
  5  6  1  0
  5  7  2  0
  7  8  1  0
  8  9  2  0
  9 10  1  0
 10 11  2  0
 11 12  1  0
 12 13  1  0
 13 14  1  0
 14 15  1  0
 15 16  2  0
 16 17  1  0
 17 18  2  0
 18 19  1  0
 19 20  2  0
 20 21  1  0
 21 22  2  0
  9  3  1  0
 16 11  1  0
 22 17  1  0
  1 23  1  0
  1 24  1  0
  1 25  1  0
  4 26  1  0
  6 27  1  0
  7 28  1  0
  8 29  1  0
 10 30  1  0
 12 31  1  0
 12 32  1  0
 13 33  1  0
 13 34  1  0
 14 35  1  0
 14 36  1  0
 15 37  1  0
 18 38  1  0
 19 39  1  0
 20 40  1  0
 22 41  1  0
M  CHG  1  15   1
M  END
>  <meeko>  (5) 
{"is_sidechain": [false], "free_energy": -7.407, "intermolecular_energy": -9.659, "internal_energy": 0.244}

$$$$
2wn9_ligand
     RDKit          3D

 41 43  0  0  0  0  0  0  0  0999 V2000
   32.1290   -5.8670   59.0830 C   0  0  0  0  0  0  0  0  0  0  0  0
   31.3830   -6.8890   59.7370 O   0  0  0  0  0  0  0  0  0  0  0  0
   30.0140   -6.7740   59.7170 C   0  0  0  0  0  0  0  0  0  0  0  0
   29.2180   -6.9150   58.5750 C   0  0  0  0  0  0  0  0  0  0  0  0
   27.8340   -6.7930   58.6800 C   0  0  0  0  0  0  0  0  0  0  0  0
   27.0210   -6.9250   57.5940 O   0  0  0  0  0  0  0  0  0  0  0  0
   27.2240   -6.5330   59.9020 C   0  0  0  0  0  0  0  0  0  0  0  0
   28.0060   -6.3930   61.0460 C   0  0  0  0  0  0  0  0  0  0  0  0
   29.4000   -6.5160   60.9600 C   0  0  0  0  0  0  0  0  0  0  0  0
   30.2020   -6.3690   62.1850 C   0  0  0  0  0  0  0  0  0  0  0  0
   30.5560   -5.1820   62.7150 C   0  0  0  0  0  0  0  0  0  0  0  0
   30.1620   -3.8400   62.1330 C   0  0  0  0  0  0  0  0  0  0  0  0
   29.8140   -2.8560   63.2460 C   0  0  0  0  0  0  0  0  0  0  0  0
   30.9780   -2.6850   64.2060 C   0  0  0  0  0  0  0  0  0  0  0  0
   31.4850   -4.0080   64.6330 N   0  0  0  0  0  0  0  0  0  0  0  0
   31.3250   -5.1250   64.0030 C   0  0  0  0  0  0  0  0  0  0  0  0
   31.9240   -6.3470   64.5610 C   0  0  0  0  0  0  0  0  0  0  0  0
   32.7560   -7.1490   63.7810 C   0  0  0  0  0  0  0  0  0  0  0  0
   33.3320   -8.2780   64.3620 C   0  0  0  0  0  0  0  0  0  0  0  0
   33.0560   -8.5480   65.6930 C   0  0  0  0  0  0  0  0  0  0  0  0
   32.2550   -7.7770   66.4640 N   0  0  0  0  0  0  0  0  0  0  0  0
   31.6900   -6.6990   65.8840 C   0  0  0  0  0  0  0  0  0  0  0  0
   32.6018   -5.2193   59.8359 H   0  0  0  0  0  0  0  0  0  0  0  0
   32.9061   -6.3257   58.4540 H   0  0  0  0  0  0  0  0  0  0  0  0
   31.4552   -5.2667   58.4540 H   0  0  0  0  0  0  0  0  0  0  0  0
   29.6824   -7.1211   57.5994 H   0  0  0  0  0  0  0  0  0  0  0  0
   26.6700   -7.8300   57.5560 H   0  0  0  0  0  0  0  0  0  0  0  0
   26.1299   -6.4384   59.9650 H   0  0  0  0  0  0  0  0  0  0  0  0
   27.5304   -6.1861   62.0161 H   0  0  0  0  0  0  0  0  0  0  0  0
   30.5325   -7.2836   62.6991 H   0  0  0  0  0  0  0  0  0  0  0  0
   31.0014   -3.4398   61.5454 H   0  0  0  0  0  0  0  0  0  0  0  0
   29.2799   -3.9763   61.4901 H   0  0  0  0  0  0  0  0  0  0  0  0
   29.5694   -1.8806   62.8001 H   0  0  0  0  0  0  0  0  0  0  0  0
   28.9535   -3.2509   63.8060 H   0  0  0  0  0  0  0  0  0  0  0  0
   31.7850   -2.1311   63.7040 H   0  0  0  0  0  0  0  0  0  0  0  0
   30.6355   -2.1285   65.0909 H   0  0  0  0  0  0  0  0  0  0  0  0
   32.0430   -4.0100   65.4950 H   0  0  0  0  0  0  0  0  0  0  0  0
   32.9539   -6.8962   62.7289 H   0  0  0  0  0  0  0  0  0  0  0  0
   33.9897   -8.9385   63.7780 H   0  0  0  0  0  0  0  0  0  0  0  0
   33.5137   -9.4388   66.1480 H   0  0  0  0  0  0  0  0  0  0  0  0
   31.0148   -6.0714   66.4843 H   0  0  0  0  0  0  0  0  0  0  0  0
  1  2  1  0
  2  3  1  0
  3  4  2  0
  4  5  1  0
  5  6  1  0
  5  7  2  0
  7  8  1  0
  8  9  2  0
  9 10  1  0
 10 11  2  0
 11 12  1  0
 12 13  1  0
 13 14  1  0
 14 15  1  0
 15 16  2  0
 16 17  1  0
 17 18  2  0
 18 19  1  0
 19 20  2  0
 20 21  1  0
 21 22  2  0
  9  3  1  0
 16 11  1  0
 22 17  1  0
  1 23  1  0
  1 24  1  0
  1 25  1  0
  4 26  1  0
  6 27  1  0
  7 28  1  0
  8 29  1  0
 10 30  1  0
 12 31  1  0
 12 32  1  0
 13 33  1  0
 13 34  1  0
 14 35  1  0
 14 36  1  0
 15 37  1  0
 18 38  1  0
 19 39  1  0
 20 40  1  0
 22 41  1  0
M  CHG  1  15   1
M  END
>  <meeko>  (6) 
{"is_sidechain": [false], "free_energy": -7.21, "intermolecular_energy": -8.645, "internal_energy": -0.533}

$$$$
2wn9_ligand
     RDKit          3D

 41 43  0  0  0  0  0  0  0  0999 V2000
   33.3750   -9.5600   60.8020 C   0  0  0  0  0  0  0  0  0  0  0  0
   32.9140   -8.6700   61.8130 O   0  0  0  0  0  0  0  0  0  0  0  0
   31.7440   -9.0010   62.4530 C   0  0  0  0  0  0  0  0  0  0  0  0
   31.5490  -10.1650   63.2050 C   0  0  0  0  0  0  0  0  0  0  0  0
   30.3200  -10.3870   63.8240 C   0  0  0  0  0  0  0  0  0  0  0  0
   30.0880  -11.5060   64.5680 O   0  0  0  0  0  0  0  0  0  0  0  0
   29.2800   -9.4730   63.7100 C   0  0  0  0  0  0  0  0  0  0  0  0
   29.4630   -8.3100   62.9660 C   0  0  0  0  0  0  0  0  0  0  0  0
   30.6930   -8.0670   62.3390 C   0  0  0  0  0  0  0  0  0  0  0  0
   30.8630   -6.8290   61.5630 C   0  0  0  0  0  0  0  0  0  0  0  0
   30.7010   -6.7480   60.2290 C   0  0  0  0  0  0  0  0  0  0  0  0
   30.3060   -7.9160   59.3480 C   0  0  0  0  0  0  0  0  0  0  0  0
   29.3250   -7.4660   58.2700 C   0  0  0  0  0  0  0  0  0  0  0  0
   29.9180   -6.3540   57.4230 C   0  0  0  0  0  0  0  0  0  0  0  0
   30.4740   -5.2920   58.2920 N   0  0  0  0  0  0  0  0  0  0  0  0
   30.8340   -5.4280   59.5250 C   0  0  0  0  0  0  0  0  0  0  0  0
   31.3940   -4.2670   60.2340 C   0  0  0  0  0  0  0  0  0  0  0  0
   32.7720   -4.0570   60.2730 C   0  0  0  0  0  0  0  0  0  0  0  0
   33.2560   -2.9240   60.9240 C   0  0  0  0  0  0  0  0  0  0  0  0
   32.3440   -2.0510   61.4970 C   0  0  0  0  0  0  0  0  0  0  0  0
   31.0040   -2.2380   61.4620 N   0  0  0  0  0  0  0  0  0  0  0  0
   30.5510   -3.3480   60.8460 C   0  0  0  0  0  0  0  0  0  0  0  0
   33.8325  -10.4432   61.2718 H   0  0  0  0  0  0  0  0  0  0  0  0
   32.5269   -9.8753   60.1765 H   0  0  0  0  0  0  0  0  0  0  0  0
   34.1219   -9.0492   60.1765 H   0  0  0  0  0  0  0  0  0  0  0  0
   32.3607  -10.9003   63.3070 H   0  0  0  0  0  0  0  0  0  0  0  0
   30.8300  -12.1260   64.4670 H   0  0  0  0  0  0  0  0  0  0  0  0
   28.3169   -9.6669   64.2048 H   0  0  0  0  0  0  0  0  0  0  0  0
   28.6432   -7.5828   62.8705 H   0  0  0  0  0  0  0  0  0  0  0  0
   31.1395   -5.9132   62.1060 H   0  0  0  0  0  0  0  0  0  0  0  0
   31.2062   -8.3282   58.8687 H   0  0  0  0  0  0  0  0  0  0  0  0
   29.8222   -8.6829   59.9707 H   0  0  0  0  0  0  0  0  0  0  0  0
   29.0849   -8.3221   57.6224 H   0  0  0  0  0  0  0  0  0  0  0  0
   28.4165   -7.0861   58.7601 H   0  0  0  0  0  0  0  0  0  0  0  0
   30.7204   -6.7654   56.7929 H   0  0  0  0  0  0  0  0  0  0  0  0
   29.1277   -5.9237   56.7903 H   0  0  0  0  0  0  0  0  0  0  0  0
   30.6100   -4.3790   57.8420 H   0  0  0  0  0  0  0  0  0  0  0  0
   33.4624   -4.7707   59.7998 H   0  0  0  0  0  0  0  0  0  0  0  0
   34.3366   -2.7268   60.9819 H   0  0  0  0  0  0  0  0  0  0  0  0
   32.7308   -1.1571   62.0082 H   0  0  0  0  0  0  0  0  0  0  0  0
   29.4670   -3.5342   60.8271 H   0  0  0  0  0  0  0  0  0  0  0  0
  1  2  1  0
  2  3  1  0
  3  4  2  0
  4  5  1  0
  5  6  1  0
  5  7  2  0
  7  8  1  0
  8  9  2  0
  9 10  1  0
 10 11  2  0
 11 12  1  0
 12 13  1  0
 13 14  1  0
 14 15  1  0
 15 16  2  0
 16 17  1  0
 17 18  2  0
 18 19  1  0
 19 20  2  0
 20 21  1  0
 21 22  2  0
  9  3  1  0
 16 11  1  0
 22 17  1  0
  1 23  1  0
  1 24  1  0
  1 25  1  0
  4 26  1  0
  6 27  1  0
  7 28  1  0
  8 29  1  0
 10 30  1  0
 12 31  1  0
 12 32  1  0
 13 33  1  0
 13 34  1  0
 14 35  1  0
 14 36  1  0
 15 37  1  0
 18 38  1  0
 19 39  1  0
 20 40  1  0
 22 41  1  0
M  CHG  1  15   1
M  END
>  <meeko>  (7) 
{"is_sidechain": [false], "free_energy": -7.191, "intermolecular_energy": -8.345, "internal_energy": -0.811}

$$$$
2wn9_ligand
     RDKit          3D

 41 43  0  0  0  0  0  0  0  0999 V2000
   30.8940   -9.6370   57.4050 C   0  0  0  0  0  0  0  0  0  0  0  0
   30.7490   -8.2290   57.5660 O   0  0  0  0  0  0  0  0  0  0  0  0
   29.4920   -7.7590   57.8600 C   0  0  0  0  0  0  0  0  0  0  0  0
   28.3600   -7.9590   57.0620 C   0  0  0  0  0  0  0  0  0  0  0  0
   27.1300   -7.4480   57.4720 C   0  0  0  0  0  0  0  0  0  0  0  0
   26.0010   -7.6210   56.7260 O   0  0  0  0  0  0  0  0  0  0  0  0
   27.0030   -6.7410   58.6610 C   0  0  0  0  0  0  0  0  0  0  0  0
   28.1220   -6.5380   59.4650 C   0  0  0  0  0  0  0  0  0  0  0  0
   29.3680   -7.0470   59.0710 C   0  0  0  0  0  0  0  0  0  0  0  0
   30.5340   -6.8240   59.9400 C   0  0  0  0  0  0  0  0  0  0  0  0
   31.2600   -5.6900   59.9480 C   0  0  0  0  0  0  0  0  0  0  0  0
   30.9670   -4.4860   59.0760 C   0  0  0  0  0  0  0  0  0  0  0  0
   31.1900   -3.1940   59.8570 C   0  0  0  0  0  0  0  0  0  0  0  0
   32.6110   -3.1170   60.3870 C   0  0  0  0  0  0  0  0  0  0  0  0
   32.9650   -4.3750   61.0820 N   0  0  0  0  0  0  0  0  0  0  0  0
   32.3990   -5.5240   60.9130 C   0  0  0  0  0  0  0  0  0  0  0  0
   32.8980   -6.6810   61.6720 C   0  0  0  0  0  0  0  0  0  0  0  0
   33.8350   -7.5470   61.1110 C   0  0  0  0  0  0  0  0  0  0  0  0
   34.3080   -8.6090   61.8800 C   0  0  0  0  0  0  0  0  0  0  0  0
   33.8310   -8.7510   63.1740 C   0  0  0  0  0  0  0  0  0  0  0  0
   32.9260   -7.9150   63.7340 N   0  0  0  0  0  0  0  0  0  0  0  0
   32.4630   -6.9040   62.9720 C   0  0  0  0  0  0  0  0  0  0  0  0
   30.9433  -10.1160   58.3940 H   0  0  0  0  0  0  0  0  0  0  0  0
   30.0319  -10.0331   56.8483 H   0  0  0  0  0  0  0  0  0  0  0  0
   31.8187   -9.8491   56.8483 H   0  0  0  0  0  0  0  0  0  0  0  0
   28.4405   -8.5161   56.1169 H   0  0  0  0  0  0  0  0  0  0  0  0
   26.0860   -8.4240   56.1860 H   0  0  0  0  0  0  0  0  0  0  0  0
   26.0237   -6.3435   58.9659 H   0  0  0  0  0  0  0  0  0  0  0  0
   28.0286   -5.9791   60.4078 H   0  0  0  0  0  0  0  0  0  0  0  0
   30.8306   -7.6324   60.6245 H   0  0  0  0  0  0  0  0  0  0  0  0
   31.6349   -4.5007   58.2021 H   0  0  0  0  0  0  0  0  0  0  0  0
   29.9169   -4.5288   58.7512 H   0  0  0  0  0  0  0  0  0  0  0  0
   31.0066   -2.3362   59.1933 H   0  0  0  0  0  0  0  0  0  0  0  0
   30.4962   -3.1761   60.7104 H   0  0  0  0  0  0  0  0  0  0  0  0
   33.3040   -2.9579   59.5477 H   0  0  0  0  0  0  0  0  0  0  0  0
   32.6847   -2.2807   61.0978 H   0  0  0  0  0  0  0  0  0  0  0  0
   33.7580   -4.3130   61.7310 H   0  0  0  0  0  0  0  0  0  0  0  0
   34.1939   -7.3955   60.0823 H   0  0  0  0  0  0  0  0  0  0  0  0
   35.0425   -9.3178   61.4698 H   0  0  0  0  0  0  0  0  0  0  0  0
   34.2087   -9.5888   63.7785 H   0  0  0  0  0  0  0  0  0  0  0  0
   31.7083   -6.2266   63.3981 H   0  0  0  0  0  0  0  0  0  0  0  0
  1  2  1  0
  2  3  1  0
  3  4  2  0
  4  5  1  0
  5  6  1  0
  5  7  2  0
  7  8  1  0
  8  9  2  0
  9 10  1  0
 10 11  2  0
 11 12  1  0
 12 13  1  0
 13 14  1  0
 14 15  1  0
 15 16  2  0
 16 17  1  0
 17 18  2  0
 18 19  1  0
 19 20  2  0
 20 21  1  0
 21 22  2  0
  9  3  1  0
 16 11  1  0
 22 17  1  0
  1 23  1  0
  1 24  1  0
  1 25  1  0
  4 26  1  0
  6 27  1  0
  7 28  1  0
  8 29  1  0
 10 30  1  0
 12 31  1  0
 12 32  1  0
 13 33  1  0
 13 34  1  0
 14 35  1  0
 14 36  1  0
 15 37  1  0
 18 38  1  0
 19 39  1  0
 20 40  1  0
 22 41  1  0
M  CHG  1  15   1
M  END
>  <meeko>  (8) 
{"is_sidechain": [false], "free_energy": -7.137, "intermolecular_energy": -8.301, "internal_energy": -0.789}

$$$$
2wn9_ligand
     RDKit          3D

 41 43  0  0  0  0  0  0  0  0999 V2000
   31.2020   -5.7330   56.7690 C   0  0  0  0  0  0  0  0  0  0  0  0
   30.8770   -5.5190   58.1390 O   0  0  0  0  0  0  0  0  0  0  0  0
   31.3370   -4.3610   58.7180 C   0  0  0  0  0  0  0  0  0  0  0  0
   31.3190   -3.1030   58.1070 C   0  0  0  0  0  0  0  0  0  0  0  0
   31.7990   -1.9930   58.8010 C   0  0  0  0  0  0  0  0  0  0  0  0
   31.7980   -0.7490   58.2450 O   0  0  0  0  0  0  0  0  0  0  0  0
   32.2980   -2.1110   60.0930 C   0  0  0  0  0  0  0  0  0  0  0  0
   32.3190   -3.3590   60.7120 C   0  0  0  0  0  0  0  0  0  0  0  0
   31.8370   -4.4860   60.0310 C   0  0  0  0  0  0  0  0  0  0  0  0
   31.8650   -5.7910   60.7090 C   0  0  0  0  0  0  0  0  0  0  0  0
   30.8880   -6.2380   61.5210 C   0  0  0  0  0  0  0  0  0  0  0  0
   29.6230   -5.4660   61.8340 C   0  0  0  0  0  0  0  0  0  0  0  0
   28.4210   -6.4060   61.8840 C   0  0  0  0  0  0  0  0  0  0  0  0
   28.6290   -7.5020   62.9150 C   0  0  0  0  0  0  0  0  0  0  0  0
   29.9530   -8.1360   62.7250 N   0  0  0  0  0  0  0  0  0  0  0  0
   30.9690   -7.6120   62.1240 C   0  0  0  0  0  0  0  0  0  0  0  0
   32.2240   -8.3770   62.0490 C   0  0  0  0  0  0  0  0  0  0  0  0
   33.1820   -8.2670   63.0560 C   0  0  0  0  0  0  0  0  0  0  0  0
   34.3390   -9.0390   62.9630 C   0  0  0  0  0  0  0  0  0  0  0  0
   34.4810   -9.8890   61.8760 C   0  0  0  0  0  0  0  0  0  0  0  0
   33.5570  -10.0100   60.8950 N   0  0  0  0  0  0  0  0  0  0  0  0
   32.4520   -9.2440   60.9880 C   0  0  0  0  0  0  0  0  0  0  0  0
   32.1189   -6.3367   56.6997 H   0  0  0  0  0  0  0  0  0  0  0  0
   30.3751   -6.2639   56.2746 H   0  0  0  0  0  0  0  0  0  0  0  0
   31.3630   -4.7636   56.2746 H   0  0  0  0  0  0  0  0  0  0  0  0
   30.9284   -2.9900   57.0849 H   0  0  0  0  0  0  0  0  0  0  0  0
   32.2770   -0.1310   58.8230 H   0  0  0  0  0  0  0  0  0  0  0  0
   32.6742   -1.2240   60.6237 H   0  0  0  0  0  0  0  0  0  0  0  0
   32.7133   -3.4601   61.7339 H   0  0  0  0  0  0  0  0  0  0  0  0
   32.7366   -6.4411   60.5428 H   0  0  0  0  0  0  0  0  0  0  0  0
   29.7343   -4.9687   62.8088 H   0  0  0  0  0  0  0  0  0  0  0  0
   29.4576   -4.7190   61.0437 H   0  0  0  0  0  0  0  0  0  0  0  0
   27.5234   -5.8282   62.1494 H   0  0  0  0  0  0  0  0  0  0  0  0
   28.3004   -6.8733   60.8955 H   0  0  0  0  0  0  0  0  0  0  0  0
   28.5756   -7.0670   63.9239 H   0  0  0  0  0  0  0  0  0  0  0  0
   27.8448   -8.2637   62.7932 H   0  0  0  0  0  0  0  0  0  0  0  0
   30.0630   -9.0650   63.1470 H   0  0  0  0  0  0  0  0  0  0  0  0
   33.0281   -7.5856   63.9057 H   0  0  0  0  0  0  0  0  0  0  0  0
   35.1213   -8.9756   63.7337 H   0  0  0  0  0  0  0  0  0  0  0  0
   35.3946  -10.4979   61.8078 H   0  0  0  0  0  0  0  0  0  0  0  0
   31.6983   -9.3082   60.1894 H   0  0  0  0  0  0  0  0  0  0  0  0
  1  2  1  0
  2  3  1  0
  3  4  2  0
  4  5  1  0
  5  6  1  0
  5  7  2  0
  7  8  1  0
  8  9  2  0
  9 10  1  0
 10 11  2  0
 11 12  1  0
 12 13  1  0
 13 14  1  0
 14 15  1  0
 15 16  2  0
 16 17  1  0
 17 18  2  0
 18 19  1  0
 19 20  2  0
 20 21  1  0
 21 22  2  0
  9  3  1  0
 16 11  1  0
 22 17  1  0
  1 23  1  0
  1 24  1  0
  1 25  1  0
  4 26  1  0
  6 27  1  0
  7 28  1  0
  8 29  1  0
 10 30  1  0
 12 31  1  0
 12 32  1  0
 13 33  1  0
 13 34  1  0
 14 35  1  0
 14 36  1  0
 15 37  1  0
 18 38  1  0
 19 39  1  0
 20 40  1  0
 22 41  1  0
M  CHG  1  15   1
M  END
>  <meeko>  (9) 
{"is_sidechain": [false], "free_energy": -7.033, "intermolecular_energy": -8.196, "internal_energy": -0.769}

$$$$
