4de2_ligand
     RDKit          3D

 43 45  0  0  0  0  0  0  0  0999 V2000
  -14.3650   58.6300   10.9770 C   0  0  0  0  0  0  0  0  0  0  0  0
  -13.4820   59.0240   12.1300 N   0  0  0  0  0  0  0  0  0  0  0  0
  -14.2230   59.8730   13.1220 C   0  0  0  0  0  0  0  0  0  0  0  0
  -12.1890   59.6790   11.6950 C   0  0  0  0  0  0  0  0  0  0  0  0
  -11.1830   58.6980   11.1570 C   0  0  0  0  0  0  0  0  0  0  0  0
  -10.8590   58.6700    9.7920 C   0  0  0  0  0  0  0  0  0  0  0  0
   -9.8810   57.7940    9.3140 C   0  0  0  0  0  0  0  0  0  0  0  0
   -9.2090   56.9380   10.1890 C   0  0  0  0  0  0  0  0  0  0  0  0
   -9.5300   56.9450   11.5500 C   0  0  0  0  0  0  0  0  0  0  0  0
   -8.8160   56.0980   12.5460 C   0  0  0  0  0  0  0  0  0  0  0  0
   -9.2650   56.0850   13.6860 O   0  0  0  0  0  0  0  0  0  0  0  0
   -7.7360   55.3900   12.0580 N   0  0  0  0  0  0  0  0  0  0  0  0
   -6.8680   54.5470   12.7870 C   0  0  0  0  0  0  0  0  0  0  0  0
   -7.2530   53.8130   13.9090 C   0  0  0  0  0  0  0  0  0  0  0  0
   -6.3290   53.0060   14.5770 C   0  0  0  0  0  0  0  0  0  0  0  0
   -5.0090   52.9280   14.1310 C   0  0  0  0  0  0  0  0  0  0  0  0
   -4.5990   53.6600   13.0110 C   0  0  0  0  0  0  0  0  0  0  0  0
   -3.2240   53.5930   12.5350 C   0  0  0  0  0  0  0  0  0  0  0  0
   -2.1390   53.7910   13.3610 N   0  0  0  0  0  0  0  0  0  0  0  0
   -1.0560   53.6580   12.6110 N   0  0  0  0  0  0  0  0  0  0  0  0
   -1.5230   53.3910   11.3870 N   0  0  0  0  0  0  0  0  0  0  0  0
   -2.8590   53.3360   11.2670 N   0  0  0  0  0  0  0  0  0  0  0  0
   -5.5390   54.4670   12.3480 C   0  0  0  0  0  0  0  0  0  0  0  0
  -10.5140   57.8240   12.0260 C   0  0  0  0  0  0  0  0  0  0  0  0
  -15.3058   58.2102   11.3625 H   0  0  0  0  0  0  0  0  0  0  0  0
  -14.5833   59.5161   10.3628 H   0  0  0  0  0  0  0  0  0  0  0  0
  -13.8513   57.8757   10.3628 H   0  0  0  0  0  0  0  0  0  0  0  0
  -13.2200   58.1520   12.6100 H   0  0  0  0  0  0  0  0  0  0  0  0
  -13.9534   59.5641   14.1427 H   0  0  0  0  0  0  0  0  0  0  0  0
  -13.9526   60.9291   12.9751 H   0  0  0  0  0  0  0  0  0  0  0  0
  -15.3059   59.7479   12.9751 H   0  0  0  0  0  0  0  0  0  0  0  0
  -12.4160   60.4143   10.9090 H   0  0  0  0  0  0  0  0  0  0  0  0
  -11.7447   60.1507   12.5839 H   0  0  0  0  0  0  0  0  0  0  0  0
  -11.3785   59.3423    9.0934 H   0  0  0  0  0  0  0  0  0  0  0  0
   -9.6388   57.7786    8.2411 H   0  0  0  0  0  0  0  0  0  0  0  0
   -8.4300   56.2607    9.8091 H   0  0  0  0  0  0  0  0  0  0  0  0
   -7.5700   55.4180   11.0600 H   0  0  0  0  0  0  0  0  0  0  0  0
   -8.2905   53.8700   14.2699 H   0  0  0  0  0  0  0  0  0  0  0  0
   -6.6435   52.4290   15.4591 H   0  0  0  0  0  0  0  0  0  0  0  0
   -4.2881   52.2888   14.6618 H   0  0  0  0  0  0  0  0  0  0  0  0
   -0.9010   53.2400   10.5980 H   0  0  0  0  0  0  0  0  0  0  0  0
   -5.2260   55.0472   11.4674 H   0  0  0  0  0  0  0  0  0  0  0  0
  -10.7647   57.8278   13.0970 H   0  0  0  0  0  0  0  0  0  0  0  0
  1  2  1  0
  2  3  1  0
  2  4  1  0
  4  5  1  0
  5  6  2  0
  6  7  1  0
  7  8  2  0
  8  9  1  0
  9 10  1  0
 10 11  2  0
 10 12  1  0
 12 13  1  0
 13 14  2  0
 14 15  1  0
 15 16  2  0
 16 17  1  0
 17 18  1  0
 18 19  1  0
 19 20  2  0
 20 21  1  0
 21 22  1  0
 17 23  2  0
  9 24  2  0
 24  5  1  0
 23 13  1  0
 22 18  2  0
  1 25  1  0
  1 26  1  0
  1 27  1  0
  2 28  1  0
  3 29  1  0
  3 30  1  0
  3 31  1  0
  4 32  1  0
  4 33  1  0
  6 34  1  0
  7 35  1  0
  8 36  1  0
 12 37  1  0
 14 38  1  0
 15 39  1  0
 16 40  1  0
 21 41  1  0
 23 42  1  0
 24 43  1  0
M  CHG  1   2   1
M  END
>  <meeko>  (1) 
{"is_sidechain": [false], "free_energy": -8.34, "intermolecular_energy": -10.777, "internal_energy": -0.316}

$$$$
4de2_ligand
     RDKit          3D

 43 45  0  0  0  0  0  0  0  0999 V2000
  -14.5690   60.6680   12.0750 C   0  0  0  0  0  0  0  0  0  0  0  0
  -13.9330   59.4510   11.4580 N   0  0  0  0  0  0  0  0  0  0  0  0
  -14.9690   58.4910   10.9490 C   0  0  0  0  0  0  0  0  0  0  0  0
  -12.9430   58.7660   12.3740 C   0  0  0  0  0  0  0  0  0  0  0  0
  -11.6750   58.3570   11.6740 C   0  0  0  0  0  0  0  0  0  0  0  0
  -11.2200   59.0460   10.5400 C   0  0  0  0  0  0  0  0  0  0  0  0
  -10.0120   58.6930    9.9340 C   0  0  0  0  0  0  0  0  0  0  0  0
   -9.2390   57.6520   10.4510 C   0  0  0  0  0  0  0  0  0  0  0  0
   -9.6860   56.9450   11.5720 C   0  0  0  0  0  0  0  0  0  0  0  0
   -8.8870   55.8600   12.2060 C   0  0  0  0  0  0  0  0  0  0  0  0
   -8.8840   55.8180   13.4320 O   0  0  0  0  0  0  0  0  0  0  0  0
   -8.2590   54.9960   11.3330 N   0  0  0  0  0  0  0  0  0  0  0  0
   -7.4160   53.9120   11.6630 C   0  0  0  0  0  0  0  0  0  0  0  0
   -7.8500   52.5900   11.7700 C   0  0  0  0  0  0  0  0  0  0  0  0
   -6.9500   51.5760   12.1070 C   0  0  0  0  0  0  0  0  0  0  0  0
   -5.6080   51.8750   12.3440 C   0  0  0  0  0  0  0  0  0  0  0  0
   -5.1510   53.1940   12.2470 C   0  0  0  0  0  0  0  0  0  0  0  0
   -3.7540   53.5220   12.4940 C   0  0  0  0  0  0  0  0  0  0  0  0
   -2.8030   53.5310   11.4960 N   0  0  0  0  0  0  0  0  0  0  0  0
   -1.6540   53.8690   12.0630 N   0  0  0  0  0  0  0  0  0  0  0  0
   -1.9540   54.0450   13.3550 N   0  0  0  0  0  0  0  0  0  0  0  0
   -3.2380   53.8460   13.6920 N   0  0  0  0  0  0  0  0  0  0  0  0
   -6.0660   54.2050   11.9060 C   0  0  0  0  0  0  0  0  0  0  0  0
  -10.9000   57.3020   12.1770 C   0  0  0  0  0  0  0  0  0  0  0  0
  -14.5270   60.5877   13.1713 H   0  0  0  0  0  0  0  0  0  0  0  0
  -14.0263   61.5688   11.7523 H   0  0  0  0  0  0  0  0  0  0  0  0
  -15.6183   60.7368   11.7523 H   0  0  0  0  0  0  0  0  0  0  0  0
  -13.3970   59.7820   10.6440 H   0  0  0  0  0  0  0  0  0  0  0  0
  -15.4799   58.0176   11.8004 H   0  0  0  0  0  0  0  0  0  0  0  0
  -15.7035   59.0348   10.3369 H   0  0  0  0  0  0  0  0  0  0  0  0
  -14.4826   57.7172   10.3369 H   0  0  0  0  0  0  0  0  0  0  0  0
  -12.6850   59.4572   13.1899 H   0  0  0  0  0  0  0  0  0  0  0  0
  -13.4220   57.8486   12.7468 H   0  0  0  0  0  0  0  0  0  0  0  0
  -11.8188   59.8702   10.1250 H   0  0  0  0  0  0  0  0  0  0  0  0
   -9.6675   59.2390    9.0434 H   0  0  0  0  0  0  0  0  0  0  0  0
   -8.2813   57.3885    9.9783 H   0  0  0  0  0  0  0  0  0  0  0  0
   -8.4620   55.0980   10.3460 H   0  0  0  0  0  0  0  0  0  0  0  0
   -8.9068   52.3449   11.5880 H   0  0  0  0  0  0  0  0  0  0  0  0
   -7.3012   50.5366   12.1859 H   0  0  0  0  0  0  0  0  0  0  0  0
   -4.9061   51.0703   12.6083 H   0  0  0  0  0  0  0  0  0  0  0  0
   -1.2490   54.3130   14.0360 H   0  0  0  0  0  0  0  0  0  0  0  0
   -5.7169   55.2452   11.8283 H   0  0  0  0  0  0  0  0  0  0  0  0
  -11.2495   56.7460   13.0594 H   0  0  0  0  0  0  0  0  0  0  0  0
  1  2  1  0
  2  3  1  0
  2  4  1  0
  4  5  1  0
  5  6  2  0
  6  7  1  0
  7  8  2  0
  8  9  1  0
  9 10  1  0
 10 11  2  0
 10 12  1  0
 12 13  1  0
 13 14  2  0
 14 15  1  0
 15 16  2  0
 16 17  1  0
 17 18  1  0
 18 19  1  0
 19 20  2  0
 20 21  1  0
 21 22  1  0
 17 23  2  0
  9 24  2  0
 24  5  1  0
 23 13  1  0
 22 18  2  0
  1 25  1  0
  1 26  1  0
  1 27  1  0
  2 28  1  0
  3 29  1  0
  3 30  1  0
  3 31  1  0
  4 32  1  0
  4 33  1  0
  6 34  1  0
  7 35  1  0
  8 36  1  0
 12 37  1  0
 14 38  1  0
 15 39  1  0
 16 40  1  0
 21 41  1  0
 23 42  1  0
 24 43  1  0
M  CHG  1   2   1
M  END
>  <meeko>  (2) 
{"is_sidechain": [false], "free_energy": -8.168, "intermolecular_energy": -10.241, "internal_energy": -0.629}

$$$$
4de2_ligand
     RDKit          3D

 43 45  0  0  0  0  0  0  0  0999 V2000
   -8.8880   57.0620    5.3600 C   0  0  0  0  0  0  0  0  0  0  0  0
   -8.6560   56.6940    6.8020 N   0  0  0  0  0  0  0  0  0  0  0  0
   -7.5010   55.7460    6.9450 C   0  0  0  0  0  0  0  0  0  0  0  0
   -9.8960   56.1660    7.4900 C   0  0  0  0  0  0  0  0  0  0  0  0
  -10.0750   56.7090    8.8810 C   0  0  0  0  0  0  0  0  0  0  0  0
  -10.9990   57.7310    9.1460 C   0  0  0  0  0  0  0  0  0  0  0  0
  -11.1970   58.1860   10.4520 C   0  0  0  0  0  0  0  0  0  0  0  0
  -10.4820   57.6270   11.5120 C   0  0  0  0  0  0  0  0  0  0  0  0
   -9.5470   56.6180   11.2630 C   0  0  0  0  0  0  0  0  0  0  0  0
   -8.7890   55.9410   12.3530 C   0  0  0  0  0  0  0  0  0  0  0  0
   -9.1790   56.1300   13.5000 O   0  0  0  0  0  0  0  0  0  0  0  0
   -7.7410   55.1440   11.9400 N   0  0  0  0  0  0  0  0  0  0  0  0
   -6.8430   54.4230   12.7580 C   0  0  0  0  0  0  0  0  0  0  0  0
   -7.2110   53.7720   13.9360 C   0  0  0  0  0  0  0  0  0  0  0  0
   -6.2570   53.0850   14.6920 C   0  0  0  0  0  0  0  0  0  0  0  0
   -4.9250   53.0460   14.2780 C   0  0  0  0  0  0  0  0  0  0  0  0
   -4.5330   53.6960   13.1020 C   0  0  0  0  0  0  0  0  0  0  0  0
   -3.1460   53.6660   12.6580 C   0  0  0  0  0  0  0  0  0  0  0  0
   -2.7810   53.8480   11.3410 N   0  0  0  0  0  0  0  0  0  0  0  0
   -1.4600   53.7620   11.2930 N   0  0  0  0  0  0  0  0  0  0  0  0
   -1.0900   53.5340   12.5590 N   0  0  0  0  0  0  0  0  0  0  0  0
   -2.0850   53.4620   13.4570 N   0  0  0  0  0  0  0  0  0  0  0  0
   -5.5020   54.3820   12.3510 C   0  0  0  0  0  0  0  0  0  0  0  0
   -9.3490   56.1640    9.9510 C   0  0  0  0  0  0  0  0  0  0  0  0
   -9.4740   57.9915    5.3085 H   0  0  0  0  0  0  0  0  0  0  0  0
   -7.9200   57.2106    4.8592 H   0  0  0  0  0  0  0  0  0  0  0  0
   -9.4395   56.2526    4.8592 H   0  0  0  0  0  0  0  0  0  0  0  0
   -8.4000   57.5630    7.2880 H   0  0  0  0  0  0  0  0  0  0  0  0
   -7.2952   55.5771    8.0123 H   0  0  0  0  0  0  0  0  0  0  0  0
   -7.7505   54.7888    6.4637 H   0  0  0  0  0  0  0  0  0  0  0  0
   -6.6109   56.1773    6.4637 H   0  0  0  0  0  0  0  0  0  0  0  0
  -10.7748   56.4442    6.8897 H   0  0  0  0  0  0  0  0  0  0  0  0
   -9.7844   55.0750    7.5755 H   0  0  0  0  0  0  0  0  0  0  0  0
  -11.5716   58.1772    8.3196 H   0  0  0  0  0  0  0  0  0  0  0  0
  -11.9216   58.9905   10.6461 H   0  0  0  0  0  0  0  0  0  0  0  0
  -10.6535   57.9791   12.5399 H   0  0  0  0  0  0  0  0  0  0  0  0
   -7.6270   54.9990   10.9450 H   0  0  0  0  0  0  0  0  0  0  0  0
   -8.2582   53.7996   14.2717 H   0  0  0  0  0  0  0  0  0  0  0  0
   -6.5577   52.5726   15.6178 H   0  0  0  0  0  0  0  0  0  0  0  0
   -4.1803   52.5025   14.8780 H   0  0  0  0  0  0  0  0  0  0  0  0
   -0.1140   53.4220   12.8190 H   0  0  0  0  0  0  0  0  0  0  0  0
   -5.2029   54.8968   11.4260 H   0  0  0  0  0  0  0  0  0  0  0  0
   -8.6137   55.3690    9.7578 H   0  0  0  0  0  0  0  0  0  0  0  0
  1  2  1  0
  2  3  1  0
  2  4  1  0
  4  5  1  0
  5  6  2  0
  6  7  1  0
  7  8  2  0
  8  9  1  0
  9 10  1  0
 10 11  2  0
 10 12  1  0
 12 13  1  0
 13 14  2  0
 14 15  1  0
 15 16  2  0
 16 17  1  0
 17 18  1  0
 18 19  1  0
 19 20  2  0
 20 21  1  0
 21 22  1  0
 17 23  2  0
  9 24  2  0
 24  5  1  0
 23 13  1  0
 22 18  2  0
  1 25  1  0
  1 26  1  0
  1 27  1  0
  2 28  1  0
  3 29  1  0
  3 30  1  0
  3 31  1  0
  4 32  1  0
  4 33  1  0
  6 34  1  0
  7 35  1  0
  8 36  1  0
 12 37  1  0
 14 38  1  0
 15 39  1  0
 16 40  1  0
 21 41  1  0
 23 42  1  0
 24 43  1  0
M  CHG  1   2   1
M  END
>  <meeko>  (3) 
{"is_sidechain": [false], "free_energy": -7.921, "intermolecular_energy": -10.179, "internal_energy": -0.372}

$$$$
4de2_ligand
     RDKit          3D

 43 45  0  0  0  0  0  0  0  0999 V2000
  -13.2860   55.1440    8.5640 C   0  0  0  0  0  0  0  0  0  0  0  0
  -12.7610   56.4500    8.0300 N   0  0  0  0  0  0  0  0  0  0  0  0
  -13.2140   56.6850    6.6190 C   0  0  0  0  0  0  0  0  0  0  0  0
  -11.2600   56.5880    8.1630 C   0  0  0  0  0  0  0  0  0  0  0  0
  -10.8140   56.8410    9.5780 C   0  0  0  0  0  0  0  0  0  0  0  0
  -11.2750   57.9550   10.2950 C   0  0  0  0  0  0  0  0  0  0  0  0
  -10.8990   58.1460   11.6260 C   0  0  0  0  0  0  0  0  0  0  0  0
  -10.0620   57.2290   12.2640 C   0  0  0  0  0  0  0  0  0  0  0  0
   -9.5810   56.1210   11.5590 C   0  0  0  0  0  0  0  0  0  0  0  0
   -8.7290   55.0760   12.1920 C   0  0  0  0  0  0  0  0  0  0  0  0
   -8.8300   54.9400   13.4070 O   0  0  0  0  0  0  0  0  0  0  0  0
   -7.9360   54.3510   11.3260 N   0  0  0  0  0  0  0  0  0  0  0  0
   -7.0140   53.3350   11.6610 C   0  0  0  0  0  0  0  0  0  0  0  0
   -7.3030   51.9720   11.6140 C   0  0  0  0  0  0  0  0  0  0  0  0
   -6.3340   51.0300   11.9690 C   0  0  0  0  0  0  0  0  0  0  0  0
   -5.0650   51.4450   12.3750 C   0  0  0  0  0  0  0  0  0  0  0  0
   -4.7540   52.8080   12.4340 C   0  0  0  0  0  0  0  0  0  0  0  0
   -3.4350   53.2570   12.8600 C   0  0  0  0  0  0  0  0  0  0  0  0
   -2.3780   52.3920   13.0450 N   0  0  0  0  0  0  0  0  0  0  0  0
   -1.3430   53.1260   13.4270 N   0  0  0  0  0  0  0  0  0  0  0  0
   -1.8110   54.3790   13.4570 N   0  0  0  0  0  0  0  0  0  0  0  0
   -3.1000   54.5330   13.1180 N   0  0  0  0  0  0  0  0  0  0  0  0
   -5.7380   53.7440   12.0750 C   0  0  0  0  0  0  0  0  0  0  0  0
   -9.9600   55.9330   10.2220 C   0  0  0  0  0  0  0  0  0  0  0  0
  -13.2767   55.1672    9.6637 H   0  0  0  0  0  0  0  0  0  0  0  0
  -14.3158   54.9902    8.2092 H   0  0  0  0  0  0  0  0  0  0  0  0
  -12.6491   54.3203    8.2092 H   0  0  0  0  0  0  0  0  0  0  0  0
  -13.1750   57.1900    8.6120 H   0  0  0  0  0  0  0  0  0  0  0  0
  -14.1904   57.1915    6.6269 H   0  0  0  0  0  0  0  0  0  0  0  0
  -12.4783   57.3151    6.0978 H   0  0  0  0  0  0  0  0  0  0  0  0
  -13.3054   55.7206    6.0978 H   0  0  0  0  0  0  0  0  0  0  0  0
  -10.7901   55.6587    7.8086 H   0  0  0  0  0  0  0  0  0  0  0  0
  -10.9559   57.4580    7.5625 H   0  0  0  0  0  0  0  0  0  0  0  0
  -11.9377   58.6835    9.8050 H   0  0  0  0  0  0  0  0  0  0  0  0
  -11.2650   59.0256   12.1759 H   0  0  0  0  0  0  0  0  0  0  0  0
   -9.7818   57.3773   13.3173 H   0  0  0  0  0  0  0  0  0  0  0  0
   -8.0610   54.5090   10.3340 H   0  0  0  0  0  0  0  0  0  0  0  0
   -8.3007   51.6358   11.2953 H   0  0  0  0  0  0  0  0  0  0  0  0
   -6.5724   49.9569   11.9283 H   0  0  0  0  0  0  0  0  0  0  0  0
   -4.3061   50.6976   12.6498 H   0  0  0  0  0  0  0  0  0  0  0  0
   -1.2220   55.1630   13.7230 H   0  0  0  0  0  0  0  0  0  0  0  0
   -5.5034   54.8178   12.1194 H   0  0  0  0  0  0  0  0  0  0  0  0
   -9.5819   55.0601    9.6696 H   0  0  0  0  0  0  0  0  0  0  0  0
  1  2  1  0
  2  3  1  0
  2  4  1  0
  4  5  1  0
  5  6  2  0
  6  7  1  0
  7  8  2  0
  8  9  1  0
  9 10  1  0
 10 11  2  0
 10 12  1  0
 12 13  1  0
 13 14  2  0
 14 15  1  0
 15 16  2  0
 16 17  1  0
 17 18  1  0
 18 19  1  0
 19 20  2  0
 20 21  1  0
 21 22  1  0
 17 23  2  0
  9 24  2  0
 24  5  1  0
 23 13  1  0
 22 18  2  0
  1 25  1  0
  1 26  1  0
  1 27  1  0
  2 28  1  0
  3 29  1  0
  3 30  1  0
  3 31  1  0
  4 32  1  0
  4 33  1  0
  6 34  1  0
  7 35  1  0
  8 36  1  0
 12 37  1  0
 14 38  1  0
 15 39  1  0
 16 40  1  0
 21 41  1  0
 23 42  1  0
 24 43  1  0
M  CHG  1   2   1
M  END
>  <meeko>  (4) 
{"is_sidechain": [false], "free_energy": -7.21, "intermolecular_energy": -8.938, "internal_energy": -0.696}

$$$$
4de2_ligand
     RDKit          3D

 43 45  0  0  0  0  0  0  0  0999 V2000
   -2.2870   52.0880    9.7620 C   0  0  0  0  0  0  0  0  0  0  0  0
   -3.0360   52.7060   10.9120 N   0  0  0  0  0  0  0  0  0  0  0  0
   -2.1130   53.4600   11.8240 C   0  0  0  0  0  0  0  0  0  0  0  0
   -3.8820   51.7110   11.6760 C   0  0  0  0  0  0  0  0  0  0  0  0
   -4.9410   52.3640   12.5230 C   0  0  0  0  0  0  0  0  0  0  0  0
   -4.8020   52.4500   13.9160 C   0  0  0  0  0  0  0  0  0  0  0  0
   -5.7630   53.1100   14.6850 C   0  0  0  0  0  0  0  0  0  0  0  0
   -6.8740   53.6980   14.0770 C   0  0  0  0  0  0  0  0  0  0  0  0
   -7.0350   53.6090   12.6910 C   0  0  0  0  0  0  0  0  0  0  0  0
   -8.1670   54.2580   11.9720 C   0  0  0  0  0  0  0  0  0  0  0  0
   -9.2310   53.6500   11.9510 O   0  0  0  0  0  0  0  0  0  0  0  0
   -7.8940   55.4990   11.4330 N   0  0  0  0  0  0  0  0  0  0  0  0
   -8.7670   56.3110   10.6770 C   0  0  0  0  0  0  0  0  0  0  0  0
   -8.7470   56.3940    9.2840 C   0  0  0  0  0  0  0  0  0  0  0  0
   -9.6430   57.2290    8.6120 C   0  0  0  0  0  0  0  0  0  0  0  0
  -10.5680   57.9910    9.3270 C   0  0  0  0  0  0  0  0  0  0  0  0
  -10.6040   57.9270   10.7250 C   0  0  0  0  0  0  0  0  0  0  0  0
  -11.5610   58.7180   11.4860 C   0  0  0  0  0  0  0  0  0  0  0  0
  -12.6220   58.1560   12.1620 N   0  0  0  0  0  0  0  0  0  0  0  0
  -13.2800   59.1510   12.7390 N   0  0  0  0  0  0  0  0  0  0  0  0
  -12.6020   60.2500   12.3920 N   0  0  0  0  0  0  0  0  0  0  0  0
  -11.5250   60.0560   11.6160 N   0  0  0  0  0  0  0  0  0  0  0  0
   -9.6970   57.0830   11.3890 C   0  0  0  0  0  0  0  0  0  0  0  0
   -6.0680   52.9440   11.9220 C   0  0  0  0  0  0  0  0  0  0  0  0
   -1.4933   51.4332   10.1509 H   0  0  0  0  0  0  0  0  0  0  0  0
   -2.9817   51.4968    9.1473 H   0  0  0  0  0  0  0  0  0  0  0  0
   -1.8385   52.8824    9.1473 H   0  0  0  0  0  0  0  0  0  0  0  0
   -3.6870   53.3900   10.5030 H   0  0  0  0  0  0  0  0  0  0  0  0
   -2.3756   53.2455   12.8704 H   0  0  0  0  0  0  0  0  0  0  0  0
   -1.0752   53.1480   11.6350 H   0  0  0  0  0  0  0  0  0  0  0  0
   -2.2116   54.5391   11.6350 H   0  0  0  0  0  0  0  0  0  0  0  0
   -4.3740   51.0426   10.9541 H   0  0  0  0  0  0  0  0  0  0  0  0
   -3.2115   51.1628   12.3541 H   0  0  0  0  0  0  0  0  0  0  0  0
   -3.9294   51.9941   14.4066 H   0  0  0  0  0  0  0  0  0  0  0  0
   -5.6439   53.1670   15.7770 H   0  0  0  0  0  0  0  0  0  0  0  0
   -7.6199   54.2294   14.6863 H   0  0  0  0  0  0  0  0  0  0  0  0
   -6.9960   55.9140   11.6450 H   0  0  0  0  0  0  0  0  0  0  0  0
   -8.0210   55.7981    8.7115 H   0  0  0  0  0  0  0  0  0  0  0  0
   -9.6193   57.2861    7.5137 H   0  0  0  0  0  0  0  0  0  0  0  0
  -11.2715   58.6444    8.7901 H   0  0  0  0  0  0  0  0  0  0  0  0
  -12.8900   61.1750   12.7000 H   0  0  0  0  0  0  0  0  0  0  0  0
   -9.7169   57.0268   12.4874 H   0  0  0  0  0  0  0  0  0  0  0  0
   -6.1956   52.8765   10.8315 H   0  0  0  0  0  0  0  0  0  0  0  0
  1  2  1  0
  2  3  1  0
  2  4  1  0
  4  5  1  0
  5  6  2  0
  6  7  1  0
  7  8  2  0
  8  9  1  0
  9 10  1  0
 10 11  2  0
 10 12  1  0
 12 13  1  0
 13 14  2  0
 14 15  1  0
 15 16  2  0
 16 17  1  0
 17 18  1  0
 18 19  1  0
 19 20  2  0
 20 21  1  0
 21 22  1  0
 17 23  2  0
  9 24  2  0
 24  5  1  0
 23 13  1  0
 22 18  2  0
  1 25  1  0
  1 26  1  0
  1 27  1  0
  2 28  1  0
  3 29  1  0
  3 30  1  0
  3 31  1  0
  4 32  1  0
  4 33  1  0
  6 34  1  0
  7 35  1  0
  8 36  1  0
 12 37  1  0
 14 38  1  0
 15 39  1  0
 16 40  1  0
 21 41  1  0
 23 42  1  0
 24 43  1  0
M  CHG  1   2   1
M  END
>  <meeko>  (5) 
{"is_sidechain": [false], "free_energy": -7.159, "intermolecular_energy": -8.982, "internal_energy": -0.585}

$$$$
4de2_ligand
     RDKit          3D

 43 45  0  0  0  0  0  0  0  0999 V2000
   -4.2350   51.4500    9.2980 C   0  0  0  0  0  0  0  0  0  0  0  0
   -3.6750   50.6360   10.4330 N   0  0  0  0  0  0  0  0  0  0  0  0
   -2.8310   49.5010    9.9280 C   0  0  0  0  0  0  0  0  0  0  0  0
   -4.7330   50.1530   11.4010 C   0  0  0  0  0  0  0  0  0  0  0  0
   -5.1950   51.2230   12.3520 C   0  0  0  0  0  0  0  0  0  0  0  0
   -4.3790   51.6550   13.4080 C   0  0  0  0  0  0  0  0  0  0  0  0
   -4.7960   52.6890   14.2490 C   0  0  0  0  0  0  0  0  0  0  0  0
   -6.0300   53.3110   14.0470 C   0  0  0  0  0  0  0  0  0  0  0  0
   -6.8610   52.8820   13.0090 C   0  0  0  0  0  0  0  0  0  0  0  0
   -8.1650   53.5360   12.7040 C   0  0  0  0  0  0  0  0  0  0  0  0
   -8.8890   53.8000   13.6580 O   0  0  0  0  0  0  0  0  0  0  0  0
   -8.4000   53.8000   11.3700 N   0  0  0  0  0  0  0  0  0  0  0  0
   -9.5600   54.3740   10.8050 C   0  0  0  0  0  0  0  0  0  0  0  0
  -10.5900   53.6380   10.2190 C   0  0  0  0  0  0  0  0  0  0  0  0
  -11.7020   54.2860    9.6770 C   0  0  0  0  0  0  0  0  0  0  0  0
  -11.7940   55.6780    9.7130 C   0  0  0  0  0  0  0  0  0  0  0  0
  -10.7710   56.4380   10.2930 C   0  0  0  0  0  0  0  0  0  0  0  0
  -10.8510   57.8910   10.3360 C   0  0  0  0  0  0  0  0  0  0  0  0
  -11.8250   58.5630   11.0430 N   0  0  0  0  0  0  0  0  0  0  0  0
  -11.6030   59.8570   10.8670 N   0  0  0  0  0  0  0  0  0  0  0  0
  -10.5250   59.9110   10.0760 N   0  0  0  0  0  0  0  0  0  0  0  0
  -10.0080   58.7290    9.7070 N   0  0  0  0  0  0  0  0  0  0  0  0
   -9.6580   55.7730   10.8350 C   0  0  0  0  0  0  0  0  0  0  0  0
   -6.4400   51.8420   12.1670 C   0  0  0  0  0  0  0  0  0  0  0  0
   -4.8148   52.2928    9.7024 H   0  0  0  0  0  0  0  0  0  0  0  0
   -3.4098   51.8352    8.6810 H   0  0  0  0  0  0  0  0  0  0  0  0
   -4.8897   50.8171    8.6810 H   0  0  0  0  0  0  0  0  0  0  0  0
   -3.0570   51.2620   10.9650 H   0  0  0  0  0  0  0  0  0  0  0  0
   -2.4169   48.9441   10.7814 H   0  0  0  0  0  0  0  0  0  0  0  0
   -3.4497   48.8279    9.3164 H   0  0  0  0  0  0  0  0  0  0  0  0
   -2.0083   49.8997    9.3164 H   0  0  0  0  0  0  0  0  0  0  0  0
   -5.6001   49.7992   10.8240 H   0  0  0  0  0  0  0  0  0  0  0  0
   -4.2841   49.3498   12.0038 H   0  0  0  0  0  0  0  0  0  0  0  0
   -3.4031   51.1756   13.5750 H   0  0  0  0  0  0  0  0  0  0  0  0
   -4.1483   53.0157   15.0759 H   0  0  0  0  0  0  0  0  0  0  0  0
   -6.3465   54.1356   14.7027 H   0  0  0  0  0  0  0  0  0  0  0  0
   -7.6450   53.6270   10.7190 H   0  0  0  0  0  0  0  0  0  0  0  0
  -10.5259   52.5404   10.1836 H   0  0  0  0  0  0  0  0  0  0  0  0
  -12.5097   53.6960    9.2192 H   0  0  0  0  0  0  0  0  0  0  0  0
  -12.6737   56.1802    9.2840 H   0  0  0  0  0  0  0  0  0  0  0  0
  -10.1280   60.7960    9.7740 H   0  0  0  0  0  0  0  0  0  0  0  0
   -8.8481   56.3608   11.2916 H   0  0  0  0  0  0  0  0  0  0  0  0
   -7.0958   51.5071   11.3498 H   0  0  0  0  0  0  0  0  0  0  0  0
  1  2  1  0
  2  3  1  0
  2  4  1  0
  4  5  1  0
  5  6  2  0
  6  7  1  0
  7  8  2  0
  8  9  1  0
  9 10  1  0
 10 11  2  0
 10 12  1  0
 12 13  1  0
 13 14  2  0
 14 15  1  0
 15 16  2  0
 16 17  1  0
 17 18  1  0
 18 19  1  0
 19 20  2  0
 20 21  1  0
 21 22  1  0
 17 23  2  0
  9 24  2  0
 24  5  1  0
 23 13  1  0
 22 18  2  0
  1 25  1  0
  1 26  1  0
  1 27  1  0
  2 28  1  0
  3 29  1  0
  3 30  1  0
  3 31  1  0
  4 32  1  0
  4 33  1  0
  6 34  1  0
  7 35  1  0
  8 36  1  0
 12 37  1  0
 14 38  1  0
 15 39  1  0
 16 40  1  0
 21 41  1  0
 23 42  1  0
 24 43  1  0
M  CHG  1   2   1
M  END
>  <meeko>  (6) 
{"is_sidechain": [false], "free_energy": -7.054, "intermolecular_energy": -8.8, "internal_energy": -0.632}

$$$$
4de2_ligand
     RDKit          3D

 43 45  0  0  0  0  0  0  0  0999 V2000
   -8.5500   57.0260    5.1220 C   0  0  0  0  0  0  0  0  0  0  0  0
   -8.2130   56.0320    6.2010 N   0  0  0  0  0  0  0  0  0  0  0  0
   -6.7650   55.6390    6.1490 C   0  0  0  0  0  0  0  0  0  0  0  0
   -9.1180   54.8200    6.2010 C   0  0  0  0  0  0  0  0  0  0  0  0
   -9.8360   54.6190    7.5080 C   0  0  0  0  0  0  0  0  0  0  0  0
  -11.1960   54.2770    7.5410 C   0  0  0  0  0  0  0  0  0  0  0  0
  -11.8370   54.0370    8.7590 C   0  0  0  0  0  0  0  0  0  0  0  0
  -11.1310   54.1300    9.9600 C   0  0  0  0  0  0  0  0  0  0  0  0
   -9.7790   54.4840    9.9450 C   0  0  0  0  0  0  0  0  0  0  0  0
   -8.9540   54.5500   11.1830 C   0  0  0  0  0  0  0  0  0  0  0  0
   -9.2490   55.4140   12.0010 O   0  0  0  0  0  0  0  0  0  0  0  0
   -7.9580   53.5990   11.2850 N   0  0  0  0  0  0  0  0  0  0  0  0
   -7.0160   53.4580   12.3270 C   0  0  0  0  0  0  0  0  0  0  0  0
   -7.3550   53.2500   13.6640 C   0  0  0  0  0  0  0  0  0  0  0  0
   -6.3590   53.1270   14.6360 C   0  0  0  0  0  0  0  0  0  0  0  0
   -5.0130   53.2140   14.2790 C   0  0  0  0  0  0  0  0  0  0  0  0
   -4.6490   53.4270   12.9440 C   0  0  0  0  0  0  0  0  0  0  0  0
   -3.2480   53.5230   12.5570 C   0  0  0  0  0  0  0  0  0  0  0  0
   -2.2310   53.6870   13.4730 N   0  0  0  0  0  0  0  0  0  0  0  0
   -1.0990   53.7350   12.7860 N   0  0  0  0  0  0  0  0  0  0  0  0
   -1.4740   53.6010   11.5090 N   0  0  0  0  0  0  0  0  0  0  0  0
   -2.7910   53.4660   11.2940 N   0  0  0  0  0  0  0  0  0  0  0  0
   -5.6600   53.5480   11.9770 C   0  0  0  0  0  0  0  0  0  0  0  0
   -9.1390   54.7260    8.7200 C   0  0  0  0  0  0  0  0  0  0  0  0
   -8.8708   57.9722    5.5823 H   0  0  0  0  0  0  0  0  0  0  0  0
   -7.6622   57.2045    4.4976 H   0  0  0  0  0  0  0  0  0  0  0  0
   -9.3633   56.6277    4.4976 H   0  0  0  0  0  0  0  0  0  0  0  0
   -8.3670   56.5110    7.0980 H   0  0  0  0  0  0  0  0  0  0  0  0
   -6.3767   55.5336    7.1728 H   0  0  0  0  0  0  0  0  0  0  0  0
   -6.6639   54.6809    5.6181 H   0  0  0  0  0  0  0  0  0  0  0  0
   -6.1934   56.4145    5.6181 H   0  0  0  0  0  0  0  0  0  0  0  0
   -9.8674   54.9428    5.4052 H   0  0  0  0  0  0  0  0  0  0  0  0
   -8.4832   53.9368    6.0365 H   0  0  0  0  0  0  0  0  0  0  0  0
  -11.7619   54.1972    6.6011 H   0  0  0  0  0  0  0  0  0  0  0  0
  -12.9048   53.7731    8.7719 H   0  0  0  0  0  0  0  0  0  0  0  0
  -11.6372   53.9253   10.9149 H   0  0  0  0  0  0  0  0  0  0  0  0
   -7.9250   52.8790   10.5740 H   0  0  0  0  0  0  0  0  0  0  0  0
   -8.4137   53.1824   13.9550 H   0  0  0  0  0  0  0  0  0  0  0  0
   -6.6372   52.9609   15.6872 H   0  0  0  0  0  0  0  0  0  0  0  0
   -4.2345   53.1148   15.0498 H   0  0  0  0  0  0  0  0  0  0  0  0
   -0.7970   53.6040   10.7510 H   0  0  0  0  0  0  0  0  0  0  0  0
   -5.3839   53.7165   10.9256 H   0  0  0  0  0  0  0  0  0  0  0  0
   -8.0747   55.0038    8.7103 H   0  0  0  0  0  0  0  0  0  0  0  0
  1  2  1  0
  2  3  1  0
  2  4  1  0
  4  5  1  0
  5  6  2  0
  6  7  1  0
  7  8  2  0
  8  9  1  0
  9 10  1  0
 10 11  2  0
 10 12  1  0
 12 13  1  0
 13 14  2  0
 14 15  1  0
 15 16  2  0
 16 17  1  0
 17 18  1  0
 18 19  1  0
 19 20  2  0
 20 21  1  0
 21 22  1  0
 17 23  2  0
  9 24  2  0
 24  5  1  0
 23 13  1  0
 22 18  2  0
  1 25  1  0
  1 26  1  0
  1 27  1  0
  2 28  1  0
  3 29  1  0
  3 30  1  0
  3 31  1  0
  4 32  1  0
  4 33  1  0
  6 34  1  0
  7 35  1  0
  8 36  1  0
 12 37  1  0
 14 38  1  0
 15 39  1  0
 16 40  1  0
 21 41  1  0
 23 42  1  0
 24 43  1  0
M  CHG  1   2   1
M  END
>  <meeko>  (7) 
{"is_sidechain": [false], "free_energy": -6.766, "intermolecular_energy": -8.525, "internal_energy": -0.534}

$$$$
4de2_ligand
     RDKit          3D

 43 45  0  0  0  0  0  0  0  0999 V2000
   -1.6630   51.4310   12.7530 C   0  0  0  0  0  0  0  0  0  0  0  0
   -2.8240   52.3740   12.5860 N   0  0  0  0  0  0  0  0  0  0  0  0
   -2.4250   53.7910   12.8830 C   0  0  0  0  0  0  0  0  0  0  0  0
   -4.0460   51.9630   13.3780 C   0  0  0  0  0  0  0  0  0  0  0  0
   -5.2220   51.6100   12.5090 C   0  0  0  0  0  0  0  0  0  0  0  0
   -5.2330   50.4310   11.7490 C   0  0  0  0  0  0  0  0  0  0  0  0
   -6.3540   50.0870   10.9910 C   0  0  0  0  0  0  0  0  0  0  0  0
   -7.4830   50.9090   10.9840 C   0  0  0  0  0  0  0  0  0  0  0  0
   -7.4830   52.0940   11.7240 C   0  0  0  0  0  0  0  0  0  0  0  0
   -8.6710   52.9900   11.8030 C   0  0  0  0  0  0  0  0  0  0  0  0
   -9.0060   53.3670   12.9210 O   0  0  0  0  0  0  0  0  0  0  0  0
   -9.2460   53.3220   10.5940 N   0  0  0  0  0  0  0  0  0  0  0  0
  -10.3940   54.1170   10.3850 C   0  0  0  0  0  0  0  0  0  0  0  0
  -11.6760   53.6030   10.1900 C   0  0  0  0  0  0  0  0  0  0  0  0
  -12.7590   54.4610    9.9830 C   0  0  0  0  0  0  0  0  0  0  0  0
  -12.5690   55.8440    9.9670 C   0  0  0  0  0  0  0  0  0  0  0  0
  -11.2900   56.3820   10.1550 C   0  0  0  0  0  0  0  0  0  0  0  0
  -11.0750   57.8230   10.1380 C   0  0  0  0  0  0  0  0  0  0  0  0
  -11.9670   58.7160   10.6920 N   0  0  0  0  0  0  0  0  0  0  0  0
  -11.4660   59.9270   10.5010 N   0  0  0  0  0  0  0  0  0  0  0  0
  -10.3150   59.7180    9.8530 N   0  0  0  0  0  0  0  0  0  0  0  0
  -10.0100   58.4370    9.5940 N   0  0  0  0  0  0  0  0  0  0  0  0
  -10.2110   55.5080   10.3630 C   0  0  0  0  0  0  0  0  0  0  0  0
   -6.3540   52.4380   12.4830 C   0  0  0  0  0  0  0  0  0  0  0  0
   -1.4695   51.2738   13.8244 H   0  0  0  0  0  0  0  0  0  0  0  0
   -1.9017   50.4678   12.2783 H   0  0  0  0  0  0  0  0  0  0  0  0
   -0.7692   51.8621   12.2783 H   0  0  0  0  0  0  0  0  0  0  0  0
   -3.0930   52.3340   11.5940 H   0  0  0  0  0  0  0  0  0  0  0  0
   -2.3832   53.9395   13.9721 H   0  0  0  0  0  0  0  0  0  0  0  0
   -1.4353   53.9923   12.4472 H   0  0  0  0  0  0  0  0  0  0  0  0
   -3.1643   54.4791   12.4472 H   0  0  0  0  0  0  0  0  0  0  0  0
   -3.7877   51.0864   13.9903 H   0  0  0  0  0  0  0  0  0  0  0  0
   -4.3414   52.8243   13.9952 H   0  0  0  0  0  0  0  0  0  0  0  0
   -4.3519   49.7725   11.7502 H   0  0  0  0  0  0  0  0  0  0  0  0
   -6.3478   49.1623   10.3953 H   0  0  0  0  0  0  0  0  0  0  0  0
   -8.3692   50.6244   10.3978 H   0  0  0  0  0  0  0  0  0  0  0  0
   -8.7720   53.0220    9.7520 H   0  0  0  0  0  0  0  0  0  0  0  0
  -11.8354   52.5146   10.1993 H   0  0  0  0  0  0  0  0  0  0  0  0
  -13.7660   54.0449    9.8319 H   0  0  0  0  0  0  0  0  0  0  0  0
  -13.4270   56.5133    9.8062 H   0  0  0  0  0  0  0  0  0  0  0  0
   -9.7110   60.4870    9.5740 H   0  0  0  0  0  0  0  0  0  0  0  0
   -9.2027   55.9218   10.5116 H   0  0  0  0  0  0  0  0  0  0  0  0
   -6.3567   53.3707   13.0662 H   0  0  0  0  0  0  0  0  0  0  0  0
  1  2  1  0
  2  3  1  0
  2  4  1  0
  4  5  1  0
  5  6  2  0
  6  7  1  0
  7  8  2  0
  8  9  1  0
  9 10  1  0
 10 11  2  0
 10 12  1  0
 12 13  1  0
 13 14  2  0
 14 15  1  0
 15 16  2  0
 16 17  1  0
 17 18  1  0
 18 19  1  0
 19 20  2  0
 20 21  1  0
 21 22  1  0
 17 23  2  0
  9 24  2  0
 24  5  1  0
 23 13  1  0
 22 18  2  0
  1 25  1  0
  1 26  1  0
  1 27  1  0
  2 28  1  0
  3 29  1  0
  3 30  1  0
  3 31  1  0
  4 32  1  0
  4 33  1  0
  6 34  1  0
  7 35  1  0
  8 36  1  0
 12 37  1  0
 14 38  1  0
 15 39  1  0
 16 40  1  0
 21 41  1  0
 23 42  1  0
 24 43  1  0
M  CHG  1   2   1
M  END
>  <meeko>  (8) 
{"is_sidechain": [false], "free_energy": -6.742, "intermolecular_energy": -8.419, "internal_energy": -0.609}

$$$$
4de2_ligand
     RDKit          3D

 43 45  0  0  0  0  0  0  0  0999 V2000
   -2.1160   51.4420   12.7550 C   0  0  0  0  0  0  0  0  0  0  0  0
   -3.1530   52.5260   12.6310 N   0  0  0  0  0  0  0  0  0  0  0  0
   -2.5510   53.8850   12.8430 C   0  0  0  0  0  0  0  0  0  0  0  0
   -4.3550   52.3070   13.5230 C   0  0  0  0  0  0  0  0  0  0  0  0
   -5.6580   52.3180   12.7710 C   0  0  0  0  0  0  0  0  0  0  0  0
   -6.1270   51.1680   12.1180 C   0  0  0  0  0  0  0  0  0  0  0  0
   -7.3650   51.1760   11.4730 C   0  0  0  0  0  0  0  0  0  0  0  0
   -8.1560   52.3260   11.4720 C   0  0  0  0  0  0  0  0  0  0  0  0
   -7.6970   53.4840   12.1060 C   0  0  0  0  0  0  0  0  0  0  0  0
   -8.5110   54.7290   12.1900 C   0  0  0  0  0  0  0  0  0  0  0  0
   -8.7300   55.1740   13.3110 O   0  0  0  0  0  0  0  0  0  0  0  0
   -8.9060   55.2630   10.9800 N   0  0  0  0  0  0  0  0  0  0  0  0
   -9.7080   56.4070   10.7730 C   0  0  0  0  0  0  0  0  0  0  0  0
   -9.2340   57.6100   10.2520 C   0  0  0  0  0  0  0  0  0  0  0  0
  -10.0950   58.6980   10.0850 C   0  0  0  0  0  0  0  0  0  0  0  0
  -11.4400   58.5920   10.4400 C   0  0  0  0  0  0  0  0  0  0  0  0
  -11.9380   57.3950   10.9700 C   0  0  0  0  0  0  0  0  0  0  0  0
  -13.3380   57.2710   11.3490 C   0  0  0  0  0  0  0  0  0  0  0  0
  -13.7570   56.4980   12.4110 N   0  0  0  0  0  0  0  0  0  0  0  0
  -15.0760   56.6110   12.4720 N   0  0  0  0  0  0  0  0  0  0  0  0
  -15.3910   57.4300   11.4630 N   0  0  0  0  0  0  0  0  0  0  0  0
  -14.3630   57.8770   10.7250 N   0  0  0  0  0  0  0  0  0  0  0  0
  -11.0610   56.3100   11.1320 C   0  0  0  0  0  0  0  0  0  0  0  0
   -6.4520   53.4740   12.7520 C   0  0  0  0  0  0  0  0  0  0  0  0
   -1.9225   51.2397   13.8188 H   0  0  0  0  0  0  0  0  0  0  0  0
   -2.4829   50.5262   12.2684 H   0  0  0  0  0  0  0  0  0  0  0  0
   -1.1849   51.7679   12.2684 H   0  0  0  0  0  0  0  0  0  0  0  0
   -3.4980   52.4920   11.6630 H   0  0  0  0  0  0  0  0  0  0  0  0
   -2.4633   54.0830   13.9215 H   0  0  0  0  0  0  0  0  0  0  0  0
   -1.5531   53.9201   12.3814 H   0  0  0  0  0  0  0  0  0  0  0  0
   -3.1955   54.6476   12.3814 H   0  0  0  0  0  0  0  0  0  0  0  0
   -4.2474   51.3329   14.0226 H   0  0  0  0  0  0  0  0  0  0  0  0
   -4.3849   53.1381   14.2430 H   0  0  0  0  0  0  0  0  0  0  0  0
   -5.5150   50.2540   12.1143 H   0  0  0  0  0  0  0  0  0  0  0  0
   -7.7199   50.2690   10.9616 H   0  0  0  0  0  0  0  0  0  0  0  0
   -9.1369   52.3210   10.9742 H   0  0  0  0  0  0  0  0  0  0  0  0
   -8.5380   54.8380   10.1380 H   0  0  0  0  0  0  0  0  0  0  0  0
   -8.1748   57.7035    9.9704 H   0  0  0  0  0  0  0  0  0  0  0  0
   -9.7105   59.6422    9.6718 H   0  0  0  0  0  0  0  0  0  0  0  0
  -12.1121   59.4520   10.3031 H   0  0  0  0  0  0  0  0  0  0  0  0
  -16.3530   57.6950   11.2700 H   0  0  0  0  0  0  0  0  0  0  0  0
  -11.4422   55.3659   11.5484 H   0  0  0  0  0  0  0  0  0  0  0  0
   -6.0931   54.3862   13.2510 H   0  0  0  0  0  0  0  0  0  0  0  0
  1  2  1  0
  2  3  1  0
  2  4  1  0
  4  5  1  0
  5  6  2  0
  6  7  1  0
  7  8  2  0
  8  9  1  0
  9 10  1  0
 10 11  2  0
 10 12  1  0
 12 13  1  0
 13 14  2  0
 14 15  1  0
 15 16  2  0
 16 17  1  0
 17 18  1  0
 18 19  1  0
 19 20  2  0
 20 21  1  0
 21 22  1  0
 17 23  2  0
  9 24  2  0
 24  5  1  0
 23 13  1  0
 22 18  2  0
  1 25  1  0
  1 26  1  0
  1 27  1  0
  2 28  1  0
  3 29  1  0
  3 30  1  0
  3 31  1  0
  4 32  1  0
  4 33  1  0
  6 34  1  0
  7 35  1  0
  8 36  1  0
 12 37  1  0
 14 38  1  0
 15 39  1  0
 16 40  1  0
 21 41  1  0
 23 42  1  0
 24 43  1  0
M  CHG  1   2   1
M  END
>  <meeko>  (9) 
{"is_sidechain": [false], "free_energy": -6.733, "intermolecular_energy": -8.433, "internal_energy": -0.583}

$$$$
