2j78_ligand
     RDKit          3D

 25 25  0  0  0  0  0  0  0  0999 V2000
   -1.8700   10.4320   16.2080 O   0  0  0  0  0  0  0  0  0  0  0  0
   -1.2460    9.7310   15.1360 C   0  0  0  0  0  0  0  0  0  0  0  0
   -1.0510    8.2400   15.4660 C   0  0  1  0  0  0  0  0  0  0  0  0
   -0.8850    8.0510   16.9030 N   0  0  0  0  0  0  0  0  0  0  0  0
   -0.9150    6.7920   17.4730 C   0  0  0  0  0  0  0  0  0  0  0  0
   -0.2240    6.4960   18.5370 N   0  0  0  0  0  0  0  0  0  0  0  0
    0.5530    7.5900   18.9550 O   0  0  0  0  0  0  0  0  0  0  0  0
   -1.8460    5.7220   16.8580 C   0  0  2  0  0  0  0  0  0  0  0  0
   -1.4680    4.3740   17.1170 O   0  0  0  0  0  0  0  0  0  0  0  0
   -1.9290    5.9100   15.3380 C   0  0  1  0  0  0  0  0  0  0  0  0
   -2.9740    5.0630   14.8160 O   0  0  0  0  0  0  0  0  0  0  0  0
   -2.2140    7.3680   14.9620 C   0  0  2  0  0  0  0  0  0  0  0  0
   -2.3530    7.4430   13.5340 O   0  0  0  0  0  0  0  0  0  0  0  0
   -1.5310   10.0530   17.0390 H   0  0  0  0  0  0  0  0  0  0  0  0
   -1.8765    9.8178   14.2388 H   0  0  0  0  0  0  0  0  0  0  0  0
   -0.2547   10.1766   14.9666 H   0  0  0  0  0  0  0  0  0  0  0  0
   -0.1398    7.9174   14.9409 H   0  0  0  0  0  0  0  0  0  0  0  0
   -0.1580    8.6080   17.3460 H   0  0  0  0  0  0  0  0  0  0  0  0
    0.9520    7.2430   19.7750 H   0  0  0  0  0  0  0  0  0  0  0  0
   -2.8176    5.8797   17.3491 H   0  0  0  0  0  0  0  0  0  0  0  0
   -2.2590    3.8420   16.9100 H   0  0  0  0  0  0  0  0  0  0  0  0
   -0.9570    5.6354   14.9022 H   0  0  0  0  0  0  0  0  0  0  0  0
   -3.2110    5.4650   13.9550 H   0  0  0  0  0  0  0  0  0  0  0  0
   -3.1427    7.7333   15.4246 H   0  0  0  0  0  0  0  0  0  0  0  0
   -2.3630    8.3950   13.3170 H   0  0  0  0  0  0  0  0  0  0  0  0
  1  2  1  0
  2  3  1  0
  3  4  1  0
  4  5  1  0
  5  6  2  0
  6  7  1  0
  5  8  1  0
  8  9  1  0
  8 10  1  0
 10 11  1  0
 10 12  1  0
 12 13  1  0
 12  3  1  0
  1 14  1  0
  2 15  1  0
  2 16  1  0
  3 17  1  6
  4 18  1  0
  7 19  1  0
  8 20  1  1
  9 21  1  0
 10 22  1  6
 11 23  1  0
 12 24  1  1
 13 25  1  0
M  END
>  <meeko>  (1) 
{"is_sidechain": [false], "free_energy": -6.515, "intermolecular_energy": -7.848, "internal_energy": -0.049}

$$$$
2j78_ligand
     RDKit          3D

 25 25  0  0  0  0  0  0  0  0999 V2000
    0.0650    6.6580   19.5640 O   0  0  0  0  0  0  0  0  0  0  0  0
   -0.4490    5.5720   18.7980 C   0  0  0  0  0  0  0  0  0  0  0  0
   -0.7210    5.9810   17.3390 C   0  0  1  0  0  0  0  0  0  0  0  0
   -1.7750    6.9870   17.2770 N   0  0  0  0  0  0  0  0  0  0  0  0
   -2.0490    7.6740   16.1090 C   0  0  0  0  0  0  0  0  0  0  0  0
   -3.2480    8.0880   15.8120 N   0  0  0  0  0  0  0  0  0  0  0  0
   -4.1750    7.6960   16.7940 O   0  0  0  0  0  0  0  0  0  0  0  0
   -0.8790    8.0120   15.1560 C   0  0  2  0  0  0  0  0  0  0  0  0
   -1.2500    8.2240   13.7980 O   0  0  0  0  0  0  0  0  0  0  0  0
    0.1690    6.8920   15.1940 C   0  0  1  0  0  0  0  0  0  0  0  0
    1.3500    7.3280   14.4900 O   0  0  0  0  0  0  0  0  0  0  0  0
    0.5400    6.5110   16.6320 C   0  0  2  0  0  0  0  0  0  0  0  0
    1.5750    5.5180   16.5790 O   0  0  0  0  0  0  0  0  0  0  0  0
    0.9600    6.8500   19.2310 H   0  0  0  0  0  0  0  0  0  0  0  0
    0.2835    4.7514   18.8073 H   0  0  0  0  0  0  0  0  0  0  0  0
   -1.4016    5.2561   19.2483 H   0  0  0  0  0  0  0  0  0  0  0  0
   -1.0440    5.0716   16.8111 H   0  0  0  0  0  0  0  0  0  0  0  0
   -2.6480    6.7490   17.7440 H   0  0  0  0  0  0  0  0  0  0  0  0
   -3.6290    7.7340   17.6030 H   0  0  0  0  0  0  0  0  0  0  0  0
   -0.4801    8.9666   15.5295 H   0  0  0  0  0  0  0  0  0  0  0  0
   -2.1390    7.8290   13.7120 H   0  0  0  0  0  0  0  0  0  0  0  0
   -0.2601    6.0017   14.7111 H   0  0  0  0  0  0  0  0  0  0  0  0
    1.6890    8.0790   15.0190 H   0  0  0  0  0  0  0  0  0  0  0  0
    0.9135    7.3766   17.1988 H   0  0  0  0  0  0  0  0  0  0  0  0
    2.2380    5.8560   15.9470 H   0  0  0  0  0  0  0  0  0  0  0  0
  1  2  1  0
  2  3  1  0
  3  4  1  0
  4  5  1  0
  5  6  2  0
  6  7  1  0
  5  8  1  0
  8  9  1  0
  8 10  1  0
 10 11  1  0
 10 12  1  0
 12 13  1  0
 12  3  1  0
  1 14  1  0
  2 15  1  0
  2 16  1  0
  3 17  1  6
  4 18  1  0
  7 19  1  0
  8 20  1  1
  9 21  1  0
 10 22  1  6
 11 23  1  0
 12 24  1  1
 13 25  1  0
M  END
>  <meeko>  (2) 
{"is_sidechain": [false], "free_energy": -6.338, "intermolecular_energy": -7.617, "internal_energy": -0.067}

$$$$
2j78_ligand
     RDKit          3D

 25 25  0  0  0  0  0  0  0  0999 V2000
    1.0700    9.0540   13.6920 O   0  0  0  0  0  0  0  0  0  0  0  0
   -0.2590    8.5780   13.8860 C   0  0  0  0  0  0  0  0  0  0  0  0
   -0.4150    7.8560   15.2360 C   0  0  1  0  0  0  0  0  0  0  0  0
   -1.7980    7.4370   15.4380 N   0  0  0  0  0  0  0  0  0  0  0  0
   -2.1510    6.5810   16.4630 C   0  0  0  0  0  0  0  0  0  0  0  0
   -3.3130    6.6420   17.0490 N   0  0  0  0  0  0  0  0  0  0  0  0
   -4.0840    7.6970   16.5320 O   0  0  0  0  0  0  0  0  0  0  0  0
   -1.1530    5.4780   16.8850 C   0  0  2  0  0  0  0  0  0  0  0  0
   -1.3130    4.9980   18.2150 O   0  0  0  0  0  0  0  0  0  0  0  0
    0.2870    5.9870   16.7320 C   0  0  1  0  0  0  0  0  0  0  0  0
    1.1970    4.8810   16.9000 O   0  0  0  0  0  0  0  0  0  0  0  0
    0.5160    6.6360   15.3620 C   0  0  2  0  0  0  0  0  0  0  0  0
    1.8990    7.0130   15.2710 O   0  0  0  0  0  0  0  0  0  0  0  0
    1.6750    8.3820   14.0550 H   0  0  0  0  0  0  0  0  0  0  0  0
   -0.9512    9.4324   13.8569 H   0  0  0  0  0  0  0  0  0  0  0  0
   -0.4854    7.8589   13.0850 H   0  0  0  0  0  0  0  0  0  0  0  0
   -0.1286    8.5788   16.0141 H   0  0  0  0  0  0  0  0  0  0  0  0
   -2.5030    8.1660   15.3440 H   0  0  0  0  0  0  0  0  0  0  0  0
   -3.4520    8.4400   16.5760 H   0  0  0  0  0  0  0  0  0  0  0  0
   -1.3682    4.6333   16.2141 H   0  0  0  0  0  0  0  0  0  0  0  0
   -0.9650    5.7090   18.7870 H   0  0  0  0  0  0  0  0  0  0  0  0
    0.4660    6.7532   17.5007 H   0  0  0  0  0  0  0  0  0  0  0  0
    1.1480    4.3900   16.0550 H   0  0  0  0  0  0  0  0  0  0  0  0
    0.2865    5.9423   14.5398 H   0  0  0  0  0  0  0  0  0  0  0  0
    2.3660    6.4760   15.9400 H   0  0  0  0  0  0  0  0  0  0  0  0
  1  2  1  0
  2  3  1  0
  3  4  1  0
  4  5  1  0
  5  6  2  0
  6  7  1  0
  5  8  1  0
  8  9  1  0
  8 10  1  0
 10 11  1  0
 10 12  1  0
 12 13  1  0
 12  3  1  0
  1 14  1  0
  2 15  1  0
  2 16  1  0
  3 17  1  1
  4 18  1  0
  7 19  1  0
  8 20  1  6
  9 21  1  0
 10 22  1  1
 11 23  1  0
 12 24  1  6
 13 25  1  0
M  END
>  <meeko>  (3) 
{"is_sidechain": [false], "free_energy": -6.324, "intermolecular_energy": -7.453, "internal_energy": -0.215}

$$$$
2j78_ligand
     RDKit          3D

 25 25  0  0  0  0  0  0  0  0999 V2000
    1.5790   13.1710   11.0620 O   0  0  0  0  0  0  0  0  0  0  0  0
    1.9890   12.6050    9.8210 C   0  0  0  0  0  0  0  0  0  0  0  0
    1.0670   11.4520    9.3870 C   0  0  1  0  0  0  0  0  0  0  0  0
    0.2790   10.9720   10.5170 N   0  0  0  0  0  0  0  0  0  0  0  0
   -0.7760   10.0970   10.3410 C   0  0  0  0  0  0  0  0  0  0  0  0
   -1.1030    9.2150   11.2430 N   0  0  0  0  0  0  0  0  0  0  0  0
   -0.2230    9.2610   12.3370 O   0  0  0  0  0  0  0  0  0  0  0  0
   -1.6300   10.2130    9.0570 C   0  0  2  0  0  0  0  0  0  0  0  0
   -2.3190    9.0250    8.6830 O   0  0  0  0  0  0  0  0  0  0  0  0
   -0.7470   10.6430    7.8780 C   0  0  1  0  0  0  0  0  0  0  0  0
   -1.5910   10.9730    6.7560 O   0  0  0  0  0  0  0  0  0  0  0  0
    0.1270   11.8510    8.2360 C   0  0  2  0  0  0  0  0  0  0  0  0
    0.8600   12.2360    7.0620 O   0  0  0  0  0  0  0  0  0  0  0  0
    0.6920   13.5520   10.9280 H   0  0  0  0  0  0  0  0  0  0  0  0
    1.9682   13.3877    9.0484 H   0  0  0  0  0  0  0  0  0  0  0  0
    3.0046   12.2018    9.9478 H   0  0  0  0  0  0  0  0  0  0  0  0
    1.7210   10.6467    9.0213 H   0  0  0  0  0  0  0  0  0  0  0  0
    0.8050   10.7090   11.3490 H   0  0  0  0  0  0  0  0  0  0  0  0
    0.5310    9.7540   11.9600 H   0  0  0  0  0  0  0  0  0  0  0  0
   -2.3976   10.9637    9.2965 H   0  0  0  0  0  0  0  0  0  0  0  0
   -1.6190    8.3640    8.5200 H   0  0  0  0  0  0  0  0  0  0  0  0
   -0.0773    9.8081    7.6242 H   0  0  0  0  0  0  0  0  0  0  0  0
   -1.3910   10.2860    6.0870 H   0  0  0  0  0  0  0  0  0  0  0  0
   -0.4786   12.7070    8.5685 H   0  0  0  0  0  0  0  0  0  0  0  0
    1.4000   11.4600    6.8180 H   0  0  0  0  0  0  0  0  0  0  0  0
  1  2  1  0
  2  3  1  0
  3  4  1  0
  4  5  1  0
  5  6  2  0
  6  7  1  0
  5  8  1  0
  8  9  1  0
  8 10  1  0
 10 11  1  0
 10 12  1  0
 12 13  1  0
 12  3  1  0
  1 14  1  0
  2 15  1  0
  2 16  1  0
  3 17  1  6
  4 18  1  0
  7 19  1  0
  8 20  1  1
  9 21  1  0
 10 22  1  6
 11 23  1  0
 12 24  1  1
 13 25  1  0
M  END
>  <meeko>  (4) 
{"is_sidechain": [false], "free_energy": -6.253, "intermolecular_energy": -7.534, "internal_energy": -0.048}

$$$$
2j78_ligand
     RDKit          3D

 25 25  0  0  0  0  0  0  0  0999 V2000
   -1.9630   10.4400   16.2730 O   0  0  0  0  0  0  0  0  0  0  0  0
   -1.4020    9.6770   15.2080 C   0  0  0  0  0  0  0  0  0  0  0  0
   -1.4310    8.1690   15.5100 C   0  0  1  0  0  0  0  0  0  0  0  0
   -0.1310    7.7170   15.9950 N   0  0  0  0  0  0  0  0  0  0  0  0
    0.0390    6.4590   16.5410 C   0  0  0  0  0  0  0  0  0  0  0  0
    1.1580    5.8010   16.4330 N   0  0  0  0  0  0  0  0  0  0  0  0
    2.0930    6.5180   15.6680 O   0  0  0  0  0  0  0  0  0  0  0  0
   -1.1210    5.8430   17.3570 C   0  0  2  0  0  0  0  0  0  0  0  0
   -1.1130    4.4210   17.4350 O   0  0  0  0  0  0  0  0  0  0  0  0
   -2.4680    6.2800   16.7650 C   0  0  1  0  0  0  0  0  0  0  0  0
   -3.5250    5.8940   17.6680 O   0  0  0  0  0  0  0  0  0  0  0  0
   -2.5200    7.7930   16.5310 C   0  0  2  0  0  0  0  0  0  0  0  0
   -3.8320    8.1280   16.0530 O   0  0  0  0  0  0  0  0  0  0  0  0
   -1.2230   10.7830   16.8060 H   0  0  0  0  0  0  0  0  0  0  0  0
   -1.9786    9.8678   14.2909 H   0  0  0  0  0  0  0  0  0  0  0  0
   -0.3521    9.9813   15.0849 H   0  0  0  0  0  0  0  0  0  0  0  0
   -1.6707    7.6637   14.5628 H   0  0  0  0  0  0  0  0  0  0  0  0
    0.6690    7.9440   15.4060 H   0  0  0  0  0  0  0  0  0  0  0  0
    2.8330    6.6090   16.2990 H   0  0  0  0  0  0  0  0  0  0  0  0
   -0.9758    6.2189   18.3805 H   0  0  0  0  0  0  0  0  0  0  0  0
   -0.3560    4.1390   16.8860 H   0  0  0  0  0  0  0  0  0  0  0  0
   -2.5940    5.7858   15.7904 H   0  0  0  0  0  0  0  0  0  0  0  0
   -3.9280    6.7400   17.9520 H   0  0  0  0  0  0  0  0  0  0  0  0
   -2.3306    8.3538   17.4581 H   0  0  0  0  0  0  0  0  0  0  0  0
   -3.6950    8.6310   15.2270 H   0  0  0  0  0  0  0  0  0  0  0  0
  1  2  1  0
  2  3  1  0
  3  4  1  0
  4  5  1  0
  5  6  2  0
  6  7  1  0
  5  8  1  0
  8  9  1  0
  8 10  1  0
 10 11  1  0
 10 12  1  0
 12 13  1  0
 12  3  1  0
  1 14  1  0
  2 15  1  0
  2 16  1  0
  3 17  1  6
  4 18  1  0
  7 19  1  0
  8 20  1  1
  9 21  1  0
 10 22  1  6
 11 23  1  0
 12 24  1  1
 13 25  1  0
M  END
>  <meeko>  (5) 
{"is_sidechain": [false], "free_energy": -6.144, "intermolecular_energy": -7.196, "internal_energy": -0.254}

$$$$
2j78_ligand
     RDKit          3D

 25 25  0  0  0  0  0  0  0  0999 V2000
    1.3770    4.2330   17.1060 O   0  0  0  0  0  0  0  0  0  0  0  0
    1.1070    5.0550   15.9730 C   0  0  0  0  0  0  0  0  0  0  0  0
    0.0570    6.1350   16.2890 C   0  0  1  0  0  0  0  0  0  0  0  0
   -0.0970    7.0470   15.1610 N   0  0  0  0  0  0  0  0  0  0  0  0
   -1.1300    7.9630   15.1090 C   0  0  0  0  0  0  0  0  0  0  0  0
   -1.0040    9.1180   14.5190 N   0  0  0  0  0  0  0  0  0  0  0  0
    0.2980    9.2900   14.0190 O   0  0  0  0  0  0  0  0  0  0  0  0
   -2.4960    7.5760   15.7220 C   0  0  2  0  0  0  0  0  0  0  0  0
   -3.3150    8.6740   16.1090 O   0  0  0  0  0  0  0  0  0  0  0  0
   -2.2840    6.6820   16.9510 C   0  0  1  0  0  0  0  0  0  0  0  0
   -3.5570    6.1430   17.3640 O   0  0  0  0  0  0  0  0  0  0  0  0
   -1.3120    5.5340   16.6570 C   0  0  2  0  0  0  0  0  0  0  0  0
   -1.2300    4.7060   17.8270 O   0  0  0  0  0  0  0  0  0  0  0  0
    0.7070    3.5250   17.1160 H   0  0  0  0  0  0  0  0  0  0  0  0
    2.0398    5.5461   15.6588 H   0  0  0  0  0  0  0  0  0  0  0  0
    0.7090    4.4144   15.1723 H   0  0  0  0  0  0  0  0  0  0  0  0
    0.4271    6.6879   17.1650 H   0  0  0  0  0  0  0  0  0  0  0  0
    0.7590    7.4780   14.8150 H   0  0  0  0  0  0  0  0  0  0  0  0
    0.8390    9.0180   14.7850 H   0  0  0  0  0  0  0  0  0  0  0  0
   -3.0285    7.0520   14.9146 H   0  0  0  0  0  0  0  0  0  0  0  0
   -4.2320    8.3580   16.0050 H   0  0  0  0  0  0  0  0  0  0  0  0
   -1.8457    7.2947   17.7526 H   0  0  0  0  0  0  0  0  0  0  0  0
   -3.3360    5.2980   17.8060 H   0  0  0  0  0  0  0  0  0  0  0  0
   -1.6547    4.9162   15.8139 H   0  0  0  0  0  0  0  0  0  0  0  0
   -1.4200    5.2930   18.5840 H   0  0  0  0  0  0  0  0  0  0  0  0
  1  2  1  0
  2  3  1  0
  3  4  1  0
  4  5  1  0
  5  6  2  0
  6  7  1  0
  5  8  1  0
  8  9  1  0
  8 10  1  0
 10 11  1  0
 10 12  1  0
 12 13  1  0
 12  3  1  0
  1 14  1  0
  2 15  1  0
  2 16  1  0
  3 17  1  1
  4 18  1  0
  7 19  1  0
  8 20  1  6
  9 21  1  0
 10 22  1  1
 11 23  1  0
 12 24  1  6
 13 25  1  0
M  END
>  <meeko>  (6) 
{"is_sidechain": [false], "free_energy": -5.993, "intermolecular_energy": -7.043, "internal_energy": -0.225}

$$$$
2j78_ligand
     RDKit          3D

 25 25  0  0  0  0  0  0  0  0999 V2000
    1.3070    8.7370   13.5890 O   0  0  0  0  0  0  0  0  0  0  0  0
    1.1100    7.4220   14.1030 C   0  0  0  0  0  0  0  0  0  0  0  0
   -0.0540    7.3710   15.1080 C   0  0  1  0  0  0  0  0  0  0  0  0
   -0.8920    8.5600   14.9850 N   0  0  0  0  0  0  0  0  0  0  0  0
   -2.1170    8.6480   15.6180 C   0  0  0  0  0  0  0  0  0  0  0  0
   -2.5990    9.7820   16.0400 N   0  0  0  0  0  0  0  0  0  0  0  0
   -1.6960   10.8330   15.8070 O   0  0  0  0  0  0  0  0  0  0  0  0
   -2.9650    7.3650   15.7740 C   0  0  2  0  0  0  0  0  0  0  0  0
   -3.9080    7.3920   16.8400 O   0  0  0  0  0  0  0  0  0  0  0  0
   -2.0480    6.1520   15.9800 C   0  0  1  0  0  0  0  0  0  0  0  0
   -2.8350    4.9470   15.8870 O   0  0  0  0  0  0  0  0  0  0  0  0
   -0.9210    6.1100   14.9410 C   0  0  2  0  0  0  0  0  0  0  0  0
   -0.1600    4.9110   15.1540 O   0  0  0  0  0  0  0  0  0  0  0  0
    2.2270    8.7910   13.2760 H   0  0  0  0  0  0  0  0  0  0  0  0
    0.8889    6.7421   13.2670 H   0  0  0  0  0  0  0  0  0  0  0  0
    2.0282    7.1180   14.6269 H   0  0  0  0  0  0  0  0  0  0  0  0
    0.3973    7.3373   16.1106 H   0  0  0  0  0  0  0  0  0  0  0  0
   -0.4090    9.4540   15.0490 H   0  0  0  0  0  0  0  0  0  0  0  0
   -2.1500   11.3270   15.0990 H   0  0  0  0  0  0  0  0  0  0  0  0
   -3.5424    7.2952   14.8403 H   0  0  0  0  0  0  0  0  0  0  0  0
   -4.5280    6.6620   16.6530 H   0  0  0  0  0  0  0  0  0  0  0  0
   -1.5847    6.2342   16.9743 H   0  0  0  0  0  0  0  0  0  0  0  0
   -2.1820    4.2380   15.7150 H   0  0  0  0  0  0  0  0  0  0  0  0
   -1.3147    6.0973   13.9140 H   0  0  0  0  0  0  0  0  0  0  0  0
    0.7170    5.2040   15.4690 H   0  0  0  0  0  0  0  0  0  0  0  0
  1  2  1  0
  2  3  1  0
  3  4  1  0
  4  5  1  0
  5  6  2  0
  6  7  1  0
  5  8  1  0
  8  9  1  0
  8 10  1  0
 10 11  1  0
 10 12  1  0
 12 13  1  0
 12  3  1  0
  1 14  1  0
  2 15  1  0
  2 16  1  0
  3 17  1  1
  4 18  1  0
  7 19  1  0
  8 20  1  6
  9 21  1  0
 10 22  1  1
 11 23  1  0
 12 24  1  6
 13 25  1  0
M  END
>  <meeko>  (7) 
{"is_sidechain": [false], "free_energy": -5.921, "intermolecular_energy": -7.138, "internal_energy": -0.044}

$$$$
2j78_ligand
     RDKit          3D

 25 25  0  0  0  0  0  0  0  0999 V2000
   -0.1310    6.0890    8.5630 O   0  0  0  0  0  0  0  0  0  0  0  0
    1.1890    6.6260    8.5150 C   0  0  0  0  0  0  0  0  0  0  0  0
    1.2620    8.0170    9.1690 C   0  0  1  0  0  0  0  0  0  0  0  0
    0.4130    8.9650    8.4560 N   0  0  0  0  0  0  0  0  0  0  0  0
    0.1350   10.2160    8.9740 C   0  0  0  0  0  0  0  0  0  0  0  0
   -0.0690   11.2520    8.2120 N   0  0  0  0  0  0  0  0  0  0  0  0
    0.0840   10.9190    6.8550 O   0  0  0  0  0  0  0  0  0  0  0  0
    0.0050   10.3720   10.5070 C   0  0  2  0  0  0  0  0  0  0  0  0
    0.2440   11.6850   11.0010 O   0  0  0  0  0  0  0  0  0  0  0  0
    0.9710    9.4130   11.2150 C   0  0  1  0  0  0  0  0  0  0  0  0
    0.6720    9.4010   12.6260 O   0  0  0  0  0  0  0  0  0  0  0  0
    0.8680    7.9890   10.6570 C   0  0  2  0  0  0  0  0  0  0  0  0
    1.7420    7.1440   11.4210 O   0  0  0  0  0  0  0  0  0  0  0  0
   -0.6810    6.7150    9.0660 H   0  0  0  0  0  0  0  0  0  0  0  0
    1.8701    5.9457    9.0472 H   0  0  0  0  0  0  0  0  0  0  0  0
    1.4793    6.7281    7.4589 H   0  0  0  0  0  0  0  0  0  0  0  0
    2.3117    8.3398    9.1065 H   0  0  0  0  0  0  0  0  0  0  0  0
    0.5700    9.0390    7.4530 H   0  0  0  0  0  0  0  0  0  0  0  0
    0.2380   11.7960    6.4550 H   0  0  0  0  0  0  0  0  0  0  0  0
   -1.0473   10.1372   10.7251 H   0  0  0  0  0  0  0  0  0  0  0  0
    1.2150   11.7550   11.0820 H   0  0  0  0  0  0  0  0  0  0  0  0
    1.9977    9.7676   11.0415 H   0  0  0  0  0  0  0  0  0  0  0  0
    0.0430   10.1420   12.7510 H   0  0  0  0  0  0  0  0  0  0  0  0
   -0.1560    7.5949   10.7344 H   0  0  0  0  0  0  0  0  0  0  0  0
    2.5480    7.0350   10.8800 H   0  0  0  0  0  0  0  0  0  0  0  0
  1  2  1  0
  2  3  1  0
  3  4  1  0
  4  5  1  0
  5  6  2  0
  6  7  1  0
  5  8  1  0
  8  9  1  0
  8 10  1  0
 10 11  1  0
 10 12  1  0
 12 13  1  0
 12  3  1  0
  1 14  1  0
  2 15  1  0
  2 16  1  0
  3 17  1  1
  4 18  1  0
  7 19  1  0
  8 20  1  1
  9 21  1  0
 10 22  1  1
 11 23  1  0
 12 24  1  6
 13 25  1  0
M  END
>  <meeko>  (8) 
{"is_sidechain": [false], "free_energy": -5.884, "intermolecular_energy": -7.071, "internal_energy": -0.066}

$$$$
2j78_ligand
     RDKit          3D

 25 25  0  0  0  0  0  0  0  0999 V2000
    1.4130    8.6460   13.2570 O   0  0  0  0  0  0  0  0  0  0  0  0
    0.4050    7.7710   12.7550 C   0  0  0  0  0  0  0  0  0  0  0  0
   -0.9090    7.9020   13.5440 C   0  0  1  0  0  0  0  0  0  0  0  0
   -1.2470    6.6370   14.1890 N   0  0  0  0  0  0  0  0  0  0  0  0
   -2.2560    6.5550   15.1310 C   0  0  0  0  0  0  0  0  0  0  0  0
   -2.9770    5.4810   15.2820 N   0  0  0  0  0  0  0  0  0  0  0  0
   -2.6170    4.4950   14.3470 O   0  0  0  0  0  0  0  0  0  0  0  0
   -2.4910    7.7580   16.0730 C   0  0  2  0  0  0  0  0  0  0  0  0
   -3.8010    7.8440   16.6240 O   0  0  0  0  0  0  0  0  0  0  0  0
   -2.1990    9.0700   15.3310 C   0  0  1  0  0  0  0  0  0  0  0  0
   -2.1940   10.1550   16.2800 O   0  0  0  0  0  0  0  0  0  0  0  0
   -0.8530    9.0200   14.6010 C   0  0  2  0  0  0  0  0  0  0  0  0
   -0.6210   10.3040   14.0010 O   0  0  0  0  0  0  0  0  0  0  0  0
    2.2480    8.4100   12.8150 H   0  0  0  0  0  0  0  0  0  0  0  0
    0.2131    8.0168   11.7001 H   0  0  0  0  0  0  0  0  0  0  0  0
    0.7658    6.7372   12.8604 H   0  0  0  0  0  0  0  0  0  0  0  0
   -1.6888    8.1690   12.8156 H   0  0  0  0  0  0  0  0  0  0  0  0
   -1.2810    5.8210   13.5820 H   0  0  0  0  0  0  0  0  0  0  0  0
   -2.9860    4.8650   13.5220 H   0  0  0  0  0  0  0  0  0  0  0  0
   -1.8017    7.5949   16.9146 H   0  0  0  0  0  0  0  0  0  0  0  0
   -4.3170    8.3630   15.9770 H   0  0  0  0  0  0  0  0  0  0  0  0
   -2.9843    9.2227   14.5760 H   0  0  0  0  0  0  0  0  0  0  0  0
   -2.4330   10.9450   15.7540 H   0  0  0  0  0  0  0  0  0  0  0  0
   -0.0251    8.7996   15.2909 H   0  0  0  0  0  0  0  0  0  0  0  0
   -1.2570   10.3730   13.2630 H   0  0  0  0  0  0  0  0  0  0  0  0
  1  2  1  0
  2  3  1  0
  3  4  1  0
  4  5  1  0
  5  6  2  0
  6  7  1  0
  5  8  1  0
  8  9  1  0
  8 10  1  0
 10 11  1  0
 10 12  1  0
 12 13  1  0
 12  3  1  0
  1 14  1  0
  2 15  1  0
  2 16  1  0
  3 17  1  6
  4 18  1  0
  7 19  1  0
  8 20  1  1
  9 21  1  0
 10 22  1  6
 11 23  1  0
 12 24  1  1
 13 25  1  0
M  END
>  <meeko>  (9) 
{"is_sidechain": [false], "free_energy": -5.857, "intermolecular_energy": -6.88, "internal_energy": -0.224}

$$$$
