3fcq_ligand
     RDKit          3D

 23 23  0  0  0  0  0  0  0  0999 V2000
   31.4140   39.0430   -9.4710 C   0  0  0  0  0  0  0  0  0  0  0  0
   31.2220   39.8870  -10.6970 C   0  0  0  0  0  0  0  0  0  0  0  0
   30.1240   40.1230  -11.1930 O   0  0  0  0  0  0  0  0  0  0  0  0
   32.4670   40.2030  -11.2260 O   0  0  0  0  0  0  0  0  0  0  0  0
   32.5360   41.5190  -11.6980 C   0  0  0  0  0  0  0  0  0  0  0  0
   32.4110   41.7320  -13.0870 C   0  0  0  0  0  0  0  0  0  0  0  0
   32.1260   40.5970  -14.0260 C   0  0  0  0  0  0  0  0  0  0  0  0
   32.5170   43.0380  -13.5790 C   0  0  0  0  0  0  0  0  0  0  0  0
   32.7800   44.0970  -12.7130 C   0  0  0  0  0  0  0  0  0  0  0  0
   32.9350   43.8610  -11.3460 C   0  0  0  0  0  0  0  0  0  0  0  0
   32.8220   42.5670  -10.8030 C   0  0  0  0  0  0  0  0  0  0  0  0
   33.0180   42.3710   -9.3110 C   0  0  0  0  0  0  0  0  0  0  0  0
   32.0220   42.6370   -8.5630 O   0  0  0  0  0  0  0  0  0  0  0  0
   34.1450   41.9530   -8.8950 O   0  0  0  0  0  0  0  0  0  0  0  0
   31.2730   39.6629   -8.5733 H   0  0  0  0  0  0  0  0  0  0  0  0
   30.6791   38.2245   -9.4705 H   0  0  0  0  0  0  0  0  0  0  0  0
   32.4306   38.6230   -9.4705 H   0  0  0  0  0  0  0  0  0  0  0  0
   31.8983   39.6901  -13.4466 H   0  0  0  0  0  0  0  0  0  0  0  0
   31.2643   40.8531  -14.6599 H   0  0  0  0  0  0  0  0  0  0  0  0
   33.0065   40.4156  -14.6599 H   0  0  0  0  0  0  0  0  0  0  0  0
   32.3920   43.2292  -14.6550 H   0  0  0  0  0  0  0  0  0  0  0  0
   32.8656   45.1205  -13.1069 H   0  0  0  0  0  0  0  0  0  0  0  0
   33.1507   44.7068  -10.6766 H   0  0  0  0  0  0  0  0  0  0  0  0
  1  2  1  0
  2  3  2  0
  2  4  1  0
  4  5  1  0
  5  6  2  0
  6  7  1  0
  6  8  1  0
  8  9  2  0
  9 10  1  0
 10 11  2  0
 11 12  1  0
 12 13  2  0
 12 14  1  0
 11  5  1  0
  1 15  1  0
  1 16  1  0
  1 17  1  0
  7 18  1  0
  7 19  1  0
  7 20  1  0
  8 21  1  0
  9 22  1  0
 10 23  1  0
M  CHG  1  14  -1
M  END
>  <meeko>  (1) 
{"is_sidechain": [false], "free_energy": -5.804, "intermolecular_energy": -6.822, "internal_energy": -0.264}

$$$$
3fcq_ligand
     RDKit          3D

 23 23  0  0  0  0  0  0  0  0999 V2000
   33.4080   41.9280   -8.0420 C   0  0  0  0  0  0  0  0  0  0  0  0
   32.7390   42.6170   -9.1950 C   0  0  0  0  0  0  0  0  0  0  0  0
   31.6080   43.0920   -9.1370 O   0  0  0  0  0  0  0  0  0  0  0  0
   33.5370   42.4830  -10.3240 O   0  0  0  0  0  0  0  0  0  0  0  0
   32.8110   42.0930  -11.4550 C   0  0  0  0  0  0  0  0  0  0  0  0
   32.5900   40.7150  -11.6580 C   0  0  0  0  0  0  0  0  0  0  0  0
   33.0400   39.6970  -10.6510 C   0  0  0  0  0  0  0  0  0  0  0  0
   31.9000   40.3070  -12.8050 C   0  0  0  0  0  0  0  0  0  0  0  0
   31.4770   41.2450  -13.7440 C   0  0  0  0  0  0  0  0  0  0  0  0
   31.7370   42.6020  -13.5420 C   0  0  0  0  0  0  0  0  0  0  0  0
   32.4140   43.0610  -12.3960 C   0  0  0  0  0  0  0  0  0  0  0  0
   32.6810   44.5470  -12.2410 C   0  0  0  0  0  0  0  0  0  0  0  0
   31.7580   45.2430  -11.7070 O   0  0  0  0  0  0  0  0  0  0  0  0
   33.7980   45.0090  -12.6400 O   0  0  0  0  0  0  0  0  0  0  0  0
   33.0164   42.3314   -7.0965 H   0  0  0  0  0  0  0  0  0  0  0  0
   33.2047   40.8481   -8.0921 H   0  0  0  0  0  0  0  0  0  0  0  0
   34.4934   42.0995   -8.0921 H   0  0  0  0  0  0  0  0  0  0  0  0
   32.8686   40.0847   -9.6360 H   0  0  0  0  0  0  0  0  0  0  0  0
   32.4691   38.7670  -10.7895 H   0  0  0  0  0  0  0  0  0  0  0  0
   34.1121   39.4932  -10.7895 H   0  0  0  0  0  0  0  0  0  0  0  0
   31.6904   39.2392  -12.9661 H   0  0  0  0  0  0  0  0  0  0  0  0
   30.9380   40.9166  -14.6449 H   0  0  0  0  0  0  0  0  0  0  0  0
   31.4048   43.3301  -14.2966 H   0  0  0  0  0  0  0  0  0  0  0  0
  1  2  1  0
  2  3  2  0
  2  4  1  0
  4  5  1  0
  5  6  2  0
  6  7  1  0
  6  8  1  0
  8  9  2  0
  9 10  1  0
 10 11  2  0
 11 12  1  0
 12 13  2  0
 12 14  1  0
 11  5  1  0
  1 15  1  0
  1 16  1  0
  1 17  1  0
  7 18  1  0
  7 19  1  0
  7 20  1  0
  8 21  1  0
  9 22  1  0
 10 23  1  0
M  CHG  1  14  -1
M  END
>  <meeko>  (2) 
{"is_sidechain": [false], "free_energy": -5.321, "intermolecular_energy": -6.389, "internal_energy": -0.129}

$$$$
3fcq_ligand
     RDKit          3D

 23 23  0  0  0  0  0  0  0  0999 V2000
   38.8940   37.7580   -4.6990 C   0  0  0  0  0  0  0  0  0  0  0  0
   38.5730   38.9960   -3.9130 C   0  0  0  0  0  0  0  0  0  0  0  0
   39.4210   39.6700   -3.3350 O   0  0  0  0  0  0  0  0  0  0  0  0
   37.1940   39.1360   -3.8370 O   0  0  0  0  0  0  0  0  0  0  0  0
   36.7900   39.9240   -2.7530 C   0  0  0  0  0  0  0  0  0  0  0  0
   36.5430   39.2820   -1.5220 C   0  0  0  0  0  0  0  0  0  0  0  0
   36.7890   37.8110   -1.3470 C   0  0  0  0  0  0  0  0  0  0  0  0
   36.1010   40.0500   -0.4400 C   0  0  0  0  0  0  0  0  0  0  0  0
   35.8720   41.4160   -0.5930 C   0  0  0  0  0  0  0  0  0  0  0  0
   36.0870   42.0270   -1.8300 C   0  0  0  0  0  0  0  0  0  0  0  0
   36.5470   41.2970   -2.9420 C   0  0  0  0  0  0  0  0  0  0  0  0
   36.7470   42.0140   -4.2650 C   0  0  0  0  0  0  0  0  0  0  0  0
   37.9140   42.4690   -4.5000 O   0  0  0  0  0  0  0  0  0  0  0  0
   35.7570   42.1160   -5.0570 O   0  0  0  0  0  0  0  0  0  0  0  0
   39.1087   36.9300   -4.0074 H   0  0  0  0  0  0  0  0  0  0  0  0
   38.0349   37.4930   -5.3328 H   0  0  0  0  0  0  0  0  0  0  0  0
   39.7737   37.9439   -5.3328 H   0  0  0  0  0  0  0  0  0  0  0  0
   36.8291   37.5710   -0.2742 H   0  0  0  0  0  0  0  0  0  0  0  0
   35.9732   37.2441   -1.8193 H   0  0  0  0  0  0  0  0  0  0  0  0
   37.7449   37.5404   -1.8193 H   0  0  0  0  0  0  0  0  0  0  0  0
   35.9332   39.5732    0.5370 H   0  0  0  0  0  0  0  0  0  0  0  0
   35.5215   42.0135    0.2615 H   0  0  0  0  0  0  0  0  0  0  0  0
   35.8923   43.1042   -1.9380 H   0  0  0  0  0  0  0  0  0  0  0  0
  1  2  1  0
  2  3  2  0
  2  4  1  0
  4  5  1  0
  5  6  2  0
  6  7  1  0
  6  8  1  0
  8  9  2  0
  9 10  1  0
 10 11  2  0
 11 12  1  0
 12 13  2  0
 12 14  1  0
 11  5  1  0
  1 15  1  0
  1 16  1  0
  1 17  1  0
  7 18  1  0
  7 19  1  0
  7 20  1  0
  8 21  1  0
  9 22  1  0
 10 23  1  0
M  CHG  1  14  -1
M  END
>  <meeko>  (3) 
{"is_sidechain": [false], "free_energy": -5.3, "intermolecular_energy": -6.269, "internal_energy": -0.225}

$$$$
3fcq_ligand
     RDKit          3D

 23 23  0  0  0  0  0  0  0  0999 V2000
   36.8180   38.2690   -1.3360 C   0  0  0  0  0  0  0  0  0  0  0  0
   36.0370   39.1060   -2.3060 C   0  0  0  0  0  0  0  0  0  0  0  0
   34.9590   39.6280   -2.0370 O   0  0  0  0  0  0  0  0  0  0  0  0
   36.6550   39.0500   -3.5490 O   0  0  0  0  0  0  0  0  0  0  0  0
   36.0070   39.8330   -4.5110 C   0  0  0  0  0  0  0  0  0  0  0  0
   35.2380   39.1750   -5.4930 C   0  0  0  0  0  0  0  0  0  0  0  0
   35.0430   37.6880   -5.4620 C   0  0  0  0  0  0  0  0  0  0  0  0
   34.6160   39.9420   -6.4850 C   0  0  0  0  0  0  0  0  0  0  0  0
   34.7900   41.3240   -6.5190 C   0  0  0  0  0  0  0  0  0  0  0  0
   35.5850   41.9530   -5.5590 C   0  0  0  0  0  0  0  0  0  0  0  0
   36.2180   41.2240   -4.5330 C   0  0  0  0  0  0  0  0  0  0  0  0
   37.0830   41.9630   -3.5280 C   0  0  0  0  0  0  0  0  0  0  0  0
   36.5080   42.8550   -2.8230 O   0  0  0  0  0  0  0  0  0  0  0  0
   38.3130   41.6510   -3.4410 O   0  0  0  0  0  0  0  0  0  0  0  0
   36.5515   38.5547   -0.3077 H   0  0  0  0  0  0  0  0  0  0  0  0
   36.5809   37.2066   -1.4946 H   0  0  0  0  0  0  0  0  0  0  0  0
   37.8942   38.4321   -1.4946 H   0  0  0  0  0  0  0  0  0  0  0  0
   34.9981   37.3458   -4.4176 H   0  0  0  0  0  0  0  0  0  0  0  0
   34.1034   37.4307   -5.9729 H   0  0  0  0  0  0  0  0  0  0  0  0
   35.8845   37.1971   -5.9729 H   0  0  0  0  0  0  0  0  0  0  0  0
   33.9865   39.4511   -7.2418 H   0  0  0  0  0  0  0  0  0  0  0  0
   34.3004   41.9202   -7.3031 H   0  0  0  0  0  0  0  0  0  0  0  0
   35.7203   43.0437   -5.6048 H   0  0  0  0  0  0  0  0  0  0  0  0
  1  2  1  0
  2  3  2  0
  2  4  1  0
  4  5  1  0
  5  6  2  0
  6  7  1  0
  6  8  1  0
  8  9  2  0
  9 10  1  0
 10 11  2  0
 11 12  1  0
 12 13  2  0
 12 14  1  0
 11  5  1  0
  1 15  1  0
  1 16  1  0
  1 17  1  0
  7 18  1  0
  7 19  1  0
  7 20  1  0
  8 21  1  0
  9 22  1  0
 10 23  1  0
M  CHG  1  14  -1
M  END
>  <meeko>  (4) 
{"is_sidechain": [false], "free_energy": -5.223, "intermolecular_energy": -6.392, "internal_energy": -0.01}

$$$$
3fcq_ligand
     RDKit          3D

 23 23  0  0  0  0  0  0  0  0999 V2000
   36.7650   41.9010   -4.4570 C   0  0  0  0  0  0  0  0  0  0  0  0
   37.7510   41.1320   -3.6280 C   0  0  0  0  0  0  0  0  0  0  0  0
   38.4460   41.6430   -2.7550 O   0  0  0  0  0  0  0  0  0  0  0  0
   37.8350   39.8340   -4.1150 O   0  0  0  0  0  0  0  0  0  0  0  0
   37.9700   38.8830   -3.0990 C   0  0  0  0  0  0  0  0  0  0  0  0
   39.1860   38.1750   -3.0100 C   0  0  0  0  0  0  0  0  0  0  0  0
   40.3380   38.4880   -3.9200 C   0  0  0  0  0  0  0  0  0  0  0  0
   39.3220   37.1920   -2.0230 C   0  0  0  0  0  0  0  0  0  0  0  0
   38.2590   36.8960   -1.1730 C   0  0  0  0  0  0  0  0  0  0  0  0
   37.0500   37.5830   -1.3000 C   0  0  0  0  0  0  0  0  0  0  0  0
   36.8720   38.5900   -2.2670 C   0  0  0  0  0  0  0  0  0  0  0  0
   35.5290   39.2910   -2.3670 C   0  0  0  0  0  0  0  0  0  0  0  0
   34.8000   38.9930   -3.3670 O   0  0  0  0  0  0  0  0  0  0  0  0
   35.2070   40.1190   -1.4560 O   0  0  0  0  0  0  0  0  0  0  0  0
   36.0721   42.4414   -3.7952 H   0  0  0  0  0  0  0  0  0  0  0  0
   37.3023   42.6209   -5.0918 H   0  0  0  0  0  0  0  0  0  0  0  0
   36.1976   41.2045   -5.0918 H   0  0  0  0  0  0  0  0  0  0  0  0
   41.2261   38.7293   -3.3175 H   0  0  0  0  0  0  0  0  0  0  0  0
   40.5515   37.6153   -4.5547 H   0  0  0  0  0  0  0  0  0  0  0  0
   40.0806   39.3488   -4.5547 H   0  0  0  0  0  0  0  0  0  0  0  0
   40.2736   36.6502   -1.9180 H   0  0  0  0  0  0  0  0  0  0  0  0
   38.3720   36.1205   -0.4011 H   0  0  0  0  0  0  0  0  0  0  0  0
   36.2164   37.3310   -0.6279 H   0  0  0  0  0  0  0  0  0  0  0  0
  1  2  1  0
  2  3  2  0
  2  4  1  0
  4  5  1  0
  5  6  2  0
  6  7  1  0
  6  8  1  0
  8  9  2  0
  9 10  1  0
 10 11  2  0
 11 12  1  0
 12 13  2  0
 12 14  1  0
 11  5  1  0
  1 15  1  0
  1 16  1  0
  1 17  1  0
  7 18  1  0
  7 19  1  0
  7 20  1  0
  8 21  1  0
  9 22  1  0
 10 23  1  0
M  CHG  1  14  -1
M  END
>  <meeko>  (5) 
{"is_sidechain": [false], "free_energy": -5.079, "intermolecular_energy": -6.101, "internal_energy": -0.132}

$$$$
3fcq_ligand
     RDKit          3D

 23 23  0  0  0  0  0  0  0  0999 V2000
   33.1560   38.2270   -7.1850 C   0  0  0  0  0  0  0  0  0  0  0  0
   32.5680   38.6470   -8.5000 C   0  0  0  0  0  0  0  0  0  0  0  0
   31.3950   38.4600   -8.8090 O   0  0  0  0  0  0  0  0  0  0  0  0
   33.5870   39.1190   -9.3170 O   0  0  0  0  0  0  0  0  0  0  0  0
   33.2680   40.3360   -9.9310 C   0  0  0  0  0  0  0  0  0  0  0  0
   32.7890   40.3050  -11.2570 C   0  0  0  0  0  0  0  0  0  0  0  0
   32.5440   39.0050  -11.9660 C   0  0  0  0  0  0  0  0  0  0  0  0
   32.5030   41.5160  -11.8970 C   0  0  0  0  0  0  0  0  0  0  0  0
   32.7260   42.7270  -11.2450 C   0  0  0  0  0  0  0  0  0  0  0  0
   33.2340   42.7380   -9.9450 C   0  0  0  0  0  0  0  0  0  0  0  0
   33.5220   41.5440   -9.2560 C   0  0  0  0  0  0  0  0  0  0  0  0
   34.0880   41.6220   -7.8490 C   0  0  0  0  0  0  0  0  0  0  0  0
   35.3050   41.2750   -7.7010 O   0  0  0  0  0  0  0  0  0  0  0  0
   33.3310   42.0280   -6.9110 O   0  0  0  0  0  0  0  0  0  0  0  0
   32.5601   38.6527   -6.3642 H   0  0  0  0  0  0  0  0  0  0  0  0
   33.1475   37.1294   -7.1134 H   0  0  0  0  0  0  0  0  0  0  0  0
   34.1915   38.5911   -7.1134 H   0  0  0  0  0  0  0  0  0  0  0  0
   32.3934   38.2060  -11.2251 H   0  0  0  0  0  0  0  0  0  0  0  0
   31.6469   39.0945  -12.5963 H   0  0  0  0  0  0  0  0  0  0  0  0
   33.4121   38.7618  -12.5963 H   0  0  0  0  0  0  0  0  0  0  0  0
   32.0999   41.5119  -12.9205 H   0  0  0  0  0  0  0  0  0  0  0  0
   32.5015   43.6753  -11.7553 H   0  0  0  0  0  0  0  0  0  0  0  0
   33.4137   43.7021   -9.4468 H   0  0  0  0  0  0  0  0  0  0  0  0
  1  2  1  0
  2  3  2  0
  2  4  1  0
  4  5  1  0
  5  6  2  0
  6  7  1  0
  6  8  1  0
  8  9  2  0
  9 10  1  0
 10 11  2  0
 11 12  1  0
 12 13  2  0
 12 14  1  0
 11  5  1  0
  1 15  1  0
  1 16  1  0
  1 17  1  0
  7 18  1  0
  7 19  1  0
  7 20  1  0
  8 21  1  0
  9 22  1  0
 10 23  1  0
M  CHG  1  14  -1
M  END
>  <meeko>  (6) 
{"is_sidechain": [false], "free_energy": -5.061, "intermolecular_energy": -6.051, "internal_energy": -0.162}

$$$$
3fcq_ligand
     RDKit          3D

 23 23  0  0  0  0  0  0  0  0999 V2000
   32.9840   43.1720  -10.5900 C   0  0  0  0  0  0  0  0  0  0  0  0
   32.8750   42.4080   -9.3030 C   0  0  0  0  0  0  0  0  0  0  0  0
   32.0770   42.6890   -8.4130 O   0  0  0  0  0  0  0  0  0  0  0  0
   33.8980   41.4710   -9.2470 O   0  0  0  0  0  0  0  0  0  0  0  0
   33.5370   40.3170   -8.5430 C   0  0  0  0  0  0  0  0  0  0  0  0
   34.0930   40.1190   -7.2630 C   0  0  0  0  0  0  0  0  0  0  0  0
   34.9780   41.1530   -6.6300 C   0  0  0  0  0  0  0  0  0  0  0  0
   33.7720   38.9500   -6.5630 C   0  0  0  0  0  0  0  0  0  0  0  0
   32.9490   37.9860   -7.1420 C   0  0  0  0  0  0  0  0  0  0  0  0
   32.4370   38.1840   -8.4260 C   0  0  0  0  0  0  0  0  0  0  0  0
   32.7200   39.3510   -9.1610 C   0  0  0  0  0  0  0  0  0  0  0  0
   32.1470   39.5010  -10.5590 C   0  0  0  0  0  0  0  0  0  0  0  0
   30.9250   39.8520  -10.6420 O   0  0  0  0  0  0  0  0  0  0  0  0
   32.9070   39.2790  -11.5550 O   0  0  0  0  0  0  0  0  0  0  0  0
   33.1363   44.2392  -10.3711 H   0  0  0  0  0  0  0  0  0  0  0  0
   33.8370   42.7916  -11.1711 H   0  0  0  0  0  0  0  0  0  0  0  0
   32.0587   43.0453  -11.1711 H   0  0  0  0  0  0  0  0  0  0  0  0
   34.9098   41.0733   -5.5350 H   0  0  0  0  0  0  0  0  0  0  0  0
   36.0187   40.9877   -6.9456 H   0  0  0  0  0  0  0  0  0  0  0  0
   34.6540   42.1557   -6.9456 H   0  0  0  0  0  0  0  0  0  0  0  0
   34.1716   38.7915   -5.5505 H   0  0  0  0  0  0  0  0  0  0  0  0
   32.7025   37.0686   -6.5873 H   0  0  0  0  0  0  0  0  0  0  0  0
   31.7971   37.4095   -8.8740 H   0  0  0  0  0  0  0  0  0  0  0  0
  1  2  1  0
  2  3  2  0
  2  4  1  0
  4  5  1  0
  5  6  2  0
  6  7  1  0
  6  8  1  0
  8  9  2  0
  9 10  1  0
 10 11  2  0
 11 12  1  0
 12 13  2  0
 12 14  1  0
 11  5  1  0
  1 15  1  0
  1 16  1  0
  1 17  1  0
  7 18  1  0
  7 19  1  0
  7 20  1  0
  8 21  1  0
  9 22  1  0
 10 23  1  0
M  CHG  1  14  -1
M  END
>  <meeko>  (7) 
{"is_sidechain": [false], "free_energy": -5.026, "intermolecular_energy": -5.923, "internal_energy": -0.248}

$$$$
3fcq_ligand
     RDKit          3D

 23 23  0  0  0  0  0  0  0  0999 V2000
   33.0530   43.1550  -10.6150 C   0  0  0  0  0  0  0  0  0  0  0  0
   32.9800   42.4140   -9.3120 C   0  0  0  0  0  0  0  0  0  0  0  0
   32.0820   42.5730   -8.4910 O   0  0  0  0  0  0  0  0  0  0  0  0
   34.1430   41.6710   -9.1510 O   0  0  0  0  0  0  0  0  0  0  0  0
   33.9370   40.4980   -8.4160 C   0  0  0  0  0  0  0  0  0  0  0  0
   33.2850   39.4220   -9.0540 C   0  0  0  0  0  0  0  0  0  0  0  0
   32.8990   39.4930  -10.5030 C   0  0  0  0  0  0  0  0  0  0  0  0
   33.0370   38.2560   -8.3210 C   0  0  0  0  0  0  0  0  0  0  0  0
   33.3940   38.1800   -6.9760 C   0  0  0  0  0  0  0  0  0  0  0  0
   34.0060   39.2700   -6.3530 C   0  0  0  0  0  0  0  0  0  0  0  0
   34.2900   40.4570   -7.0540 C   0  0  0  0  0  0  0  0  0  0  0  0
   34.9420   41.6130   -6.3180 C   0  0  0  0  0  0  0  0  0  0  0  0
   36.1520   41.4510   -5.9550 O   0  0  0  0  0  0  0  0  0  0  0  0
   34.2580   42.6660   -6.1110 O   0  0  0  0  0  0  0  0  0  0  0  0
   33.1591   44.2321  -10.4188 H   0  0  0  0  0  0  0  0  0  0  0  0
   33.9205   42.7999  -11.1906 H   0  0  0  0  0  0  0  0  0  0  0  0
   32.1329   42.9760  -11.1906 H   0  0  0  0  0  0  0  0  0  0  0  0
   31.8202   39.6914  -10.5858 H   0  0  0  0  0  0  0  0  0  0  0  0
   33.4594   40.3031  -10.9925 H   0  0  0  0  0  0  0  0  0  0  0  0
   33.1345   38.5365  -10.9925 H   0  0  0  0  0  0  0  0  0  0  0  0
   32.5576   37.3947   -8.8091 H   0  0  0  0  0  0  0  0  0  0  0  0
   33.1938   37.2614   -6.4050 H   0  0  0  0  0  0  0  0  0  0  0  0
   34.2726   39.1990   -5.2882 H   0  0  0  0  0  0  0  0  0  0  0  0
  1  2  1  0
  2  3  2  0
  2  4  1  0
  4  5  1  0
  5  6  2  0
  6  7  1  0
  6  8  1  0
  8  9  2  0
  9 10  1  0
 10 11  2  0
 11 12  1  0
 12 13  2  0
 12 14  1  0
 11  5  1  0
  1 15  1  0
  1 16  1  0
  1 17  1  0
  7 18  1  0
  7 19  1  0
  7 20  1  0
  8 21  1  0
  9 22  1  0
 10 23  1  0
M  CHG  1  14  -1
M  END
>  <meeko>  (8) 
{"is_sidechain": [false], "free_energy": -4.904, "intermolecular_energy": -6.015, "internal_energy": -0.013}

$$$$
3fcq_ligand
     RDKit          3D

 23 23  0  0  0  0  0  0  0  0999 V2000
   37.0710   43.1770   -2.1500 C   0  0  0  0  0  0  0  0  0  0  0  0
   37.0780   42.1000   -3.1950 C   0  0  0  0  0  0  0  0  0  0  0  0
   38.0600   41.8270   -3.8800 O   0  0  0  0  0  0  0  0  0  0  0  0
   35.7880   41.6060   -3.3420 O   0  0  0  0  0  0  0  0  0  0  0  0
   35.7250   40.5100   -4.2090 C   0  0  0  0  0  0  0  0  0  0  0  0
   35.3020   40.7360   -5.5350 C   0  0  0  0  0  0  0  0  0  0  0  0
   35.0110   42.1210   -6.0340 C   0  0  0  0  0  0  0  0  0  0  0  0
   35.1960   39.6430   -6.4020 C   0  0  0  0  0  0  0  0  0  0  0  0
   35.4660   38.3540   -5.9480 C   0  0  0  0  0  0  0  0  0  0  0  0
   35.8490   38.1460   -4.6210 C   0  0  0  0  0  0  0  0  0  0  0  0
   35.9840   39.2170   -3.7160 C   0  0  0  0  0  0  0  0  0  0  0  0
   36.3880   38.9260   -2.2820 C   0  0  0  0  0  0  0  0  0  0  0  0
   37.5820   38.5250   -2.0940 O   0  0  0  0  0  0  0  0  0  0  0  0
   35.5290   39.1010   -1.3610 O   0  0  0  0  0  0  0  0  0  0  0  0
   37.0740   42.7180   -1.1504 H   0  0  0  0  0  0  0  0  0  0  0  0
   37.9651   43.8071   -2.2668 H   0  0  0  0  0  0  0  0  0  0  0  0
   36.1688   43.7954   -2.2668 H   0  0  0  0  0  0  0  0  0  0  0  0
   34.8690   42.7969   -5.1779 H   0  0  0  0  0  0  0  0  0  0  0  0
   35.8543   42.4753   -6.6450 H   0  0  0  0  0  0  0  0  0  0  0  0
   34.0964   42.1060   -6.6450 H   0  0  0  0  0  0  0  0  0  0  0  0
   34.8976   39.8025   -7.4487 H   0  0  0  0  0  0  0  0  0  0  0  0
   35.3775   37.4995   -6.6350 H   0  0  0  0  0  0  0  0  0  0  0  0
   36.0500   37.1216   -4.2744 H   0  0  0  0  0  0  0  0  0  0  0  0
  1  2  1  0
  2  3  2  0
  2  4  1  0
  4  5  1  0
  5  6  2  0
  6  7  1  0
  6  8  1  0
  8  9  2  0
  9 10  1  0
 10 11  2  0
 11 12  1  0
 12 13  2  0
 12 14  1  0
 11  5  1  0
  1 15  1  0
  1 16  1  0
  1 17  1  0
  7 18  1  0
  7 19  1  0
  7 20  1  0
  8 21  1  0
  9 22  1  0
 10 23  1  0
M  CHG  1  14  -1
M  END
>  <meeko>  (9) 
{"is_sidechain": [false], "free_energy": -4.802, "intermolecular_energy": -5.75, "internal_energy": -0.158}

$$$$
