4cig_ligand
     RDKit          3D

 67 70  0  0  0  0  0  0  0  0999 V2000
   21.1470  -29.0310    7.1380 C   0  0  0  0  0  0  0  0  0  0  0  0
   20.2270  -29.8400    6.4170 O   0  0  0  0  0  0  0  0  0  0  0  0
   20.0760  -31.1310    6.8380 C   0  0  0  0  0  0  0  0  0  0  0  0
   20.5770  -31.3910    8.1160 C   0  0  0  0  0  0  0  0  0  0  0  0
   20.4900  -32.6690    8.6730 C   0  0  0  0  0  0  0  0  0  0  0  0
   19.9020  -33.7140    7.9510 C   0  0  0  0  0  0  0  0  0  0  0  0
   19.7710  -35.0850    8.5540 C   0  0  0  0  0  0  0  0  0  0  0  0
   20.9690  -35.8580    8.3220 N   0  0  0  0  0  0  0  0  0  0  0  0
   20.9870  -36.8900    7.4180 C   0  0  0  0  0  0  0  0  0  0  0  0
   20.0060  -37.2750    6.7880 O   0  0  0  0  0  0  0  0  0  0  0  0
   22.3030  -37.5430    7.1970 C   0  0  0  0  0  0  0  0  0  0  0  0
   22.7630  -38.4650    8.1520 C   0  0  0  0  0  0  0  0  0  0  0  0
   23.9810  -39.1370    7.9750 C   0  0  0  0  0  0  0  0  0  0  0  0
   24.4550  -40.0620    8.9190 C   0  0  0  0  0  0  0  0  0  0  0  0
   25.6670  -40.7240    8.7220 C   0  0  0  0  0  0  0  0  0  0  0  0
   26.4200  -40.4720    7.5780 C   0  0  0  0  0  0  0  0  0  0  0  0
   25.9600  -39.5560    6.6300 C   0  0  0  0  0  0  0  0  0  0  0  0
   24.7460  -38.8810    6.8160 C   0  0  0  0  0  0  0  0  0  0  0  0
   24.2740  -37.9600    5.8670 C   0  0  0  0  0  0  0  0  0  0  0  0
   23.0520  -37.2820    6.0340 C   0  0  0  0  0  0  0  0  0  0  0  0
   22.6270  -36.2860    4.9750 C   0  0  0  0  0  0  0  0  0  0  0  0
   21.4900  -36.7360    4.0860 N   0  0  1  0  0  0  0  0  0  0  0  0
   20.7710  -35.5750    3.4810 C   0  0  0  0  0  0  0  0  0  0  0  0
   21.8500  -37.8570    3.1340 C   0  0  0  0  0  0  0  0  0  0  0  0
   21.3770  -39.2540    3.4730 C   0  0  0  0  0  0  0  0  0  0  0  0
   20.0940  -39.4490    4.0200 C   0  0  0  0  0  0  0  0  0  0  0  0
   19.6480  -40.7300    4.3480 C   0  0  0  0  0  0  0  0  0  0  0  0
   20.4740  -41.8300    4.1340 C   0  0  0  0  0  0  0  0  0  0  0  0
   21.7400  -41.6560    3.5730 C   0  0  0  0  0  0  0  0  0  0  0  0
   22.5430  -42.7560    3.4350 O   0  0  0  0  0  0  0  0  0  0  0  0
   22.2200  -43.4600    2.2350 C   0  0  0  0  0  0  0  0  0  0  0  0
   22.2090  -40.3770    3.2520 C   0  0  0  0  0  0  0  0  0  0  0  0
   23.5580  -40.1730    2.6440 C   0  0  0  0  0  0  0  0  0  0  0  0
   23.6190  -40.2210    1.3780 O   0  0  0  0  0  0  0  0  0  0  0  0
   24.5470  -40.1860    3.4380 O   0  0  0  0  0  0  0  0  0  0  0  0
   19.3900  -33.4480    6.6730 C   0  0  0  0  0  0  0  0  0  0  0  0
   19.4800  -32.1660    6.1190 C   0  0  0  0  0  0  0  0  0  0  0  0
   20.9893  -29.1697    8.2178 H   0  0  0  0  0  0  0  0  0  0  0  0
   22.1749  -29.3231    6.8771 H   0  0  0  0  0  0  0  0  0  0  0  0
   20.9887  -27.9742    6.8771 H   0  0  0  0  0  0  0  0  0  0  0  0
   21.0460  -30.5789    8.6909 H   0  0  0  0  0  0  0  0  0  0  0  0
   20.8850  -32.8548    9.6827 H   0  0  0  0  0  0  0  0  0  0  0  0
   19.6064  -34.9894    9.6374 H   0  0  0  0  0  0  0  0  0  0  0  0
   18.9198  -35.5996    8.0842 H   0  0  0  0  0  0  0  0  0  0  0  0
   21.8420  -35.4780    8.6670 H   0  0  0  0  0  0  0  0  0  0  0  0
   22.1598  -38.6624    9.0504 H   0  0  0  0  0  0  0  0  0  0  0  0
   23.8641  -40.2669    9.8239 H   0  0  0  0  0  0  0  0  0  0  0  0
   26.0279  -41.4450    9.4703 H   0  0  0  0  0  0  0  0  0  0  0  0
   27.3756  -40.9938    7.4215 H   0  0  0  0  0  0  0  0  0  0  0  0
   26.5572  -39.3619    5.7269 H   0  0  0  0  0  0  0  0  0  0  0  0
   24.8762  -37.7629    4.9678 H   0  0  0  0  0  0  0  0  0  0  0  0
   22.3160  -35.3613    5.4831 H   0  0  0  0  0  0  0  0  0  0  0  0
   23.4965  -36.1539    4.3144 H   0  0  0  0  0  0  0  0  0  0  0  0
   20.8120  -37.1380    4.7560 H   0  0  0  0  0  0  0  0  0  0  0  0
   20.3733  -34.9329    4.2807 H   0  0  0  0  0  0  0  0  0  0  0  0
   21.4687  -34.9957    2.8584 H   0  0  0  0  0  0  0  0  0  0  0  0
   19.9415  -35.9414    2.8584 H   0  0  0  0  0  0  0  0  0  0  0  0
   21.4304  -37.5988    2.1505 H   0  0  0  0  0  0  0  0  0  0  0  0
   22.9472  -37.9182    3.1827 H   0  0  0  0  0  0  0  0  0  0  0  0
   19.4371  -38.5833    4.1903 H   0  0  0  0  0  0  0  0  0  0  0  0
   18.6442  -40.8705    4.7754 H   0  0  0  0  0  0  0  0  0  0  0  0
   20.1283  -42.8378    4.4075 H   0  0  0  0  0  0  0  0  0  0  0  0
   21.7737  -44.4327    2.4894 H   0  0  0  0  0  0  0  0  0  0  0  0
   21.5024  -42.8702    1.6457 H   0  0  0  0  0  0  0  0  0  0  0  0
   23.1351  -43.6193    1.6457 H   0  0  0  0  0  0  0  0  0  0  0  0
   18.9123  -34.2560    6.0995 H   0  0  0  0  0  0  0  0  0  0  0  0
   19.0791  -31.9744    5.1128 H   0  0  0  0  0  0  0  0  0  0  0  0
  1  2  1  0
  2  3  1  0
  3  4  2  0
  4  5  1  0
  5  6  2  0
  6  7  1  0
  7  8  1  0
  8  9  1  0
  9 10  2  0
  9 11  1  0
 11 12  2  0
 12 13  1  0
 13 14  2  0
 14 15  1  0
 15 16  2  0
 16 17  1  0
 17 18  2  0
 18 19  1  0
 19 20  2  0
 20 21  1  0
 21 22  1  0
 22 23  1  0
 22 24  1  0
 24 25  1  0
 25 26  2  0
 26 27  1  0
 27 28  2  0
 28 29  1  0
 29 30  1  0
 30 31  1  0
 29 32  2  0
 32 33  1  0
 33 34  2  0
 33 35  1  0
  6 36  1  0
 36 37  2  0
 37  3  1  0
 20 11  1  0
 32 25  1  0
 18 13  1  0
  1 38  1  0
  1 39  1  0
  1 40  1  0
  4 41  1  0
  5 42  1  0
  7 43  1  0
  7 44  1  0
  8 45  1  0
 12 46  1  0
 14 47  1  0
 15 48  1  0
 16 49  1  0
 17 50  1  0
 19 51  1  0
 21 52  1  0
 21 53  1  0
 22 54  1  1
 23 55  1  0
 23 56  1  0
 23 57  1  0
 24 58  1  0
 24 59  1  0
 26 60  1  0
 27 61  1  0
 28 62  1  0
 31 63  1  0
 31 64  1  0
 31 65  1  0
 36 66  1  0
 37 67  1  0
M  CHG  2  22   1  35  -1
M  END
>  <meeko>  (1) 
{"is_sidechain": [false], "free_energy": -7.763, "intermolecular_energy": -12.301, "internal_energy": -2.532}

$$$$
4cig_ligand
     RDKit          3D

 67 70  0  0  0  0  0  0  0  0999 V2000
   14.4480  -32.7590    4.6020 C   0  0  0  0  0  0  0  0  0  0  0  0
   15.6030  -32.3800    5.3400 O   0  0  0  0  0  0  0  0  0  0  0  0
   16.8000  -32.8880    4.9200 C   0  0  0  0  0  0  0  0  0  0  0  0
   16.7670  -33.4940    3.6620 C   0  0  0  0  0  0  0  0  0  0  0  0
   17.9200  -34.0570    3.1080 C   0  0  0  0  0  0  0  0  0  0  0  0
   19.1290  -34.0250    3.8140 C   0  0  0  0  0  0  0  0  0  0  0  0
   20.3820  -34.5960    3.2120 C   0  0  0  0  0  0  0  0  0  0  0  0
   20.4530  -36.0210    3.4420 N   0  0  0  0  0  0  0  0  0  0  0  0
   21.3440  -36.5550    4.3390 C   0  0  0  0  0  0  0  0  0  0  0  0
   22.1730  -35.9000    4.9640 O   0  0  0  0  0  0  0  0  0  0  0  0
   21.2510  -38.0210    4.5580 C   0  0  0  0  0  0  0  0  0  0  0  0
   21.8060  -38.8800    3.5950 C   0  0  0  0  0  0  0  0  0  0  0  0
   21.7780  -40.2710    3.7700 C   0  0  0  0  0  0  0  0  0  0  0  0
   22.3290  -41.1430    2.8160 C   0  0  0  0  0  0  0  0  0  0  0  0
   22.2960  -42.5240    3.0120 C   0  0  0  0  0  0  0  0  0  0  0  0
   21.7140  -43.0510    4.1620 C   0  0  0  0  0  0  0  0  0  0  0  0
   21.1640  -42.1960    5.1180 C   0  0  0  0  0  0  0  0  0  0  0  0
   21.1870  -40.8060    4.9340 C   0  0  0  0  0  0  0  0  0  0  0  0
   20.6380  -39.9380    5.8920 C   0  0  0  0  0  0  0  0  0  0  0  0
   20.6630  -38.5410    5.7270 C   0  0  0  0  0  0  0  0  0  0  0  0
   20.0280  -37.6750    6.7960 C   0  0  0  0  0  0  0  0  0  0  0  0
   20.9990  -36.9640    7.7100 N   0  0  1  0  0  0  0  0  0  0  0  0
   20.3650  -35.7850    8.3750 C   0  0  0  0  0  0  0  0  0  0  0  0
   21.7910  -37.8840    8.6150 C   0  0  0  0  0  0  0  0  0  0  0  0
   23.2370  -38.1550    8.2570 C   0  0  0  0  0  0  0  0  0  0  0  0
   24.0260  -37.1340    7.6960 C   0  0  0  0  0  0  0  0  0  0  0  0
   25.3570  -37.3720    7.3510 C   0  0  0  0  0  0  0  0  0  0  0  0
   25.9160  -38.6290    7.5640 C   0  0  0  0  0  0  0  0  0  0  0  0
   25.1530  -39.6460    8.1390 C   0  0  0  0  0  0  0  0  0  0  0  0
   25.7230  -40.8830    8.2760 O   0  0  0  0  0  0  0  0  0  0  0  0
   26.6190  -40.8990    9.3870 C   0  0  0  0  0  0  0  0  0  0  0  0
   23.8130  -39.4290    8.4770 C   0  0  0  0  0  0  0  0  0  0  0  0
   22.9840  -40.5030    9.1010 C   0  0  0  0  0  0  0  0  0  0  0  0
   23.0440  -40.6000   10.3650 O   0  0  0  0  0  0  0  0  0  0  0  0
   22.4680  -41.3530    8.3130 O   0  0  0  0  0  0  0  0  0  0  0  0
   19.1610  -33.4070    5.0710 C   0  0  0  0  0  0  0  0  0  0  0  0
   18.0030  -32.8450    5.6220 C   0  0  0  0  0  0  0  0  0  0  0  0
   13.6388  -33.0245    5.2982 H   0  0  0  0  0  0  0  0  0  0  0  0
   14.1259  -31.9194    3.9685 H   0  0  0  0  0  0  0  0  0  0  0  0
   14.6859  -33.6262    3.9685 H   0  0  0  0  0  0  0  0  0  0  0  0
   15.8218  -33.5286    3.1003 H   0  0  0  0  0  0  0  0  0  0  0  0
   17.8777  -34.5267    2.1142 H   0  0  0  0  0  0  0  0  0  0  0  0
   20.3827  -34.4041    2.1289 H   0  0  0  0  0  0  0  0  0  0  0  0
   21.2525  -34.1168    3.6838 H   0  0  0  0  0  0  0  0  0  0  0  0
   19.6850  -36.5850    3.1010 H   0  0  0  0  0  0  0  0  0  0  0  0
   22.2687  -38.4559    2.6917 H   0  0  0  0  0  0  0  0  0  0  0  0
   22.7909  -40.7329    1.9058 H   0  0  0  0  0  0  0  0  0  0  0  0
   22.7300  -43.1968    2.2577 H   0  0  0  0  0  0  0  0  0  0  0  0
   21.6878  -44.1398    4.3167 H   0  0  0  0  0  0  0  0  0  0  0  0
   20.7074  -42.6170    6.0259 H   0  0  0  0  0  0  0  0  0  0  0  0
   20.1760  -40.3619    6.7958 H   0  0  0  0  0  0  0  0  0  0  0  0
   19.4122  -36.9133    6.2953 H   0  0  0  0  0  0  0  0  0  0  0  0
   19.4495  -38.3567    7.4368 H   0  0  0  0  0  0  0  0  0  0  0  0
   21.6820  -36.5510    7.0530 H   0  0  0  0  0  0  0  0  0  0  0  0
   20.4280  -35.9022    9.4669 H   0  0  0  0  0  0  0  0  0  0  0  0
   20.8912  -34.8672    8.0737 H   0  0  0  0  0  0  0  0  0  0  0  0
   19.3092  -35.7180    8.0737 H   0  0  0  0  0  0  0  0  0  0  0  0
   21.7799  -37.4423    9.6223 H   0  0  0  0  0  0  0  0  0  0  0  0
   21.2946  -38.8609    8.5189 H   0  0  0  0  0  0  0  0  0  0  0  0
   23.5894  -36.1385    7.5277 H   0  0  0  0  0  0  0  0  0  0  0  0
   25.9640  -36.5670    6.9111 H   0  0  0  0  0  0  0  0  0  0  0  0
   26.9609  -38.8208    7.2786 H   0  0  0  0  0  0  0  0  0  0  0  0
   26.0421  -40.8887   10.3235 H   0  0  0  0  0  0  0  0  0  0  0  0
   27.2367  -41.8083    9.3468 H   0  0  0  0  0  0  0  0  0  0  0  0
   27.2687  -40.0123    9.3468 H   0  0  0  0  0  0  0  0  0  0  0  0
   20.1066  -33.3628    5.6313 H   0  0  0  0  0  0  0  0  0  0  0  0
   18.0430  -32.3679    6.6124 H   0  0  0  0  0  0  0  0  0  0  0  0
  1  2  1  0
  2  3  1  0
  3  4  2  0
  4  5  1  0
  5  6  2  0
  6  7  1  0
  7  8  1  0
  8  9  1  0
  9 10  2  0
  9 11  1  0
 11 12  2  0
 12 13  1  0
 13 14  2  0
 14 15  1  0
 15 16  2  0
 16 17  1  0
 17 18  2  0
 18 19  1  0
 19 20  2  0
 20 21  1  0
 21 22  1  0
 22 23  1  0
 22 24  1  0
 24 25  1  0
 25 26  2  0
 26 27  1  0
 27 28  2  0
 28 29  1  0
 29 30  1  0
 30 31  1  0
 29 32  2  0
 32 33  1  0
 33 34  2  0
 33 35  1  0
  6 36  1  0
 36 37  2  0
 37  3  1  0
 20 11  1  0
 32 25  1  0
 18 13  1  0
  1 38  1  0
  1 39  1  0
  1 40  1  0
  4 41  1  0
  5 42  1  0
  7 43  1  0
  7 44  1  0
  8 45  1  0
 12 46  1  0
 14 47  1  0
 15 48  1  0
 16 49  1  0
 17 50  1  0
 19 51  1  0
 21 52  1  0
 21 53  1  0
 22 54  1  6
 23 55  1  0
 23 56  1  0
 23 57  1  0
 24 58  1  0
 24 59  1  0
 26 60  1  0
 27 61  1  0
 28 62  1  0
 31 63  1  0
 31 64  1  0
 31 65  1  0
 36 66  1  0
 37 67  1  0
M  CHG  2  22   1  35  -1
M  END
>  <meeko>  (2) 
{"is_sidechain": [false], "free_energy": -7.758, "intermolecular_energy": -12.265, "internal_energy": -2.56}

$$$$
4cig_ligand
     RDKit          3D

 67 70  0  0  0  0  0  0  0  0999 V2000
   21.4650  -28.5550    7.5860 C   0  0  0  0  0  0  0  0  0  0  0  0
   20.6520  -29.2950    6.6840 O   0  0  0  0  0  0  0  0  0  0  0  0
   20.3670  -30.5870    7.0260 C   0  0  0  0  0  0  0  0  0  0  0  0
   20.8810  -30.9920    8.2600 C   0  0  0  0  0  0  0  0  0  0  0  0
   20.6660  -32.2870    8.7350 C   0  0  0  0  0  0  0  0  0  0  0  0
   19.9320  -33.2050    7.9740 C   0  0  0  0  0  0  0  0  0  0  0  0
   19.6640  -34.5900    8.4910 C   0  0  0  0  0  0  0  0  0  0  0  0
   20.1260  -35.5830    7.5480 N   0  0  0  0  0  0  0  0  0  0  0  0
   20.6080  -36.7960    7.9690 C   0  0  0  0  0  0  0  0  0  0  0  0
   20.7400  -37.1170    9.1470 O   0  0  0  0  0  0  0  0  0  0  0  0
   20.9580  -37.7670    6.9010 C   0  0  0  0  0  0  0  0  0  0  0  0
   19.9860  -38.6960    6.4940 C   0  0  0  0  0  0  0  0  0  0  0  0
   20.2510  -39.6120    5.4650 C   0  0  0  0  0  0  0  0  0  0  0  0
   19.2900  -40.5470    5.0460 C   0  0  0  0  0  0  0  0  0  0  0  0
   19.5720  -41.4450    4.0170 C   0  0  0  0  0  0  0  0  0  0  0  0
   20.8160  -41.4190    3.3910 C   0  0  0  0  0  0  0  0  0  0  0  0
   21.7800  -40.4950    3.7960 C   0  0  0  0  0  0  0  0  0  0  0  0
   21.5120  -39.5870    4.8320 C   0  0  0  0  0  0  0  0  0  0  0  0
   22.4750  -38.6520    5.2440 C   0  0  0  0  0  0  0  0  0  0  0  0
   22.2180  -37.7280    6.2740 C   0  0  0  0  0  0  0  0  0  0  0  0
   23.3180  -36.7680    6.6750 C   0  0  0  0  0  0  0  0  0  0  0  0
   24.6530  -37.4080    6.9820 N   0  0  1  0  0  0  0  0  0  0  0  0
   25.7910  -36.5450    6.5430 C   0  0  0  0  0  0  0  0  0  0  0  0
   24.7620  -37.9810    8.3790 C   0  0  0  0  0  0  0  0  0  0  0  0
   25.3510  -39.3680    8.5310 C   0  0  0  0  0  0  0  0  0  0  0  0
   26.7420  -39.5560    8.4260 C   0  0  0  0  0  0  0  0  0  0  0  0
   27.2990  -40.8290    8.5520 C   0  0  0  0  0  0  0  0  0  0  0  0
   26.4770  -41.9280    8.7870 C   0  0  0  0  0  0  0  0  0  0  0  0
   25.0980  -41.7550    8.9140 C   0  0  0  0  0  0  0  0  0  0  0  0
   24.3200  -42.8680    9.0840 O   0  0  0  0  0  0  0  0  0  0  0  0
   24.4810  -43.3920   10.4030 C   0  0  0  0  0  0  0  0  0  0  0  0
   24.5210  -40.4880    8.7750 C   0  0  0  0  0  0  0  0  0  0  0  0
   23.0490  -40.2830    8.9170 C   0  0  0  0  0  0  0  0  0  0  0  0
   22.6520  -39.7790   10.0110 O   0  0  0  0  0  0  0  0  0  0  0  0
   22.3130  -40.8220    8.0350 O   0  0  0  0  0  0  0  0  0  0  0  0
   19.4080  -32.7930    6.7410 C   0  0  0  0  0  0  0  0  0  0  0  0
   19.6270  -31.4940    6.2680 C   0  0  0  0  0  0  0  0  0  0  0  0
   21.1881  -28.8070    8.6203 H   0  0  0  0  0  0  0  0  0  0  0  0
   22.5224  -28.8070    7.4177 H   0  0  0  0  0  0  0  0  0  0  0  0
   21.3133  -27.4786    7.4177 H   0  0  0  0  0  0  0  0  0  0  0  0
   21.4628  -30.2813    8.8654 H   0  0  0  0  0  0  0  0  0  0  0  0
   21.0748  -32.5874    9.7110 H   0  0  0  0  0  0  0  0  0  0  0  0
   20.1902  -34.7271    9.4472 H   0  0  0  0  0  0  0  0  0  0  0  0
   18.5800  -34.7123    8.6323 H   0  0  0  0  0  0  0  0  0  0  0  0
   19.8750  -35.4530    6.5760 H   0  0  0  0  0  0  0  0  0  0  0  0
   19.0037  -38.7053    6.9889 H   0  0  0  0  0  0  0  0  0  0  0  0
   18.3048  -40.5711    5.5346 H   0  0  0  0  0  0  0  0  0  0  0  0
   18.8118  -42.1740    3.6996 H   0  0  0  0  0  0  0  0  0  0  0  0
   21.0383  -42.1261    2.5782 H   0  0  0  0  0  0  0  0  0  0  0  0
   22.7606  -40.4781    3.2979 H   0  0  0  0  0  0  0  0  0  0  0  0
   23.4569  -38.6414    4.7483 H   0  0  0  0  0  0  0  0  0  0  0  0
   23.4644  -36.0551    5.8502 H   0  0  0  0  0  0  0  0  0  0  0  0
   22.9841  -36.2961    7.6109 H   0  0  0  0  0  0  0  0  0  0  0  0
   24.6800  -38.2160    6.3380 H   0  0  0  0  0  0  0  0  0  0  0  0
   26.3130  -36.1491    7.4266 H   0  0  0  0  0  0  0  0  0  0  0  0
   26.4916  -37.1409    5.9396 H   0  0  0  0  0  0  0  0  0  0  0  0
   25.4062  -35.7096    5.9396 H   0  0  0  0  0  0  0  0  0  0  0  0
   25.3869  -37.2932    8.9676 H   0  0  0  0  0  0  0  0  0  0  0  0
   23.7204  -38.0845    8.7172 H   0  0  0  0  0  0  0  0  0  0  0  0
   27.3963  -38.6909    8.2428 H   0  0  0  0  0  0  0  0  0  0  0  0
   28.3872  -40.9644    8.4657 H   0  0  0  0  0  0  0  0  0  0  0  0
   26.9149  -42.9334    8.8726 H   0  0  0  0  0  0  0  0  0  0  0  0
   24.2411  -42.6111   11.1396 H   0  0  0  0  0  0  0  0  0  0  0  0
   23.8044  -44.2480   10.5426 H   0  0  0  0  0  0  0  0  0  0  0  0
   25.5215  -43.7204   10.5426 H   0  0  0  0  0  0  0  0  0  0  0  0
   18.8178  -33.4988    6.1381 H   0  0  0  0  0  0  0  0  0  0  0  0
   19.2142  -31.1876    5.2955 H   0  0  0  0  0  0  0  0  0  0  0  0
  1  2  1  0
  2  3  1  0
  3  4  2  0
  4  5  1  0
  5  6  2  0
  6  7  1  0
  7  8  1  0
  8  9  1  0
  9 10  2  0
  9 11  1  0
 11 12  2  0
 12 13  1  0
 13 14  2  0
 14 15  1  0
 15 16  2  0
 16 17  1  0
 17 18  2  0
 18 19  1  0
 19 20  2  0
 20 21  1  0
 21 22  1  0
 22 23  1  0
 22 24  1  0
 24 25  1  0
 25 26  2  0
 26 27  1  0
 27 28  2  0
 28 29  1  0
 29 30  1  0
 30 31  1  0
 29 32  2  0
 32 33  1  0
 33 34  2  0
 33 35  1  0
  6 36  1  0
 36 37  2  0
 37  3  1  0
 20 11  1  0
 32 25  1  0
 18 13  1  0
  1 38  1  0
  1 39  1  0
  1 40  1  0
  4 41  1  0
  5 42  1  0
  7 43  1  0
  7 44  1  0
  8 45  1  0
 12 46  1  0
 14 47  1  0
 15 48  1  0
 16 49  1  0
 17 50  1  0
 19 51  1  0
 21 52  1  0
 21 53  1  0
 22 54  1  6
 23 55  1  0
 23 56  1  0
 23 57  1  0
 24 58  1  0
 24 59  1  0
 26 60  1  0
 27 61  1  0
 28 62  1  0
 31 63  1  0
 31 64  1  0
 31 65  1  0
 36 66  1  0
 37 67  1  0
M  CHG  2  22   1  35  -1
M  END
>  <meeko>  (3) 
{"is_sidechain": [false], "free_energy": -7.501, "intermolecular_energy": -12.377, "internal_energy": -2.041}

$$$$
4cig_ligand
     RDKit          3D

 67 70  0  0  0  0  0  0  0  0999 V2000
   21.3060  -28.8990    7.3700 C   0  0  0  0  0  0  0  0  0  0  0  0
   20.3900  -29.6450    6.5780 O   0  0  0  0  0  0  0  0  0  0  0  0
   20.1870  -30.9500    6.9320 C   0  0  0  0  0  0  0  0  0  0  0  0
   20.7450  -31.3160    8.1590 C   0  0  0  0  0  0  0  0  0  0  0  0
   20.6140  -32.6190    8.6450 C   0  0  0  0  0  0  0  0  0  0  0  0
   19.9220  -33.5820    7.9020 C   0  0  0  0  0  0  0  0  0  0  0  0
   19.7440  -34.9770    8.4320 C   0  0  0  0  0  0  0  0  0  0  0  0
   20.2680  -35.9460    7.4970 N   0  0  0  0  0  0  0  0  0  0  0  0
   20.6980  -37.1800    7.9140 C   0  0  0  0  0  0  0  0  0  0  0  0
   20.7300  -37.5400    9.0870 O   0  0  0  0  0  0  0  0  0  0  0  0
   21.1210  -38.1220    6.8460 C   0  0  0  0  0  0  0  0  0  0  0  0
   20.2300  -39.1340    6.4540 C   0  0  0  0  0  0  0  0  0  0  0  0
   20.5640  -40.0280    5.4250 C   0  0  0  0  0  0  0  0  0  0  0  0
   19.6850  -41.0460    5.0210 C   0  0  0  0  0  0  0  0  0  0  0  0
   20.0330  -41.9210    3.9910 C   0  0  0  0  0  0  0  0  0  0  0  0
   21.2640  -41.7890    3.3520 C   0  0  0  0  0  0  0  0  0  0  0  0
   22.1460  -40.7810    3.7430 C   0  0  0  0  0  0  0  0  0  0  0  0
   21.8110  -39.8960    4.7780 C   0  0  0  0  0  0  0  0  0  0  0  0
   22.6920  -38.8770    5.1760 C   0  0  0  0  0  0  0  0  0  0  0  0
   22.3660  -37.9750    6.2050 C   0  0  0  0  0  0  0  0  0  0  0  0
   23.3810  -36.9190    6.5900 C   0  0  0  0  0  0  0  0  0  0  0  0
   24.7600  -37.4420    6.9230 N   0  0  1  0  0  0  0  0  0  0  0  0
   25.8200  -36.4340    6.6160 C   0  0  0  0  0  0  0  0  0  0  0  0
   24.8610  -38.1140    8.2760 C   0  0  0  0  0  0  0  0  0  0  0  0
   24.5090  -39.5840    8.3640 C   0  0  0  0  0  0  0  0  0  0  0  0
   23.3640  -39.9910    9.0740 C   0  0  0  0  0  0  0  0  0  0  0  0
   23.0330  -41.3430    9.1730 C   0  0  0  0  0  0  0  0  0  0  0  0
   23.8380  -42.3030    8.5650 C   0  0  0  0  0  0  0  0  0  0  0  0
   24.9660  -41.9140    7.8410 C   0  0  0  0  0  0  0  0  0  0  0  0
   25.7620  -42.8920    7.3100 O   0  0  0  0  0  0  0  0  0  0  0  0
   26.2660  -43.7390    8.3420 C   0  0  0  0  0  0  0  0  0  0  0  0
   25.3210  -40.5640    7.7430 C   0  0  0  0  0  0  0  0  0  0  0  0
   26.5180  -40.1280    6.9650 C   0  0  0  0  0  0  0  0  0  0  0  0
   26.3430  -39.9260    5.7250 O   0  0  0  0  0  0  0  0  0  0  0  0
   27.6390  -40.2060    7.5560 O   0  0  0  0  0  0  0  0  0  0  0  0
   19.3530  -33.2090    6.6770 C   0  0  0  0  0  0  0  0  0  0  0  0
   19.4880  -31.9030    6.1930 C   0  0  0  0  0  0  0  0  0  0  0  0
   21.0943  -29.0714    8.4356 H   0  0  0  0  0  0  0  0  0  0  0  0
   22.3332  -29.2207    7.1435 H   0  0  0  0  0  0  0  0  0  0  0  0
   21.1989  -27.8279    7.1435 H   0  0  0  0  0  0  0  0  0  0  0  0
   21.2946  -30.5687    8.7501 H   0  0  0  0  0  0  0  0  0  0  0  0
   21.0564  -32.8891    9.6152 H   0  0  0  0  0  0  0  0  0  0  0  0
   20.2788  -35.0715    9.3886 H   0  0  0  0  0  0  0  0  0  0  0  0
   18.6703  -35.1676    8.5765 H   0  0  0  0  0  0  0  0  0  0  0  0
   20.0980  -35.7810    6.5120 H   0  0  0  0  0  0  0  0  0  0  0  0
   19.2577  -39.2273    6.9599 H   0  0  0  0  0  0  0  0  0  0  0  0
   18.7117  -41.1549    5.5218 H   0  0  0  0  0  0  0  0  0  0  0  0
   19.3358  -42.7144    3.6838 H   0  0  0  0  0  0  0  0  0  0  0  0
   21.5401  -42.4784    2.5405 H   0  0  0  0  0  0  0  0  0  0  0  0
   23.1155  -40.6793    3.2334 H   0  0  0  0  0  0  0  0  0  0  0  0
   23.6636  -38.7817    4.6691 H   0  0  0  0  0  0  0  0  0  0  0  0
   23.4774  -36.2170    5.7486 H   0  0  0  0  0  0  0  0  0  0  0  0
   23.0012  -36.4522    7.5108 H   0  0  0  0  0  0  0  0  0  0  0  0
   24.9040  -38.1880    6.2220 H   0  0  0  0  0  0  0  0  0  0  0  0
   26.2344  -36.0399    7.5557 H   0  0  0  0  0  0  0  0  0  0  0  0
   26.6218  -36.9110    6.0332 H   0  0  0  0  0  0  0  0  0  0  0  0
   25.3839  -35.6093    6.0332 H   0  0  0  0  0  0  0  0  0  0  0  0
   25.9003  -38.0047    8.6195 H   0  0  0  0  0  0  0  0  0  0  0  0
   24.1012  -37.6106    8.8918 H   0  0  0  0  0  0  0  0  0  0  0  0
   22.7243  -39.2366    9.5552 H   0  0  0  0  0  0  0  0  0  0  0  0
   22.1364  -41.6504    9.7312 H   0  0  0  0  0  0  0  0  0  0  0  0
   23.5844  -43.3695    8.6555 H   0  0  0  0  0  0  0  0  0  0  0  0
   26.0120  -43.3121    9.3234 H   0  0  0  0  0  0  0  0  0  0  0  0
   25.8154  -44.7382    8.2490 H   0  0  0  0  0  0  0  0  0  0  0  0
   27.3591  -43.8196    8.2490 H   0  0  0  0  0  0  0  0  0  0  0  0
   18.7937  -33.9515    6.0889 H   0  0  0  0  0  0  0  0  0  0  0  0
   19.0411  -31.6276    5.2263 H   0  0  0  0  0  0  0  0  0  0  0  0
  1  2  1  0
  2  3  1  0
  3  4  2  0
  4  5  1  0
  5  6  2  0
  6  7  1  0
  7  8  1  0
  8  9  1  0
  9 10  2  0
  9 11  1  0
 11 12  2  0
 12 13  1  0
 13 14  2  0
 14 15  1  0
 15 16  2  0
 16 17  1  0
 17 18  2  0
 18 19  1  0
 19 20  2  0
 20 21  1  0
 21 22  1  0
 22 23  1  0
 22 24  1  0
 24 25  1  0
 25 26  2  0
 26 27  1  0
 27 28  2  0
 28 29  1  0
 29 30  1  0
 30 31  1  0
 29 32  2  0
 32 33  1  0
 33 34  2  0
 33 35  1  0
  6 36  1  0
 36 37  2  0
 37  3  1  0
 20 11  1  0
 32 25  1  0
 18 13  1  0
  1 38  1  0
  1 39  1  0
  1 40  1  0
  4 41  1  0
  5 42  1  0
  7 43  1  0
  7 44  1  0
  8 45  1  0
 12 46  1  0
 14 47  1  0
 15 48  1  0
 16 49  1  0
 17 50  1  0
 19 51  1  0
 21 52  1  0
 21 53  1  0
 22 54  1  6
 23 55  1  0
 23 56  1  0
 23 57  1  0
 24 58  1  0
 24 59  1  0
 26 60  1  0
 27 61  1  0
 28 62  1  0
 31 63  1  0
 31 64  1  0
 31 65  1  0
 36 66  1  0
 37 67  1  0
M  CHG  2  22   1  35  -1
M  END
>  <meeko>  (4) 
{"is_sidechain": [false], "free_energy": -7.481, "intermolecular_energy": -11.826, "internal_energy": -2.561}

$$$$
4cig_ligand
     RDKit          3D

 67 70  0  0  0  0  0  0  0  0999 V2000
   21.7550  -37.9660    2.1360 C   0  0  0  0  0  0  0  0  0  0  0  0
   20.7390  -38.6730    2.8350 O   0  0  0  0  0  0  0  0  0  0  0  0
   21.1190  -39.8050    3.5010 C   0  0  0  0  0  0  0  0  0  0  0  0
   22.4590  -40.1590    3.3320 C   0  0  0  0  0  0  0  0  0  0  0  0
   22.9840  -41.2930    3.9560 C   0  0  0  0  0  0  0  0  0  0  0  0
   22.1670  -42.0990    4.7580 C   0  0  0  0  0  0  0  0  0  0  0  0
   22.7300  -43.3020    5.4620 C   0  0  0  0  0  0  0  0  0  0  0  0
   22.7090  -43.1090    6.8930 N   0  0  0  0  0  0  0  0  0  0  0  0
   23.6520  -43.6870    7.7040 C   0  0  0  0  0  0  0  0  0  0  0  0
   24.5350  -44.4430    7.3090 O   0  0  0  0  0  0  0  0  0  0  0  0
   23.5810  -43.3330    9.1450 C   0  0  0  0  0  0  0  0  0  0  0  0
   22.6450  -43.9980    9.9540 C   0  0  0  0  0  0  0  0  0  0  0  0
   22.5610  -43.7280   11.3280 C   0  0  0  0  0  0  0  0  0  0  0  0
   21.6310  -44.3840   12.1520 C   0  0  0  0  0  0  0  0  0  0  0  0
   21.5670  -44.1050   13.5170 C   0  0  0  0  0  0  0  0  0  0  0  0
   22.4320  -43.1680   14.0770 C   0  0  0  0  0  0  0  0  0  0  0  0
   23.3610  -42.5100   13.2710 C   0  0  0  0  0  0  0  0  0  0  0  0
   23.4360  -42.7770   11.8970 C   0  0  0  0  0  0  0  0  0  0  0  0
   24.3700  -42.1220   11.0790 C   0  0  0  0  0  0  0  0  0  0  0  0
   24.4640  -42.3870    9.7010 C   0  0  0  0  0  0  0  0  0  0  0  0
   25.4830  -41.6190    8.8840 C   0  0  0  0  0  0  0  0  0  0  0  0
   25.0830  -40.2090    8.5150 N   0  0  1  0  0  0  0  0  0  0  0  0
   26.1870  -39.2370    8.7770 C   0  0  0  0  0  0  0  0  0  0  0  0
   24.4020  -40.0860    7.1680 C   0  0  0  0  0  0  0  0  0  0  0  0
   23.1580  -39.2270    7.0790 C   0  0  0  0  0  0  0  0  0  0  0  0
   21.9630  -39.6550    7.6860 C   0  0  0  0  0  0  0  0  0  0  0  0
   20.8060  -38.8800    7.6020 C   0  0  0  0  0  0  0  0  0  0  0  0
   20.8290  -37.6680    6.9160 C   0  0  0  0  0  0  0  0  0  0  0  0
   22.0110  -37.2200    6.3270 C   0  0  0  0  0  0  0  0  0  0  0  0
   21.9760  -36.0540    5.6110 O   0  0  0  0  0  0  0  0  0  0  0  0
   20.7160  -35.9100    4.9550 C   0  0  0  0  0  0  0  0  0  0  0  0
   23.1770  -37.9920    6.3880 C   0  0  0  0  0  0  0  0  0  0  0  0
   24.4530  -37.5240    5.7710 C   0  0  0  0  0  0  0  0  0  0  0  0
   25.1680  -36.7470    6.4740 O   0  0  0  0  0  0  0  0  0  0  0  0
   24.6080  -37.7640    4.5350 O   0  0  0  0  0  0  0  0  0  0  0  0
   20.8250  -41.7350    4.9350 C   0  0  0  0  0  0  0  0  0  0  0  0
   20.3030  -40.5980    4.3070 C   0  0  0  0  0  0  0  0  0  0  0  0
   22.4357  -37.4924    2.8587 H   0  0  0  0  0  0  0  0  0  0  0  0
   22.3208  -38.6665    1.5042 H   0  0  0  0  0  0  0  0  0  0  0  0
   21.2948  -37.1921    1.5042 H   0  0  0  0  0  0  0  0  0  0  0  0
   23.1094  -39.5370    2.6995 H   0  0  0  0  0  0  0  0  0  0  0  0
   24.0435  -41.5539    3.8168 H   0  0  0  0  0  0  0  0  0  0  0  0
   22.1261  -44.1855    5.2074 H   0  0  0  0  0  0  0  0  0  0  0  0
   23.7714  -43.4472    5.1388 H   0  0  0  0  0  0  0  0  0  0  0  0
   22.1280  -42.3610    7.2530 H   0  0  0  0  0  0  0  0  0  0  0  0
   21.9690  -44.7402    9.5043 H   0  0  0  0  0  0  0  0  0  0  0  0
   20.9459  -45.1258   11.7157 H   0  0  0  0  0  0  0  0  0  0  0  0
   20.8336  -44.6248   14.1510 H   0  0  0  0  0  0  0  0  0  0  0  0
   22.3826  -42.9472   15.1535 H   0  0  0  0  0  0  0  0  0  0  0  0
   24.0431  -41.7725   13.7191 H   0  0  0  0  0  0  0  0  0  0  0  0
   25.0473  -41.3808   11.5283 H   0  0  0  0  0  0  0  0  0  0  0  0
   26.4154  -41.5669    9.4653 H   0  0  0  0  0  0  0  0  0  0  0  0
   25.5862  -42.1648    7.9346 H   0  0  0  0  0  0  0  0  0  0  0  0
   24.3630  -39.9760    9.2210 H   0  0  0  0  0  0  0  0  0  0  0  0
   26.3214  -39.1186    9.8623 H   0  0  0  0  0  0  0  0  0  0  0  0
   27.1197  -39.6125    8.3308 H   0  0  0  0  0  0  0  0  0  0  0  0
   25.9327  -38.2643    8.3308 H   0  0  0  0  0  0  0  0  0  0  0  0
   25.1387  -39.6695    6.4653 H   0  0  0  0  0  0  0  0  0  0  0  0
   24.0513  -41.1038    6.9421 H   0  0  0  0  0  0  0  0  0  0  0  0
   21.9408  -40.6097    8.2319 H   0  0  0  0  0  0  0  0  0  0  0  0
   19.8762  -39.2259    8.0772 H   0  0  0  0  0  0  0  0  0  0  0  0
   19.9134  -37.0633    6.8387 H   0  0  0  0  0  0  0  0  0  0  0  0
   19.9190  -35.8189    5.7077 H   0  0  0  0  0  0  0  0  0  0  0  0
   20.7311  -35.0077    4.3260 H   0  0  0  0  0  0  0  0  0  0  0  0
   20.5271  -36.7924    4.3260 H   0  0  0  0  0  0  0  0  0  0  0  0
   20.1747  -42.3498    5.5746 H   0  0  0  0  0  0  0  0  0  0  0  0
   19.2459  -40.3293    4.4498 H   0  0  0  0  0  0  0  0  0  0  0  0
  1  2  1  0
  2  3  1  0
  3  4  2  0
  4  5  1  0
  5  6  2  0
  6  7  1  0
  7  8  1  0
  8  9  1  0
  9 10  2  0
  9 11  1  0
 11 12  2  0
 12 13  1  0
 13 14  2  0
 14 15  1  0
 15 16  2  0
 16 17  1  0
 17 18  2  0
 18 19  1  0
 19 20  2  0
 20 21  1  0
 21 22  1  0
 22 23  1  0
 22 24  1  0
 24 25  1  0
 25 26  2  0
 26 27  1  0
 27 28  2  0
 28 29  1  0
 29 30  1  0
 30 31  1  0
 29 32  2  0
 32 33  1  0
 33 34  2  0
 33 35  1  0
  6 36  1  0
 36 37  2  0
 37  3  1  0
 20 11  1  0
 32 25  1  0
 18 13  1  0
  1 38  1  0
  1 39  1  0
  1 40  1  0
  4 41  1  0
  5 42  1  0
  7 43  1  0
  7 44  1  0
  8 45  1  0
 12 46  1  0
 14 47  1  0
 15 48  1  0
 16 49  1  0
 17 50  1  0
 19 51  1  0
 21 52  1  0
 21 53  1  0
 22 54  1  1
 23 55  1  0
 23 56  1  0
 23 57  1  0
 24 58  1  0
 24 59  1  0
 26 60  1  0
 27 61  1  0
 28 62  1  0
 31 63  1  0
 31 64  1  0
 31 65  1  0
 36 66  1  0
 37 67  1  0
M  CHG  2  22   1  35  -1
M  END
>  <meeko>  (5) 
{"is_sidechain": [false], "free_energy": -7.46, "intermolecular_energy": -10.591, "internal_energy": -3.762}

$$$$
4cig_ligand
     RDKit          3D

 67 70  0  0  0  0  0  0  0  0999 V2000
   21.8390  -38.6610    9.8330 C   0  0  0  0  0  0  0  0  0  0  0  0
   22.7930  -38.0220    8.9940 O   0  0  0  0  0  0  0  0  0  0  0  0
   23.6110  -38.8330    8.2580 C   0  0  0  0  0  0  0  0  0  0  0  0
   23.5200  -40.1910    8.5700 C   0  0  0  0  0  0  0  0  0  0  0  0
   24.2990  -41.1340    7.8950 C   0  0  0  0  0  0  0  0  0  0  0  0
   25.1900  -40.7270    6.8950 C   0  0  0  0  0  0  0  0  0  0  0  0
   26.0060  -41.7370    6.1380 C   0  0  0  0  0  0  0  0  0  0  0  0
   25.8640  -41.5410    4.7140 N   0  0  0  0  0  0  0  0  0  0  0  0
   25.9840  -42.5870    3.8340 C   0  0  0  0  0  0  0  0  0  0  0  0
   26.2720  -43.7340    4.1610 O   0  0  0  0  0  0  0  0  0  0  0  0
   25.7180  -42.2750    2.4060 C   0  0  0  0  0  0  0  0  0  0  0  0
   26.7560  -41.7250    1.6360 C   0  0  0  0  0  0  0  0  0  0  0  0
   26.5700  -41.4450    0.2740 C   0  0  0  0  0  0  0  0  0  0  0  0
   27.5970  -40.8960   -0.5120 C   0  0  0  0  0  0  0  0  0  0  0  0
   27.3940  -40.6300   -1.8660 C   0  0  0  0  0  0  0  0  0  0  0  0
   26.1630  -40.9110   -2.4530 C   0  0  0  0  0  0  0  0  0  0  0  0
   25.1340  -41.4580   -1.6850 C   0  0  0  0  0  0  0  0  0  0  0  0
   25.3220  -41.7280   -0.3220 C   0  0  0  0  0  0  0  0  0  0  0  0
   24.2940  -42.2810    0.4570 C   0  0  0  0  0  0  0  0  0  0  0  0
   24.4710  -42.5670    1.8240 C   0  0  0  0  0  0  0  0  0  0  0  0
   23.3030  -43.1410    2.6000 C   0  0  0  0  0  0  0  0  0  0  0  0
   22.2170  -42.1510    2.9560 N   0  0  1  0  0  0  0  0  0  0  0  0
   20.8550  -42.7390    2.7740 C   0  0  0  0  0  0  0  0  0  0  0  0
   22.4490  -41.4150    4.2590 C   0  0  0  0  0  0  0  0  0  0  0  0
   22.4040  -39.9020    4.2340 C   0  0  0  0  0  0  0  0  0  0  0  0
   23.3990  -39.1790    3.5500 C   0  0  0  0  0  0  0  0  0  0  0  0
   23.3770  -37.7840    3.5290 C   0  0  0  0  0  0  0  0  0  0  0  0
   22.3610  -37.0940    4.1860 C   0  0  0  0  0  0  0  0  0  0  0  0
   21.3550  -37.7970    4.8500 C   0  0  0  0  0  0  0  0  0  0  0  0
   20.4100  -37.0800    5.5330 O   0  0  0  0  0  0  0  0  0  0  0  0
   21.0000  -36.4090    6.6460 C   0  0  0  0  0  0  0  0  0  0  0  0
   21.3700  -39.1950    4.8950 C   0  0  0  0  0  0  0  0  0  0  0  0
   20.2980  -39.9630    5.5940 C   0  0  0  0  0  0  0  0  0  0  0  0
   19.2350  -40.1760    4.9350 O   0  0  0  0  0  0  0  0  0  0  0  0
   20.4500  -40.1450    6.8410 O   0  0  0  0  0  0  0  0  0  0  0  0
   25.2700  -39.3650    6.5750 C   0  0  0  0  0  0  0  0  0  0  0  0
   24.4880  -38.4230    7.2550 C   0  0  0  0  0  0  0  0  0  0  0  0
   22.1014  -38.4853   10.8867 H   0  0  0  0  0  0  0  0  0  0  0  0
   20.8390  -38.2498    9.6306 H   0  0  0  0  0  0  0  0  0  0  0  0
   21.8387  -39.7422    9.6306 H   0  0  0  0  0  0  0  0  0  0  0  0
   22.8265  -40.5223    9.3569 H   0  0  0  0  0  0  0  0  0  0  0  0
   24.2119  -42.2004    8.1503 H   0  0  0  0  0  0  0  0  0  0  0  0
   27.0650  -41.6265    6.4143 H   0  0  0  0  0  0  0  0  0  0  0  0
   25.6490  -42.7454    6.3945 H   0  0  0  0  0  0  0  0  0  0  0  0
   25.4510  -40.6690    4.4030 H   0  0  0  0  0  0  0  0  0  0  0  0
   27.7269  -41.5111    2.1068 H   0  0  0  0  0  0  0  0  0  0  0  0
   28.5722  -40.6734   -0.0543 H   0  0  0  0  0  0  0  0  0  0  0  0
   28.2059  -40.1985   -2.4698 H   0  0  0  0  0  0  0  0  0  0  0  0
   26.0017  -40.7021   -3.5209 H   0  0  0  0  0  0  0  0  0  0  0  0
   24.1643  -41.6799   -2.1544 H   0  0  0  0  0  0  0  0  0  0  0  0
   23.3234  -42.4969   -0.0134 H   0  0  0  0  0  0  0  0  0  0  0  0
   22.8503  -43.9388    1.9928 H   0  0  0  0  0  0  0  0  0  0  0  0
   23.7167  -43.4964    3.5553 H   0  0  0  0  0  0  0  0  0  0  0  0
   22.2920  -41.4400    2.2090 H   0  0  0  0  0  0  0  0  0  0  0  0
   20.4049  -42.9333    3.7587 H   0  0  0  0  0  0  0  0  0  0  0  0
   20.2229  -42.0336    2.2147 H   0  0  0  0  0  0  0  0  0  0  0  0
   20.9348  -43.6828    2.2147 H   0  0  0  0  0  0  0  0  0  0  0  0
   21.6800  -41.7542    4.9686 H   0  0  0  0  0  0  0  0  0  0  0  0
   23.4869  -41.6563    4.5318 H   0  0  0  0  0  0  0  0  0  0  0  0
   24.2019  -39.7189    3.0268 H   0  0  0  0  0  0  0  0  0  0  0  0
   24.1618  -37.2294    2.9938 H   0  0  0  0  0  0  0  0  0  0  0  0
   22.3516  -35.9941    4.1814 H   0  0  0  0  0  0  0  0  0  0  0  0
   20.6175  -36.8440    7.5812 H   0  0  0  0  0  0  0  0  0  0  0  0
   22.0931  -36.5260    6.6073 H   0  0  0  0  0  0  0  0  0  0  0  0
   20.7441  -35.3399    6.6073 H   0  0  0  0  0  0  0  0  0  0  0  0
   25.9546  -39.0321    5.7809 H   0  0  0  0  0  0  0  0  0  0  0  0
   24.5660  -37.3566    6.9969 H   0  0  0  0  0  0  0  0  0  0  0  0
  1  2  1  0
  2  3  1  0
  3  4  2  0
  4  5  1  0
  5  6  2  0
  6  7  1  0
  7  8  1  0
  8  9  1  0
  9 10  2  0
  9 11  1  0
 11 12  2  0
 12 13  1  0
 13 14  2  0
 14 15  1  0
 15 16  2  0
 16 17  1  0
 17 18  2  0
 18 19  1  0
 19 20  2  0
 20 21  1  0
 21 22  1  0
 22 23  1  0
 22 24  1  0
 24 25  1  0
 25 26  2  0
 26 27  1  0
 27 28  2  0
 28 29  1  0
 29 30  1  0
 30 31  1  0
 29 32  2  0
 32 33  1  0
 33 34  2  0
 33 35  1  0
  6 36  1  0
 36 37  2  0
 37  3  1  0
 20 11  1  0
 32 25  1  0
 18 13  1  0
  1 38  1  0
  1 39  1  0
  1 40  1  0
  4 41  1  0
  5 42  1  0
  7 43  1  0
  7 44  1  0
  8 45  1  0
 12 46  1  0
 14 47  1  0
 15 48  1  0
 16 49  1  0
 17 50  1  0
 19 51  1  0
 21 52  1  0
 21 53  1  0
 22 54  1  6
 23 55  1  0
 23 56  1  0
 23 57  1  0
 24 58  1  0
 24 59  1  0
 26 60  1  0
 27 61  1  0
 28 62  1  0
 31 63  1  0
 31 64  1  0
 31 65  1  0
 36 66  1  0
 37 67  1  0
M  CHG  2  22   1  35  -1
M  END
>  <meeko>  (6) 
{"is_sidechain": [false], "free_energy": -7.382, "intermolecular_energy": -10.601, "internal_energy": -3.628}

$$$$
4cig_ligand
     RDKit          3D

 67 70  0  0  0  0  0  0  0  0999 V2000
   28.8170  -41.7290   -4.0890 C   0  0  0  0  0  0  0  0  0  0  0  0
   27.7550  -40.9170   -3.6040 O   0  0  0  0  0  0  0  0  0  0  0  0
   27.1100  -41.3500   -2.4790 C   0  0  0  0  0  0  0  0  0  0  0  0
   27.7540  -42.3860   -1.7990 C   0  0  0  0  0  0  0  0  0  0  0  0
   27.2070  -42.9250   -0.6330 C   0  0  0  0  0  0  0  0  0  0  0  0
   25.9960  -42.4350   -0.1300 C   0  0  0  0  0  0  0  0  0  0  0  0
   25.4160  -42.9840    1.1440 C   0  0  0  0  0  0  0  0  0  0  0  0
   25.3060  -41.9440    2.1410 N   0  0  0  0  0  0  0  0  0  0  0  0
   24.4920  -42.0900    3.2350 C   0  0  0  0  0  0  0  0  0  0  0  0
   23.7630  -43.0580    3.4310 O   0  0  0  0  0  0  0  0  0  0  0  0
   24.5410  -40.9940    4.2380 C   0  0  0  0  0  0  0  0  0  0  0  0
   25.4350  -41.1110    5.3150 C   0  0  0  0  0  0  0  0  0  0  0  0
   25.5480  -40.0900    6.2700 C   0  0  0  0  0  0  0  0  0  0  0  0
   26.4360  -40.1910    7.3540 C   0  0  0  0  0  0  0  0  0  0  0  0
   26.5380  -39.1620    8.2900 C   0  0  0  0  0  0  0  0  0  0  0  0
   25.7550  -38.0180    8.1540 C   0  0  0  0  0  0  0  0  0  0  0  0
   24.8700  -37.9040    7.0820 C   0  0  0  0  0  0  0  0  0  0  0  0
   24.7540  -38.9310    6.1350 C   0  0  0  0  0  0  0  0  0  0  0  0
   23.8670  -38.8240    5.0520 C   0  0  0  0  0  0  0  0  0  0  0  0
   23.7480  -39.8410    4.0870 C   0  0  0  0  0  0  0  0  0  0  0  0
   22.7500  -39.6580    2.9620 C   0  0  0  0  0  0  0  0  0  0  0  0
   21.9790  -38.3580    2.9890 N   0  0  1  0  0  0  0  0  0  0  0  0
   21.9020  -37.7350    1.6330 C   0  0  0  0  0  0  0  0  0  0  0  0
   20.6770  -38.4220    3.7600 C   0  0  0  0  0  0  0  0  0  0  0  0
   20.7340  -38.2400    5.2620 C   0  0  0  0  0  0  0  0  0  0  0  0
   20.5800  -39.3510    6.1120 C   0  0  0  0  0  0  0  0  0  0  0  0
   20.6190  -39.1970    7.4980 C   0  0  0  0  0  0  0  0  0  0  0  0
   20.8140  -37.9340    8.0520 C   0  0  0  0  0  0  0  0  0  0  0  0
   20.9890  -36.8260    7.2220 C   0  0  0  0  0  0  0  0  0  0  0  0
   21.1180  -35.5950    7.8070 O   0  0  0  0  0  0  0  0  0  0  0  0
   20.0780  -35.3850    8.7620 C   0  0  0  0  0  0  0  0  0  0  0  0
   20.9380  -36.9600    5.8310 C   0  0  0  0  0  0  0  0  0  0  0  0
   21.1320  -35.7870    4.9280 C   0  0  0  0  0  0  0  0  0  0  0  0
   20.0880  -35.1410    4.6090 O   0  0  0  0  0  0  0  0  0  0  0  0
   22.2750  -35.6670    4.3900 O   0  0  0  0  0  0  0  0  0  0  0  0
   25.3580  -41.3870   -0.8080 C   0  0  0  0  0  0  0  0  0  0  0  0
   25.9090  -40.8510   -1.9770 C   0  0  0  0  0  0  0  0  0  0  0  0
   29.3718  -42.1532   -3.2391 H   0  0  0  0  0  0  0  0  0  0  0  0
   28.4048  -42.5444   -4.7015 H   0  0  0  0  0  0  0  0  0  0  0  0
   29.4959  -41.1175   -4.7015 H   0  0  0  0  0  0  0  0  0  0  0  0
   28.7040  -42.7823   -2.1869 H   0  0  0  0  0  0  0  0  0  0  0  0
   27.7297  -43.7379   -0.1076 H   0  0  0  0  0  0  0  0  0  0  0  0
   24.4167  -43.3954    0.9387 H   0  0  0  0  0  0  0  0  0  0  0  0
   26.0807  -43.7730    1.5257 H   0  0  0  0  0  0  0  0  0  0  0  0
   26.0080  -41.2140    2.1310 H   0  0  0  0  0  0  0  0  0  0  0  0
   26.0544  -42.0149    5.4107 H   0  0  0  0  0  0  0  0  0  0  0  0
   27.0577  -41.0916    7.4658 H   0  0  0  0  0  0  0  0  0  0  0  0
   27.2363  -39.2538    9.1350 H   0  0  0  0  0  0  0  0  0  0  0  0
   25.8345  -37.2055    8.8912 H   0  0  0  0  0  0  0  0  0  0  0  0
   24.2557  -36.9974    6.9784 H   0  0  0  0  0  0  0  0  0  0  0  0
   23.2479  -37.9200    4.9552 H   0  0  0  0  0  0  0  0  0  0  0  0
   23.2981  -39.7086    2.0096 H   0  0  0  0  0  0  0  0  0  0  0  0
   22.0040  -40.4572    3.0835 H   0  0  0  0  0  0  0  0  0  0  0  0
   22.5980  -37.7280    3.5270 H   0  0  0  0  0  0  0  0  0  0  0  0
   21.7677  -36.6481    1.7359 H   0  0  0  0  0  0  0  0  0  0  0  0
   22.8322  -37.9390    1.0824 H   0  0  0  0  0  0  0  0  0  0  0  0
   21.0495  -38.1593    1.0824 H   0  0  0  0  0  0  0  0  0  0  0  0
   20.0200  -37.6360    3.3594 H   0  0  0  0  0  0  0  0  0  0  0  0
   20.3238  -39.4543    3.6202 H   0  0  0  0  0  0  0  0  0  0  0  0
   20.4274  -40.3507    5.6793 H   0  0  0  0  0  0  0  0  0  0  0  0
   20.4959  -40.0723    8.1528 H   0  0  0  0  0  0  0  0  0  0  0  0
   20.8301  -37.8099    9.1449 H   0  0  0  0  0  0  0  0  0  0  0  0
   20.4910  -35.4684    9.7781 H   0  0  0  0  0  0  0  0  0  0  0  0
   19.6486  -34.3820    8.6219 H   0  0  0  0  0  0  0  0  0  0  0  0
   19.2930  -36.1428    8.6219 H   0  0  0  0  0  0  0  0  0  0  0  0
   24.4134  -40.9814   -0.4165 H   0  0  0  0  0  0  0  0  0  0  0  0
   25.3930  -40.0334   -2.5016 H   0  0  0  0  0  0  0  0  0  0  0  0
  1  2  1  0
  2  3  1  0
  3  4  2  0
  4  5  1  0
  5  6  2  0
  6  7  1  0
  7  8  1  0
  8  9  1  0
  9 10  2  0
  9 11  1  0
 11 12  2  0
 12 13  1  0
 13 14  2  0
 14 15  1  0
 15 16  2  0
 16 17  1  0
 17 18  2  0
 18 19  1  0
 19 20  2  0
 20 21  1  0
 21 22  1  0
 22 23  1  0
 22 24  1  0
 24 25  1  0
 25 26  2  0
 26 27  1  0
 27 28  2  0
 28 29  1  0
 29 30  1  0
 30 31  1  0
 29 32  2  0
 32 33  1  0
 33 34  2  0
 33 35  1  0
  6 36  1  0
 36 37  2  0
 37  3  1  0
 20 11  1  0
 32 25  1  0
 18 13  1  0
  1 38  1  0
  1 39  1  0
  1 40  1  0
  4 41  1  0
  5 42  1  0
  7 43  1  0
  7 44  1  0
  8 45  1  0
 12 46  1  0
 14 47  1  0
 15 48  1  0
 16 49  1  0
 17 50  1  0
 19 51  1  0
 21 52  1  0
 21 53  1  0
 22 54  1  1
 23 55  1  0
 23 56  1  0
 23 57  1  0
 24 58  1  0
 24 59  1  0
 26 60  1  0
 27 61  1  0
 28 62  1  0
 31 63  1  0
 31 64  1  0
 31 65  1  0
 36 66  1  0
 37 67  1  0
M  CHG  2  22   1  35  -1
M  END
>  <meeko>  (7) 
{"is_sidechain": [false], "free_energy": -7.348, "intermolecular_energy": -12.075, "internal_energy": -2.101}

$$$$
4cig_ligand
     RDKit          3D

 67 70  0  0  0  0  0  0  0  0999 V2000
   20.7360  -35.6020    3.4290 C   0  0  0  0  0  0  0  0  0  0  0  0
   20.4710  -35.8900    4.7960 O   0  0  0  0  0  0  0  0  0  0  0  0
   21.4950  -36.4260    5.5250 C   0  0  0  0  0  0  0  0  0  0  0  0
   21.1310  -36.8870    6.7920 C   0  0  0  0  0  0  0  0  0  0  0  0
   22.0770  -37.4590    7.6450 C   0  0  0  0  0  0  0  0  0  0  0  0
   23.4130  -37.5740    7.2410 C   0  0  0  0  0  0  0  0  0  0  0  0
   24.4320  -38.2190    8.1370 C   0  0  0  0  0  0  0  0  0  0  0  0
   23.9060  -39.4370    8.7100 N   0  0  0  0  0  0  0  0  0  0  0  0
   24.7380  -40.4330    9.1560 C   0  0  0  0  0  0  0  0  0  0  0  0
   25.9610  -40.4060    9.0590 O   0  0  0  0  0  0  0  0  0  0  0  0
   24.0790  -41.5900    9.8140 C   0  0  0  0  0  0  0  0  0  0  0  0
   23.6870  -41.4620   11.1570 C   0  0  0  0  0  0  0  0  0  0  0  0
   23.0280  -42.5110   11.8170 C   0  0  0  0  0  0  0  0  0  0  0  0
   22.6290  -42.4000   13.1590 C   0  0  0  0  0  0  0  0  0  0  0  0
   21.9700  -43.4530   13.7950 C   0  0  0  0  0  0  0  0  0  0  0  0
   21.7000  -44.6280   13.0980 C   0  0  0  0  0  0  0  0  0  0  0  0
   22.0900  -44.7510   11.7640 C   0  0  0  0  0  0  0  0  0  0  0  0
   22.7560  -43.7030   11.1120 C   0  0  0  0  0  0  0  0  0  0  0  0
   23.1490  -43.8170    9.7690 C   0  0  0  0  0  0  0  0  0  0  0  0
   23.8080  -42.7710    9.0980 C   0  0  0  0  0  0  0  0  0  0  0  0
   24.2200  -42.9830    7.6550 C   0  0  0  0  0  0  0  0  0  0  0  0
   23.1370  -42.7330    6.6320 N   0  0  1  0  0  0  0  0  0  0  0  0
   22.3130  -43.9560    6.3930 C   0  0  0  0  0  0  0  0  0  0  0  0
   22.3640  -41.4480    6.8430 C   0  0  0  0  0  0  0  0  0  0  0  0
   21.8750  -40.7070    5.6170 C   0  0  0  0  0  0  0  0  0  0  0  0
   20.5330  -40.2910    5.5360 C   0  0  0  0  0  0  0  0  0  0  0  0
   20.0650  -39.6170    4.4070 C   0  0  0  0  0  0  0  0  0  0  0  0
   20.9290  -39.3470    3.3500 C   0  0  0  0  0  0  0  0  0  0  0  0
   22.2680  -39.7350    3.4240 C   0  0  0  0  0  0  0  0  0  0  0  0
   23.0690  -39.5040    2.3380 O   0  0  0  0  0  0  0  0  0  0  0  0
   22.6890  -38.2910    1.6880 C   0  0  0  0  0  0  0  0  0  0  0  0
   22.7500  -40.4250    4.5410 C   0  0  0  0  0  0  0  0  0  0  0  0
   24.1810  -40.8390    4.6420 C   0  0  0  0  0  0  0  0  0  0  0  0
   24.9940  -39.9620    5.0670 O   0  0  0  0  0  0  0  0  0  0  0  0
   24.4930  -41.9420    4.0980 O   0  0  0  0  0  0  0  0  0  0  0  0
   23.7730  -37.1210    5.9650 C   0  0  0  0  0  0  0  0  0  0  0  0
   22.8210  -36.5470    5.1140 C   0  0  0  0  0  0  0  0  0  0  0  0
   21.4794  -34.7940    3.3619 H   0  0  0  0  0  0  0  0  0  0  0  0
   21.1277  -36.5027    2.9338 H   0  0  0  0  0  0  0  0  0  0  0  0
   19.8059  -35.2864    2.9338 H   0  0  0  0  0  0  0  0  0  0  0  0
   20.0855  -36.7984    7.1223 H   0  0  0  0  0  0  0  0  0  0  0  0
   21.7718  -37.8206    8.6380 H   0  0  0  0  0  0  0  0  0  0  0  0
   25.3321  -38.4547    7.5502 H   0  0  0  0  0  0  0  0  0  0  0  0
   24.6806  -37.5222    8.9511 H   0  0  0  0  0  0  0  0  0  0  0  0
   22.9300  -39.4390    8.9820 H   0  0  0  0  0  0  0  0  0  0  0  0
   23.8991  -40.5281   11.6981 H   0  0  0  0  0  0  0  0  0  0  0  0
   22.8380  -41.4738   13.7144 H   0  0  0  0  0  0  0  0  0  0  0  0
   21.6638  -43.3549   14.8470 H   0  0  0  0  0  0  0  0  0  0  0  0
   21.1799  -45.4581   13.5985 H   0  0  0  0  0  0  0  0  0  0  0  0
   21.8726  -45.6805   11.2175 H   0  0  0  0  0  0  0  0  0  0  0  0
   22.9357  -44.7499    9.2266 H   0  0  0  0  0  0  0  0  0  0  0  0
   25.0570  -42.3034    7.4370 H   0  0  0  0  0  0  0  0  0  0  0  0
   24.4827  -44.0475    7.5665 H   0  0  0  0  0  0  0  0  0  0  0  0
   23.6680  -42.6060    5.7530 H   0  0  0  0  0  0  0  0  0  0  0  0
   22.0181  -44.3938    7.3581 H   0  0  0  0  0  0  0  0  0  0  0  0
   21.4123  -43.6855    5.8225 H   0  0  0  0  0  0  0  0  0  0  0  0
   22.9020  -44.6892    5.8225 H   0  0  0  0  0  0  0  0  0  0  0  0
   21.4811  -41.6928    7.4518 H   0  0  0  0  0  0  0  0  0  0  0  0
   23.0881  -40.7635    7.3089 H   0  0  0  0  0  0  0  0  0  0  0  0
   19.8467  -40.4989    6.3701 H   0  0  0  0  0  0  0  0  0  0  0  0
   19.0133  -39.2992    4.3527 H   0  0  0  0  0  0  0  0  0  0  0  0
   20.5564  -38.8272    2.4550 H   0  0  0  0  0  0  0  0  0  0  0  0
   22.4503  -37.5289    2.4444 H   0  0  0  0  0  0  0  0  0  0  0  0
   23.5191  -37.9363    1.0594 H   0  0  0  0  0  0  0  0  0  0  0  0
   21.8049  -38.4733    1.0594 H   0  0  0  0  0  0  0  0  0  0  0  0
   24.8156  -37.2174    5.6280 H   0  0  0  0  0  0  0  0  0  0  0  0
   23.1207  -36.1903    4.1175 H   0  0  0  0  0  0  0  0  0  0  0  0
  1  2  1  0
  2  3  1  0
  3  4  2  0
  4  5  1  0
  5  6  2  0
  6  7  1  0
  7  8  1  0
  8  9  1  0
  9 10  2  0
  9 11  1  0
 11 12  2  0
 12 13  1  0
 13 14  2  0
 14 15  1  0
 15 16  2  0
 16 17  1  0
 17 18  2  0
 18 19  1  0
 19 20  2  0
 20 21  1  0
 21 22  1  0
 22 23  1  0
 22 24  1  0
 24 25  1  0
 25 26  2  0
 26 27  1  0
 27 28  2  0
 28 29  1  0
 29 30  1  0
 30 31  1  0
 29 32  2  0
 32 33  1  0
 33 34  2  0
 33 35  1  0
  6 36  1  0
 36 37  2  0
 37  3  1  0
 20 11  1  0
 32 25  1  0
 18 13  1  0
  1 38  1  0
  1 39  1  0
  1 40  1  0
  4 41  1  0
  5 42  1  0
  7 43  1  0
  7 44  1  0
  8 45  1  0
 12 46  1  0
 14 47  1  0
 15 48  1  0
 16 49  1  0
 17 50  1  0
 19 51  1  0
 21 52  1  0
 21 53  1  0
 22 54  1  6
 23 55  1  0
 23 56  1  0
 23 57  1  0
 24 58  1  0
 24 59  1  0
 26 60  1  0
 27 61  1  0
 28 62  1  0
 31 63  1  0
 31 64  1  0
 31 65  1  0
 36 66  1  0
 37 67  1  0
M  CHG  2  22   1  35  -1
M  END
>  <meeko>  (8) 
{"is_sidechain": [false], "free_energy": -7.227, "intermolecular_energy": -11.031, "internal_energy": -2.953}

$$$$
4cig_ligand
     RDKit          3D

 67 70  0  0  0  0  0  0  0  0999 V2000
   22.0020  -37.9240    1.7800 C   0  0  0  0  0  0  0  0  0  0  0  0
   21.1790  -38.6630    2.6750 O   0  0  0  0  0  0  0  0  0  0  0  0
   21.7500  -39.7410    3.2920 C   0  0  0  0  0  0  0  0  0  0  0  0
   20.9310  -40.3790    4.2270 C   0  0  0  0  0  0  0  0  0  0  0  0
   21.3860  -41.4940    4.9330 C   0  0  0  0  0  0  0  0  0  0  0  0
   22.6780  -41.9880    4.7160 C   0  0  0  0  0  0  0  0  0  0  0  0
   23.1650  -43.2090    5.4440 C   0  0  0  0  0  0  0  0  0  0  0  0
   23.0040  -43.0480    6.8710 N   0  0  0  0  0  0  0  0  0  0  0  0
   24.0530  -43.2400    7.7330 C   0  0  0  0  0  0  0  0  0  0  0  0
   25.1720  -43.6100    7.3900 O   0  0  0  0  0  0  0  0  0  0  0  0
   23.7840  -42.9470    9.1650 C   0  0  0  0  0  0  0  0  0  0  0  0
   22.9160  -43.7970    9.8710 C   0  0  0  0  0  0  0  0  0  0  0  0
   22.6560  -43.5870   11.2340 C   0  0  0  0  0  0  0  0  0  0  0  0
   21.7910  -44.4270   11.9550 C   0  0  0  0  0  0  0  0  0  0  0  0
   21.5500  -44.2050   13.3110 C   0  0  0  0  0  0  0  0  0  0  0  0
   22.1710  -43.1440   13.9640 C   0  0  0  0  0  0  0  0  0  0  0  0
   23.0340  -42.3030   13.2600 C   0  0  0  0  0  0  0  0  0  0  0  0
   23.2840  -42.5110   11.8960 C   0  0  0  0  0  0  0  0  0  0  0  0
   24.1530  -41.6710   11.1810 C   0  0  0  0  0  0  0  0  0  0  0  0
   24.4220  -41.8740    9.8150 C   0  0  0  0  0  0  0  0  0  0  0  0
   25.3530  -40.9080    9.1100 C   0  0  0  0  0  0  0  0  0  0  0  0
   24.6970  -39.6600    8.5660 N   0  0  1  0  0  0  0  0  0  0  0  0
   25.5860  -38.4670    8.6990 C   0  0  0  0  0  0  0  0  0  0  0  0
   24.0360  -39.8420    7.2160 C   0  0  0  0  0  0  0  0  0  0  0  0
   23.2880  -38.6640    6.6300 C   0  0  0  0  0  0  0  0  0  0  0  0
   23.8610  -37.9160    5.5840 C   0  0  0  0  0  0  0  0  0  0  0  0
   23.1870  -36.8210    5.0410 C   0  0  0  0  0  0  0  0  0  0  0  0
   21.9360  -36.4600    5.5330 C   0  0  0  0  0  0  0  0  0  0  0  0
   21.3450  -37.2040    6.5560 C   0  0  0  0  0  0  0  0  0  0  0  0
   20.1420  -36.7800    7.0510 O   0  0  0  0  0  0  0  0  0  0  0  0
   20.3240  -35.6500    7.9040 C   0  0  0  0  0  0  0  0  0  0  0  0
   22.0120  -38.2960    7.1220 C   0  0  0  0  0  0  0  0  0  0  0  0
   21.3920  -39.1080    8.2100 C   0  0  0  0  0  0  0  0  0  0  0  0
   20.4600  -39.8970    7.8650 O   0  0  0  0  0  0  0  0  0  0  0  0
   21.6940  -38.7880    9.4000 O   0  0  0  0  0  0  0  0  0  0  0  0
   23.4930  -41.3530    3.7690 C   0  0  0  0  0  0  0  0  0  0  0  0
   23.0340  -40.2340    3.0650 C   0  0  0  0  0  0  0  0  0  0  0  0
   22.6995  -37.2977    2.3556 H   0  0  0  0  0  0  0  0  0  0  0  0
   22.5715  -38.6198    1.1462 H   0  0  0  0  0  0  0  0  0  0  0  0
   21.3713  -37.2832    1.1462 H   0  0  0  0  0  0  0  0  0  0  0  0
   19.9153  -39.9981    4.4090 H   0  0  0  0  0  0  0  0  0  0  0  0
   20.7267  -41.9866    5.6629 H   0  0  0  0  0  0  0  0  0  0  0  0
   22.5862  -44.0832    5.1112 H   0  0  0  0  0  0  0  0  0  0  0  0
   24.2326  -43.3525    5.2214 H   0  0  0  0  0  0  0  0  0  0  0  0
   22.1690  -42.5730    7.1930 H   0  0  0  0  0  0  0  0  0  0  0  0
   22.4345  -44.6371    9.3491 H   0  0  0  0  0  0  0  0  0  0  0  0
   21.2988  -45.2683   11.4451 H   0  0  0  0  0  0  0  0  0  0  0  0
   20.8691  -44.8685   13.8643 H   0  0  0  0  0  0  0  0  0  0  0  0
   21.9818  -42.9687   15.0333 H   0  0  0  0  0  0  0  0  0  0  0  0
   23.5238  -41.4672   13.7812 H   0  0  0  0  0  0  0  0  0  0  0  0
   24.6363  -40.8319   11.7028 H   0  0  0  0  0  0  0  0  0  0  0  0
   26.1287  -40.5996    9.8263 H   0  0  0  0  0  0  0  0  0  0  0  0
   25.7488  -41.4487    8.2376 H   0  0  0  0  0  0  0  0  0  0  0  0
   23.9300  -39.4860    9.2380 H   0  0  0  0  0  0  0  0  0  0  0  0
   25.7490  -38.2482    9.7646 H   0  0  0  0  0  0  0  0  0  0  0  0
   26.5520  -38.6738    8.2152 H   0  0  0  0  0  0  0  0  0  0  0  0
   25.1116  -37.6005    8.2152 H   0  0  0  0  0  0  0  0  0  0  0  0
   24.8238  -40.1190    6.5000 H   0  0  0  0  0  0  0  0  0  0  0  0
   23.2609  -40.6032    7.3884 H   0  0  0  0  0  0  0  0  0  0  0  0
   24.8492  -38.1972    5.1910 H   0  0  0  0  0  0  0  0  0  0  0  0
   23.6445  -36.2433    4.2243 H   0  0  0  0  0  0  0  0  0  0  0  0
   21.4123  -35.5875    5.1153 H   0  0  0  0  0  0  0  0  0  0  0  0
   20.2722  -35.9716    8.9547 H   0  0  0  0  0  0  0  0  0  0  0  0
   21.3067  -35.1966    7.7073 H   0  0  0  0  0  0  0  0  0  0  0  0
   19.5333  -34.9110    7.7073 H   0  0  0  0  0  0  0  0  0  0  0  0
   24.5051  -41.7386    3.5769 H   0  0  0  0  0  0  0  0  0  0  0  0
   23.6884  -39.7420    2.3303 H   0  0  0  0  0  0  0  0  0  0  0  0
  1  2  1  0
  2  3  1  0
  3  4  2  0
  4  5  1  0
  5  6  2  0
  6  7  1  0
  7  8  1  0
  8  9  1  0
  9 10  2  0
  9 11  1  0
 11 12  2  0
 12 13  1  0
 13 14  2  0
 14 15  1  0
 15 16  2  0
 16 17  1  0
 17 18  2  0
 18 19  1  0
 19 20  2  0
 20 21  1  0
 21 22  1  0
 22 23  1  0
 22 24  1  0
 24 25  1  0
 25 26  2  0
 26 27  1  0
 27 28  2  0
 28 29  1  0
 29 30  1  0
 30 31  1  0
 29 32  2  0
 32 33  1  0
 33 34  2  0
 33 35  1  0
  6 36  1  0
 36 37  2  0
 37  3  1  0
 20 11  1  0
 32 25  1  0
 18 13  1  0
  1 38  1  0
  1 39  1  0
  1 40  1  0
  4 41  1  0
  5 42  1  0
  7 43  1  0
  7 44  1  0
  8 45  1  0
 12 46  1  0
 14 47  1  0
 15 48  1  0
 16 49  1  0
 17 50  1  0
 19 51  1  0
 21 52  1  0
 21 53  1  0
 22 54  1  1
 23 55  1  0
 23 56  1  0
 23 57  1  0
 24 58  1  0
 24 59  1  0
 26 60  1  0
 27 61  1  0
 28 62  1  0
 31 63  1  0
 31 64  1  0
 31 65  1  0
 36 66  1  0
 37 67  1  0
M  CHG  2  22   1  35  -1
M  END
>  <meeko>  (9) 
{"is_sidechain": [false], "free_energy": -7.169, "intermolecular_energy": -10.664, "internal_energy": -3.229}

$$$$
