3uri_ligand
     RDKit          3D

131134  0  0  0  0  0  0  0  0999 V2000
    3.3340   21.6730   23.3300 C   0  0  0  0  0  0  0  0  0  0  0  0
    2.4720   22.7910   22.1930 S   0  0  0  0  0  0  0  0  0  0  0  0
    3.5540   24.2400   22.3910 C   0  0  0  0  0  0  0  0  0  0  0  0
    2.9030   25.4600   21.7350 C   0  0  0  0  0  0  0  0  0  0  0  0
    2.8700   25.4340   20.1990 C   0  0  2  0  0  0  0  0  0  0  0  0
    3.7180   26.5170   19.5950 N   0  0  0  0  0  0  0  0  0  0  0  0
    4.1920   27.6320   20.4430 C   0  0  0  0  0  0  0  0  0  0  0  0
    4.7030   28.8700   19.6400 C   0  0  2  0  0  0  0  0  0  0  0  0
    5.4140   29.9690   20.4730 C   0  0  0  0  0  0  0  0  0  0  0  0
    6.7860   30.4130   20.0110 C   0  0  0  0  0  0  0  0  0  0  0  0
    7.5070   31.4220   20.6590 C   0  0  0  0  0  0  0  0  0  0  0  0
    8.7820   31.7800   20.2130 C   0  0  0  0  0  0  0  0  0  0  0  0
    9.3440   31.1440   19.1080 C   0  0  0  0  0  0  0  0  0  0  0  0
    8.6270   30.1570   18.4380 C   0  0  0  0  0  0  0  0  0  0  0  0
    7.3550   29.7970   18.8830 C   0  0  0  0  0  0  0  0  0  0  0  0
    3.6500   29.4890   18.8120 N   0  0  0  0  0  0  0  0  0  0  0  0
    3.3890   29.0760   17.5180 C   0  0  0  0  0  0  0  0  0  0  0  0
    3.9210   28.0820   17.0300 O   0  0  0  0  0  0  0  0  0  0  0  0
    2.5210   30.0380   16.6860 C   0  0  2  0  0  0  0  0  0  0  0  0
    1.5150   29.2030   15.8850 C   0  0  0  0  0  0  0  0  0  0  0  0
    0.9440   28.1960   16.7380 O   0  0  0  0  0  0  0  0  0  0  0  0
    3.3340   30.8460   15.7700 N   0  0  0  0  0  0  0  0  0  0  0  0
    3.3080   32.2190   15.7990 C   0  0  0  0  0  0  0  0  0  0  0  0
    2.5800   32.8310   16.5810 O   0  0  0  0  0  0  0  0  0  0  0  0
    4.1790   32.9370   14.7270 C   0  0  2  0  0  0  0  0  0  0  0  0
    5.4340   33.6290   15.2950 C   0  0  0  0  0  0  0  0  0  0  0  0
    6.2810   32.8310   16.3120 C   0  0  0  0  0  0  0  0  0  0  0  0
    7.6730   32.4920   15.7810 C   0  0  0  0  0  0  0  0  0  0  0  0
    6.3820   33.4960   17.6850 C   0  0  0  0  0  0  0  0  0  0  0  0
    3.3030   33.7870   13.9200 N   0  0  0  0  0  0  0  0  0  0  0  0
    3.7190   34.3560   12.7320 C   0  0  0  0  0  0  0  0  0  0  0  0
    4.7590   34.0390   12.1580 O   0  0  0  0  0  0  0  0  0  0  0  0
    2.8670   35.5370   12.2220 C   0  0  2  0  0  0  0  0  0  0  0  0
    1.9450   35.0520   11.0780 C   0  0  0  0  0  0  0  0  0  0  0  0
    0.5260   34.8750   11.5150 C   0  0  0  0  0  0  0  0  0  0  0  0
   -0.4570   33.9760   11.1620 C   0  0  0  0  0  0  0  0  0  0  0  0
   -1.5480   34.1120   11.9720 N   0  0  0  0  0  0  0  0  0  0  0  0
   -1.3080   35.1730   12.7080 C   0  0  0  0  0  0  0  0  0  0  0  0
   -0.0660   35.6830   12.4570 N   0  0  0  0  0  0  0  0  0  0  0  0
    3.6200   36.7810   11.9090 N   0  0  0  0  0  0  0  0  0  0  0  0
    3.5790   37.8950   12.7310 C   0  0  0  0  0  0  0  0  0  0  0  0
    2.6870   38.0830   13.5500 O   0  0  0  0  0  0  0  0  0  0  0  0
    4.7000   38.9200   12.4440 C   0  0  2  0  0  0  0  0  0  0  0  0
    4.4800   40.2690   13.1160 C   0  0  0  0  0  0  0  0  0  0  0  0
    3.6960   41.0640   12.0880 C   0  0  0  0  0  0  0  0  0  0  0  0
    4.3670   40.6980   10.7830 C   0  0  0  0  0  0  0  0  0  0  0  0
    4.7490   39.2570   10.9550 N   0  0  0  0  0  0  0  0  0  0  0  0
    1.4230   25.5230   19.6350 C   0  0  0  0  0  0  0  0  0  0  0  0
    1.1670   25.5600   18.4350 O   0  0  0  0  0  0  0  0  0  0  0  0
    0.4240   25.4710   20.5930 N   0  0  0  0  0  0  0  0  0  0  0  0
   -0.9870   25.2210   20.2640 C   0  0  1  0  0  0  0  0  0  0  0  0
   -1.6410   24.0930   21.0520 C   0  0  0  0  0  0  0  0  0  0  0  0
   -1.7720   26.5530   20.3260 C   0  0  0  0  0  0  0  0  0  0  0  0
   -1.8820   27.1950   21.3690 O   0  0  0  0  0  0  0  0  0  0  0  0
   -2.3670   26.9510   19.1420 N   0  0  0  0  0  0  0  0  0  0  0  0
   -3.6390   27.7210   19.1790 C   0  0  1  0  0  0  0  0  0  0  0  0
   -3.8220   28.5420   17.9040 C   0  0  0  0  0  0  0  0  0  0  0  0
   -3.0010   29.7790   17.8680 C   0  0  0  0  0  0  0  0  0  0  0  0
   -3.1780   31.0440   18.3800 C   0  0  0  0  0  0  0  0  0  0  0  0
   -2.0800   31.7890   18.0130 N   0  0  0  0  0  0  0  0  0  0  0  0
   -1.2330   31.0480   17.2960 C   0  0  0  0  0  0  0  0  0  0  0  0
   -1.7800   29.8350   17.2020 N   0  0  0  0  0  0  0  0  0  0  0  0
   -4.8720   26.7890   19.3860 C   0  0  0  0  0  0  0  0  0  0  0  0
   -5.2230   26.0580   18.4280 O   0  0  0  0  0  0  0  0  0  0  0  0
   -5.3690   26.7980   20.5590 O   0  0  0  0  0  0  0  0  0  0  0  0
    3.1112   21.9620   24.3677 H   0  0  0  0  0  0  0  0  0  0  0  0
    2.9957   20.6409   23.1561 H   0  0  0  0  0  0  0  0  0  0  0  0
    4.4182   21.7377   23.1561 H   0  0  0  0  0  0  0  0  0  0  0  0
    3.7077   24.4386   23.4620 H   0  0  0  0  0  0  0  0  0  0  0  0
    4.5233   24.0406   21.9108 H   0  0  0  0  0  0  0  0  0  0  0  0
    1.8666   25.5292   22.0970 H   0  0  0  0  0  0  0  0  0  0  0  0
    3.5229   26.3250   22.0136 H   0  0  0  0  0  0  0  0  0  0  0  0
    3.2918   24.4598   19.9110 H   0  0  0  0  0  0  0  0  0  0  0  0
    4.5090   26.0700   19.1240 H   0  0  0  0  0  0  0  0  0  0  0  0
    3.2330   26.8630   18.7180 H   0  0  0  0  0  0  0  0  0  0  0  0
    3.3596   27.9560   21.0849 H   0  0  0  0  0  0  0  0  0  0  0  0
    5.0485   27.2513   21.0186 H   0  0  0  0  0  0  0  0  0  0  0  0
    5.4735   28.4269   18.9919 H   0  0  0  0  0  0  0  0  0  0  0  0
    4.7629   30.8556   20.4741 H   0  0  0  0  0  0  0  0  0  0  0  0
    5.5829   29.5108   21.4587 H   0  0  0  0  0  0  0  0  0  0  0  0
    7.0670   31.9371   21.5257 H   0  0  0  0  0  0  0  0  0  0  0  0
    9.3443   32.5672   20.7365 H   0  0  0  0  0  0  0  0  0  0  0  0
   10.3520   31.4213   18.7659 H   0  0  0  0  0  0  0  0  0  0  0  0
    9.0631   29.6612   17.5582 H   0  0  0  0  0  0  0  0  0  0  0  0
    6.7903   29.0216   18.3446 H   0  0  0  0  0  0  0  0  0  0  0  0
    3.4910   30.4850   18.9450 H   0  0  0  0  0  0  0  0  0  0  0  0
    2.0037   30.7313   17.3655 H   0  0  0  0  0  0  0  0  0  0  0  0
    0.7167   29.8567   15.5036 H   0  0  0  0  0  0  0  0  0  0  0  0
    2.0280   28.7209   15.0398 H   0  0  0  0  0  0  0  0  0  0  0  0
    0.4510   27.5890   16.1500 H   0  0  0  0  0  0  0  0  0  0  0  0
    3.9260   30.3310   15.1270 H   0  0  0  0  0  0  0  0  0  0  0  0
    4.6323   32.1880   14.0610 H   0  0  0  0  0  0  0  0  0  0  0  0
    6.0864   33.8801   14.4457 H   0  0  0  0  0  0  0  0  0  0  0  0
    5.0511   34.4917   15.8598 H   0  0  0  0  0  0  0  0  0  0  0  0
    5.7278   31.8904   16.4507 H   0  0  0  0  0  0  0  0  0  0  0  0
    8.3572   32.3254   16.6260 H   0  0  0  0  0  0  0  0  0  0  0  0
    7.6194   31.5806   15.1673 H   0  0  0  0  0  0  0  0  0  0  0  0
    8.0445   33.3259   15.1673 H   0  0  0  0  0  0  0  0  0  0  0  0
    6.2664   32.7347   18.4705 H   0  0  0  0  0  0  0  0  0  0  0  0
    7.3641   33.9810   17.7862 H   0  0  0  0  0  0  0  0  0  0  0  0
    5.5882   34.2507   17.7862 H   0  0  0  0  0  0  0  0  0  0  0  0
    2.6740   34.3770   14.4660 H   0  0  0  0  0  0  0  0  0  0  0  0
    2.2389   35.8663   13.0629 H   0  0  0  0  0  0  0  0  0  0  0  0
    1.9730   35.7930   10.2655 H   0  0  0  0  0  0  0  0  0  0  0  0
    2.3152   34.0705   10.7469 H   0  0  0  0  0  0  0  0  0  0  0  0
   -0.3742   33.2489   10.3407 H   0  0  0  0  0  0  0  0  0  0  0  0
   -2.0171   35.5970   13.4342 H   0  0  0  0  0  0  0  0  0  0  0  0
    0.3400   36.4980   12.8990 H   0  0  0  0  0  0  0  0  0  0  0  0
    4.5160   36.5770   11.4810 H   0  0  0  0  0  0  0  0  0  0  0  0
    5.6126   38.4370   12.8232 H   0  0  0  0  0  0  0  0  0  0  0  0
    3.9029   40.1540   14.0453 H   0  0  0  0  0  0  0  0  0  0  0  0
    5.4220   40.7589   13.4035 H   0  0  0  0  0  0  0  0  0  0  0  0
    2.6368   40.7671   12.0838 H   0  0  0  0  0  0  0  0  0  0  0  0
    3.6987   42.1461   12.2858 H   0  0  0  0  0  0  0  0  0  0  0  0
    3.6713   40.8189    9.9396 H   0  0  0  0  0  0  0  0  0  0  0  0
    5.2328   41.3391   10.5609 H   0  0  0  0  0  0  0  0  0  0  0  0
    4.0900   38.6520   10.4420 H   0  0  0  0  0  0  0  0  0  0  0  0
    5.6850   39.0830   10.5660 H   0  0  0  0  0  0  0  0  0  0  0  0
    0.6500   25.4430   21.5800 H   0  0  0  0  0  0  0  0  0  0  0  0
   -1.0175   24.8377   19.2334 H   0  0  0  0  0  0  0  0  0  0  0  0
   -1.5293   24.2856   22.1292 H   0  0  0  0  0  0  0  0  0  0  0  0
   -2.7099   24.0400   20.7979 H   0  0  0  0  0  0  0  0  0  0  0  0
   -1.1559   23.1390   20.7979 H   0  0  0  0  0  0  0  0  0  0  0  0
   -2.3440   26.2450   18.4010 H   0  0  0  0  0  0  0  0  0  0  0  0
   -3.5736   28.4043   20.0385 H   0  0  0  0  0  0  0  0  0  0  0  0
   -3.5434   27.9150   17.0442 H   0  0  0  0  0  0  0  0  0  0  0  0
   -4.8762   28.8545   17.8712 H   0  0  0  0  0  0  0  0  0  0  0  0
   -4.0364   31.3944   18.9719 H   0  0  0  0  0  0  0  0  0  0  0  0
   -1.9320   32.7670   18.2490 H   0  0  0  0  0  0  0  0  0  0  0  0
   -0.2736   31.3731   16.8673 H   0  0  0  0  0  0  0  0  0  0  0  0
   -1.3640   29.0500   16.7050 H   0  0  0  0  0  0  0  0  0  0  0  0
  1  2  1  0
  2  3  1  0
  3  4  1  0
  4  5  1  0
  5  6  1  0
  6  7  1  0
  7  8  1  0
  8  9  1  0
  9 10  1  0
 10 11  2  0
 11 12  1  0
 12 13  2  0
 13 14  1  0
 14 15  2  0
  8 16  1  0
 16 17  1  0
 17 18  2  0
 17 19  1  0
 19 20  1  0
 20 21  1  0
 19 22  1  0
 22 23  1  0
 23 24  2  0
 23 25  1  0
 25 26  1  0
 26 27  1  0
 27 28  1  0
 27 29  1  0
 25 30  1  0
 30 31  1  0
 31 32  2  0
 31 33  1  0
 33 34  1  0
 34 35  1  0
 35 36  2  0
 36 37  1  0
 37 38  2  0
 38 39  1  0
 33 40  1  0
 40 41  1  0
 41 42  2  0
 41 43  1  0
 43 44  1  0
 44 45  1  0
 45 46  1  0
 46 47  1  0
  5 48  1  0
 48 49  2  0
 48 50  1  0
 50 51  1  0
 51 52  1  0
 51 53  1  0
 53 54  2  0
 53 55  1  0
 55 56  1  0
 56 57  1  0
 57 58  1  0
 58 59  2  0
 59 60  1  0
 60 61  2  0
 61 62  1  0
 56 63  1  0
 63 64  2  0
 63 65  1  0
 15 10  1  0
 39 35  1  0
 47 43  1  0
 62 58  1  0
  1 66  1  0
  1 67  1  0
  1 68  1  0
  3 69  1  0
  3 70  1  0
  4 71  1  0
  4 72  1  0
  5 73  1  6
  6 74  1  0
  6 75  1  0
  7 76  1  0
  7 77  1  0
  8 78  1  6
  9 79  1  0
  9 80  1  0
 11 81  1  0
 12 82  1  0
 13 83  1  0
 14 84  1  0
 15 85  1  0
 16 86  1  0
 19 87  1  1
 20 88  1  0
 20 89  1  0
 21 90  1  0
 22 91  1  0
 25 92  1  6
 26 93  1  0
 26 94  1  0
 27 95  1  0
 28 96  1  0
 28 97  1  0
 28 98  1  0
 29 99  1  0
 29100  1  0
 29101  1  0
 30102  1  0
 33103  1  1
 34104  1  0
 34105  1  0
 36106  1  0
 38107  1  0
 39108  1  0
 40109  1  0
 43110  1  1
 44111  1  0
 44112  1  0
 45113  1  0
 45114  1  0
 46115  1  0
 46116  1  0
 47117  1  0
 47118  1  0
 50119  1  0
 51120  1  6
 52121  1  0
 52122  1  0
 52123  1  0
 55124  1  0
 56125  1  1
 57126  1  0
 57127  1  0
 59128  1  0
 60129  1  0
 61130  1  0
 62131  1  0
M  CHG  4   6   1  47   1  60   1  65  -1
M  END
>  <meeko>  (1) 
{"is_sidechain": [false], "free_energy": -8.353, "intermolecular_energy": -22.27, "internal_energy": -5.657}

$$$$
3uri_ligand
     RDKit          3D

131134  0  0  0  0  0  0  0  0999 V2000
    6.7360   26.0670   25.4480 C   0  0  0  0  0  0  0  0  0  0  0  0
    6.0600   25.0490   24.1100 S   0  0  0  0  0  0  0  0  0  0  0  0
    6.2620   26.2440   22.7530 C   0  0  0  0  0  0  0  0  0  0  0  0
    4.9080   26.4960   22.0850 C   0  0  0  0  0  0  0  0  0  0  0  0
    4.6720   25.7230   20.7780 C   0  0  2  0  0  0  0  0  0  0  0  0
    4.8440   26.5930   19.5660 N   0  0  0  0  0  0  0  0  0  0  0  0
    6.0570   27.4280   19.4320 C   0  0  0  0  0  0  0  0  0  0  0  0
    6.1780   28.1620   18.0590 C   0  0  2  0  0  0  0  0  0  0  0  0
    7.5450   28.8360   17.7710 C   0  0  0  0  0  0  0  0  0  0  0  0
    7.9730   29.9590   18.6920 C   0  0  0  0  0  0  0  0  0  0  0  0
    7.1450   30.4600   19.7020 C   0  0  0  0  0  0  0  0  0  0  0  0
    7.5950   31.4790   20.5460 C   0  0  0  0  0  0  0  0  0  0  0  0
    8.8690   32.0170   20.3820 C   0  0  0  0  0  0  0  0  0  0  0  0
    9.6940   31.5460   19.3650 C   0  0  0  0  0  0  0  0  0  0  0  0
    9.2470   30.5280   18.5220 C   0  0  0  0  0  0  0  0  0  0  0  0
    5.0940   29.1370   17.8340 N   0  0  0  0  0  0  0  0  0  0  0  0
    3.9040   28.7920   17.2180 C   0  0  0  0  0  0  0  0  0  0  0  0
    3.6230   27.6270   16.9470 O   0  0  0  0  0  0  0  0  0  0  0  0
    3.0410   29.9790   16.7520 C   0  0  2  0  0  0  0  0  0  0  0  0
    1.7800   29.4190   16.0820 C   0  0  0  0  0  0  0  0  0  0  0  0
    0.6770   30.3090   16.3220 O   0  0  0  0  0  0  0  0  0  0  0  0
    3.7650   30.8350   15.8050 N   0  0  0  0  0  0  0  0  0  0  0  0
    3.5690   32.1930   15.7620 C   0  0  0  0  0  0  0  0  0  0  0  0
    2.7560   32.7490   16.5020 O   0  0  0  0  0  0  0  0  0  0  0  0
    4.3650   32.9600   14.6650 C   0  0  2  0  0  0  0  0  0  0  0  0
    5.6380   33.6570   15.1810 C   0  0  0  0  0  0  0  0  0  0  0  0
    6.4900   32.8930   16.2200 C   0  0  0  0  0  0  0  0  0  0  0  0
    7.8490   32.4650   15.6680 C   0  0  0  0  0  0  0  0  0  0  0  0
    6.6640   33.6390   17.5430 C   0  0  0  0  0  0  0  0  0  0  0  0
    3.4290   33.8180   13.9360 N   0  0  0  0  0  0  0  0  0  0  0  0
    3.7500   34.3920   12.7210 C   0  0  0  0  0  0  0  0  0  0  0  0
    4.7370   34.0730   12.0620 O   0  0  0  0  0  0  0  0  0  0  0  0
    2.8630   35.5790   12.2890 C   0  0  2  0  0  0  0  0  0  0  0  0
    1.8400   35.1000   11.2310 C   0  0  0  0  0  0  0  0  0  0  0  0
    0.4250   35.2340   11.6950 C   0  0  0  0  0  0  0  0  0  0  0  0
   -0.5310   36.2100   11.5150 C   0  0  0  0  0  0  0  0  0  0  0  0
   -1.7410   35.7920   11.9930 N   0  0  0  0  0  0  0  0  0  0  0  0
   -1.5060   34.6480   12.5940 C   0  0  0  0  0  0  0  0  0  0  0  0
   -0.2010   34.2720   12.4540 N   0  0  0  0  0  0  0  0  0  0  0  0
    3.5950   36.8170   11.9090 N   0  0  0  0  0  0  0  0  0  0  0  0
    3.6020   37.9450   12.7120 C   0  0  0  0  0  0  0  0  0  0  0  0
    2.7610   38.1470   13.5820 O   0  0  0  0  0  0  0  0  0  0  0  0
    4.7030   38.9650   12.3400 C   0  0  2  0  0  0  0  0  0  0  0  0
    4.5200   40.3270   12.9990 C   0  0  0  0  0  0  0  0  0  0  0  0
    3.6760   41.1020   12.0030 C   0  0  0  0  0  0  0  0  0  0  0  0
    4.2690   40.7100   10.6680 C   0  0  0  0  0  0  0  0  0  0  0  0
    4.6630   39.2730   10.8450 N   0  0  0  0  0  0  0  0  0  0  0  0
    3.2780   25.0350   20.7390 C   0  0  0  0  0  0  0  0  0  0  0  0
    2.4530   25.1270   21.6440 O   0  0  0  0  0  0  0  0  0  0  0  0
    2.9920   24.3720   19.5560 N   0  0  0  0  0  0  0  0  0  0  0  0
    1.6360   23.9370   19.1910 C   0  0  1  0  0  0  0  0  0  0  0  0
    0.9890   22.9630   20.1680 C   0  0  0  0  0  0  0  0  0  0  0  0
    0.7630   25.1770   18.8860 C   0  0  0  0  0  0  0  0  0  0  0  0
    0.6250   25.6100   17.7430 O   0  0  0  0  0  0  0  0  0  0  0  0
    0.1790   25.7810   19.9850 N   0  0  0  0  0  0  0  0  0  0  0  0
   -0.0540   27.2500   19.9810 C   0  0  1  0  0  0  0  0  0  0  0  0
    1.2070   28.0050   19.5590 C   0  0  0  0  0  0  0  0  0  0  0  0
    1.9140   28.6620   20.6870 C   0  0  0  0  0  0  0  0  0  0  0  0
    3.0210   29.4740   20.7620 C   0  0  0  0  0  0  0  0  0  0  0  0
    3.2220   29.7690   22.0930 N   0  0  0  0  0  0  0  0  0  0  0  0
    2.2930   29.1770   22.8450 C   0  0  0  0  0  0  0  0  0  0  0  0
    1.5000   28.5060   22.0080 N   0  0  0  0  0  0  0  0  0  0  0  0
   -1.2390   27.6440   19.0490 C   0  0  0  0  0  0  0  0  0  0  0  0
   -1.0180   28.4750   18.1350 O   0  0  0  0  0  0  0  0  0  0  0  0
   -2.3270   27.0120   19.2560 O   0  0  0  0  0  0  0  0  0  0  0  0
    6.4492   25.6351   26.4181 H   0  0  0  0  0  0  0  0  0  0  0  0
    7.8328   26.0951   25.3690 H   0  0  0  0  0  0  0  0  0  0  0  0
    6.3364   27.0888   25.3690 H   0  0  0  0  0  0  0  0  0  0  0  0
    6.6542   27.1903   23.1539 H   0  0  0  0  0  0  0  0  0  0  0  0
    6.9656   25.8387   22.0110 H   0  0  0  0  0  0  0  0  0  0  0  0
    4.1188   26.2114   22.7965 H   0  0  0  0  0  0  0  0  0  0  0  0
    4.8924   27.5628   21.8171 H   0  0  0  0  0  0  0  0  0  0  0  0
    5.4425   24.9383   20.7554 H   0  0  0  0  0  0  0  0  0  0  0  0
    4.7260   26.0050   18.7370 H   0  0  0  0  0  0  0  0  0  0  0  0
    3.9560   27.1600   19.4410 H   0  0  0  0  0  0  0  0  0  0  0  0
    6.0441   28.1861   20.2289 H   0  0  0  0  0  0  0  0  0  0  0  0
    6.9191   26.7487   19.5053 H   0  0  0  0  0  0  0  0  0  0  0  0
    6.0865   27.3330   17.3418 H   0  0  0  0  0  0  0  0  0  0  0  0
    8.3166   28.0537   17.8230 H   0  0  0  0  0  0  0  0  0  0  0  0
    7.4245   29.3093   16.7854 H   0  0  0  0  0  0  0  0  0  0  0  0
    6.1330   30.0492   19.8328 H   0  0  0  0  0  0  0  0  0  0  0  0
    6.9395   31.8580   21.3439 H   0  0  0  0  0  0  0  0  0  0  0  0
    9.2224   32.8123   21.0547 H   0  0  0  0  0  0  0  0  0  0  0  0
   10.6970   31.9757   19.2260 H   0  0  0  0  0  0  0  0  0  0  0  0
    9.8999   30.1661   17.7141 H   0  0  0  0  0  0  0  0  0  0  0  0
    5.3750   30.0940   17.6340 H   0  0  0  0  0  0  0  0  0  0  0  0
    2.7818   30.5974   17.6240 H   0  0  0  0  0  0  0  0  0  0  0  0
    1.9494   29.3281   14.9989 H   0  0  0  0  0  0  0  0  0  0  0  0
    1.5505   28.4280   16.5006 H   0  0  0  0  0  0  0  0  0  0  0  0
   -0.1010   29.9020   15.8920 H   0  0  0  0  0  0  0  0  0  0  0  0
    4.4280   30.3660   15.1970 H   0  0  0  0  0  0  0  0  0  0  0  0
    4.7921   32.2402   13.9512 H   0  0  0  0  0  0  0  0  0  0  0  0
    6.2801   33.8595   14.3111 H   0  0  0  0  0  0  0  0  0  0  0  0
    5.2768   34.5500   15.7121 H   0  0  0  0  0  0  0  0  0  0  0  0
    5.9063   31.9863   16.4370 H   0  0  0  0  0  0  0  0  0  0  0  0
    8.5325   32.2498   16.5026 H   0  0  0  0  0  0  0  0  0  0  0  0
    7.7266   31.5619   15.0520 H   0  0  0  0  0  0  0  0  0  0  0  0
    8.2662   33.2752   15.0520 H   0  0  0  0  0  0  0  0  0  0  0  0
    6.5019   32.9439   18.3800 H   0  0  0  0  0  0  0  0  0  0  0  0
    7.6823   34.0509   17.6005 H   0  0  0  0  0  0  0  0  0  0  0  0
    5.9330   34.4590   17.6005 H   0  0  0  0  0  0  0  0  0  0  0  0
    2.8490   34.4070   14.5350 H   0  0  0  0  0  0  0  0  0  0  0  0
    2.3135   35.9125   13.1816 H   0  0  0  0  0  0  0  0  0  0  0  0
    1.9697   35.7008   10.3187 H   0  0  0  0  0  0  0  0  0  0  0  0
    2.0292   34.0325   11.0451 H   0  0  0  0  0  0  0  0  0  0  0  0
   -0.3458   37.1899   11.0508 H   0  0  0  0  0  0  0  0  0  0  0  0
   -2.2637   34.0671   13.1403 H   0  0  0  0  0  0  0  0  0  0  0  0
    0.2180   33.4310   12.8330 H   0  0  0  0  0  0  0  0  0  0  0  0
    4.4640   36.6060   11.4300 H   0  0  0  0  0  0  0  0  0  0  0  0
    5.6377   38.4905   12.6734 H   0  0  0  0  0  0  0  0  0  0  0  0
    3.9979   40.2291   13.9623 H   0  0  0  0  0  0  0  0  0  0  0  0
    5.4761   40.8229   13.2224 H   0  0  0  0  0  0  0  0  0  0  0  0
    2.6186   40.8055   12.0672 H   0  0  0  0  0  0  0  0  0  0  0  0
    3.6898   42.1878   12.1788 H   0  0  0  0  0  0  0  0  0  0  0  0
    3.5242   40.8138    9.8652 H   0  0  0  0  0  0  0  0  0  0  0  0
    5.1193   41.3468   10.3825 H   0  0  0  0  0  0  0  0  0  0  0  0
    3.9760   38.6590   10.3830 H   0  0  0  0  0  0  0  0  0  0  0  0
    5.5740   39.0930   10.4040 H   0  0  0  0  0  0  0  0  0  0  0  0
    3.6830   24.3020   18.8190 H   0  0  0  0  0  0  0  0  0  0  0  0
    1.7239   23.3317   18.2767 H   0  0  0  0  0  0  0  0  0  0  0  0
    1.2012   23.2825   21.1989 H   0  0  0  0  0  0  0  0  0  0  0  0
   -0.0988   22.9486   20.0052 H   0  0  0  0  0  0  0  0  0  0  0  0
    1.3975   21.9547   20.0052 H   0  0  0  0  0  0  0  0  0  0  0  0
    0.5120   25.4270   20.8860 H   0  0  0  0  0  0  0  0  0  0  0  0
   -0.3150   27.5349   21.0109 H   0  0  0  0  0  0  0  0  0  0  0  0
    1.8969   27.2913   19.0850 H   0  0  0  0  0  0  0  0  0  0  0  0
    0.8896   28.8019   18.8703 H   0  0  0  0  0  0  0  0  0  0  0  0
    3.6324   29.8232   19.9169 H   0  0  0  0  0  0  0  0  0  0  0  0
    3.9710   30.3520   22.4550 H   0  0  0  0  0  0  0  0  0  0  0  0
    2.1992   29.2313   23.9396 H   0  0  0  0  0  0  0  0  0  0  0  0
    0.6980   27.9470   22.2930 H   0  0  0  0  0  0  0  0  0  0  0  0
  1  2  1  0
  2  3  1  0
  3  4  1  0
  4  5  1  0
  5  6  1  0
  6  7  1  0
  7  8  1  0
  8  9  1  0
  9 10  1  0
 10 11  2  0
 11 12  1  0
 12 13  2  0
 13 14  1  0
 14 15  2  0
  8 16  1  0
 16 17  1  0
 17 18  2  0
 17 19  1  0
 19 20  1  0
 20 21  1  0
 19 22  1  0
 22 23  1  0
 23 24  2  0
 23 25  1  0
 25 26  1  0
 26 27  1  0
 27 28  1  0
 27 29  1  0
 25 30  1  0
 30 31  1  0
 31 32  2  0
 31 33  1  0
 33 34  1  0
 34 35  1  0
 35 36  2  0
 36 37  1  0
 37 38  2  0
 38 39  1  0
 33 40  1  0
 40 41  1  0
 41 42  2  0
 41 43  1  0
 43 44  1  0
 44 45  1  0
 45 46  1  0
 46 47  1  0
  5 48  1  0
 48 49  2  0
 48 50  1  0
 50 51  1  0
 51 52  1  0
 51 53  1  0
 53 54  2  0
 53 55  1  0
 55 56  1  0
 56 57  1  0
 57 58  1  0
 58 59  2  0
 59 60  1  0
 60 61  2  0
 61 62  1  0
 56 63  1  0
 63 64  2  0
 63 65  1  0
 15 10  1  0
 39 35  1  0
 47 43  1  0
 62 58  1  0
  1 66  1  0
  1 67  1  0
  1 68  1  0
  3 69  1  0
  3 70  1  0
  4 71  1  0
  4 72  1  0
  5 73  1  6
  6 74  1  0
  6 75  1  0
  7 76  1  0
  7 77  1  0
  8 78  1  6
  9 79  1  0
  9 80  1  0
 11 81  1  0
 12 82  1  0
 13 83  1  0
 14 84  1  0
 15 85  1  0
 16 86  1  0
 19 87  1  1
 20 88  1  0
 20 89  1  0
 21 90  1  0
 22 91  1  0
 25 92  1  6
 26 93  1  0
 26 94  1  0
 27 95  1  0
 28 96  1  0
 28 97  1  0
 28 98  1  0
 29 99  1  0
 29100  1  0
 29101  1  0
 30102  1  0
 33103  1  1
 34104  1  0
 34105  1  0
 36106  1  0
 38107  1  0
 39108  1  0
 40109  1  0
 43110  1  1
 44111  1  0
 44112  1  0
 45113  1  0
 45114  1  0
 46115  1  0
 46116  1  0
 47117  1  0
 47118  1  0
 50119  1  0
 51120  1  6
 52121  1  0
 52122  1  0
 52123  1  0
 55124  1  0
 56125  1  1
 57126  1  0
 57127  1  0
 59128  1  0
 60129  1  0
 61130  1  0
 62131  1  0
M  CHG  4   6   1  47   1  60   1  65  -1
M  END
>  <meeko>  (2) 
{"is_sidechain": [false], "free_energy": -8.324, "intermolecular_energy": -22.823, "internal_energy": -5.027}

$$$$
3uri_ligand
     RDKit          3D

131134  0  0  0  0  0  0  0  0999 V2000
    5.7880   29.6650   25.6620 C   0  0  0  0  0  0  0  0  0  0  0  0
    4.4600   28.4330   25.6030 S   0  0  0  0  0  0  0  0  0  0  0  0
    3.1240   29.4650   26.2790 C   0  0  0  0  0  0  0  0  0  0  0  0
    2.1150   29.7880   25.1740 C   0  0  0  0  0  0  0  0  0  0  0  0
    2.6000   29.4990   23.7450 C   0  0  2  0  0  0  0  0  0  0  0  0
    2.7670   30.7540   22.9370 N   0  0  0  0  0  0  0  0  0  0  0  0
    4.1240   31.2890   22.6920 C   0  0  0  0  0  0  0  0  0  0  0  0
    5.0840   30.2880   21.9740 C   0  0  2  0  0  0  0  0  0  0  0  0
    6.5800   30.6950   21.9380 C   0  0  0  0  0  0  0  0  0  0  0  0
    7.5350   29.7700   21.2130 C   0  0  0  0  0  0  0  0  0  0  0  0
    8.1340   30.1110   19.9960 C   0  0  0  0  0  0  0  0  0  0  0  0
    9.0310   29.2360   19.3770 C   0  0  0  0  0  0  0  0  0  0  0  0
    9.3260   28.0060   19.9590 C   0  0  0  0  0  0  0  0  0  0  0  0
    8.7180   27.6420   21.1560 C   0  0  0  0  0  0  0  0  0  0  0  0
    7.8240   28.5150   21.7760 C   0  0  0  0  0  0  0  0  0  0  0  0
    4.6370   29.9460   20.6110 N   0  0  0  0  0  0  0  0  0  0  0  0
    4.2360   28.6680   20.2630 C   0  0  0  0  0  0  0  0  0  0  0  0
    4.0960   27.7780   21.0980 O   0  0  0  0  0  0  0  0  0  0  0  0
    4.1400   28.4010   18.7500 C   0  0  2  0  0  0  0  0  0  0  0  0
    5.5600   28.1900   18.2100 C   0  0  0  0  0  0  0  0  0  0  0  0
    6.1420   27.0350   18.8390 O   0  0  0  0  0  0  0  0  0  0  0  0
    3.5040   29.5190   18.0430 N   0  0  0  0  0  0  0  0  0  0  0  0
    2.7700   29.3270   16.8980 C   0  0  0  0  0  0  0  0  0  0  0  0
    2.6350   28.2080   16.4020 O   0  0  0  0  0  0  0  0  0  0  0  0
    2.2060   30.6150   16.2290 C   0  0  2  0  0  0  0  0  0  0  0  0
    0.8240   30.4320   15.5730 C   0  0  0  0  0  0  0  0  0  0  0  0
   -0.2750   31.4520   15.9470 C   0  0  0  0  0  0  0  0  0  0  0  0
   -0.9430   32.0750   14.7210 C   0  0  0  0  0  0  0  0  0  0  0  0
   -1.3300   30.8970   16.9030 C   0  0  0  0  0  0  0  0  0  0  0  0
    3.2460   31.1720   15.3620 N   0  0  0  0  0  0  0  0  0  0  0  0
    3.5530   32.5190   15.3520 C   0  0  0  0  0  0  0  0  0  0  0  0
    3.1410   33.3130   16.1950 O   0  0  0  0  0  0  0  0  0  0  0  0
    4.3410   33.0160   14.1220 C   0  0  2  0  0  0  0  0  0  0  0  0
    5.4090   34.0410   14.5720 C   0  0  0  0  0  0  0  0  0  0  0  0
    6.4340   33.4440   15.4830 C   0  0  0  0  0  0  0  0  0  0  0  0
    6.6970   33.6000   16.8260 C   0  0  0  0  0  0  0  0  0  0  0  0
    7.6370   32.7000   17.2410 N   0  0  0  0  0  0  0  0  0  0  0  0
    8.0590   32.1050   16.1480 C   0  0  0  0  0  0  0  0  0  0  0  0
    7.3700   32.5330   15.0510 N   0  0  0  0  0  0  0  0  0  0  0  0
    3.5130   33.4680   12.9720 N   0  0  0  0  0  0  0  0  0  0  0  0
    3.0210   34.7580   12.8790 C   0  0  0  0  0  0  0  0  0  0  0  0
    2.9180   35.5010   13.8480 O   0  0  0  0  0  0  0  0  0  0  0  0
    2.5210   35.1320   11.4640 C   0  0  2  0  0  0  0  0  0  0  0  0
    1.6690   36.3950   11.4320 C   0  0  0  0  0  0  0  0  0  0  0  0
    0.2540   35.8840   11.6330 C   0  0  0  0  0  0  0  0  0  0  0  0
    0.2150   34.6320   10.7860 C   0  0  0  0  0  0  0  0  0  0  0  0
    1.5910   34.0490   10.9220 N   0  0  0  0  0  0  0  0  0  0  0  0
    1.6670   28.5090   22.9910 C   0  0  0  0  0  0  0  0  0  0  0  0
    1.3260   27.4210   23.4470 O   0  0  0  0  0  0  0  0  0  0  0  0
    1.1690   28.9840   21.7880 N   0  0  0  0  0  0  0  0  0  0  0  0
    0.0400   28.3560   21.0860 C   0  0  1  0  0  0  0  0  0  0  0  0
   -1.0580   29.3160   20.6470 C   0  0  0  0  0  0  0  0  0  0  0  0
    0.5790   27.4680   19.9390 C   0  0  0  0  0  0  0  0  0  0  0  0
    0.4010   27.7560   18.7560 O   0  0  0  0  0  0  0  0  0  0  0  0
    1.2400   26.3200   20.3330 N   0  0  0  0  0  0  0  0  0  0  0  0
    1.1780   25.1040   19.4770 C   0  0  1  0  0  0  0  0  0  0  0  0
    2.2850   24.1170   19.8450 C   0  0  0  0  0  0  0  0  0  0  0  0
    2.7990   24.2850   21.2280 C   0  0  0  0  0  0  0  0  0  0  0  0
    2.2770   24.0050   22.4700 C   0  0  0  0  0  0  0  0  0  0  0  0
    3.2130   24.3950   23.4030 N   0  0  0  0  0  0  0  0  0  0  0  0
    4.2870   24.9040   22.7990 C   0  0  0  0  0  0  0  0  0  0  0  0
    4.0480   24.8430   21.4880 N   0  0  0  0  0  0  0  0  0  0  0  0
   -0.2090   24.4000   19.5750 C   0  0  0  0  0  0  0  0  0  0  0  0
   -1.0880   24.7130   18.7350 O   0  0  0  0  0  0  0  0  0  0  0  0
   -0.2980   23.4940   20.4670 O   0  0  0  0  0  0  0  0  0  0  0  0
    6.0319   29.8913   26.7105 H   0  0  0  0  0  0  0  0  0  0  0  0
    6.6799   29.2673   25.1557 H   0  0  0  0  0  0  0  0  0  0  0  0
    5.4582   30.5842   25.1557 H   0  0  0  0  0  0  0  0  0  0  0  0
    2.6170   28.9222   27.0904 H   0  0  0  0  0  0  0  0  0  0  0  0
    3.5484   30.4011   26.6710 H   0  0  0  0  0  0  0  0  0  0  0  0
    1.2092   29.1904   25.3540 H   0  0  0  0  0  0  0  0  0  0  0  0
    1.9408   30.8729   25.2253 H   0  0  0  0  0  0  0  0  0  0  0  0
    3.5858   29.0245   23.8586 H   0  0  0  0  0  0  0  0  0  0  0  0
    2.2720   30.6270   22.0510 H   0  0  0  0  0  0  0  0  0  0  0  0
    2.1170   31.4900   23.3360 H   0  0  0  0  0  0  0  0  0  0  0  0
    4.0327   32.1891   22.0664 H   0  0  0  0  0  0  0  0  0  0  0  0
    4.5647   31.4996   23.6776 H   0  0  0  0  0  0  0  0  0  0  0  0
    5.0220   29.3995   22.6195 H   0  0  0  0  0  0  0  0  0  0  0  0
    6.6426   31.6804   21.4531 H   0  0  0  0  0  0  0  0  0  0  0  0
    6.9048   30.6686   22.9886 H   0  0  0  0  0  0  0  0  0  0  0  0
    7.8973   31.0752   19.5224 H   0  0  0  0  0  0  0  0  0  0  0  0
    9.5058   29.5202   18.4263 H   0  0  0  0  0  0  0  0  0  0  0  0
   10.0386   27.3233   19.4731 H   0  0  0  0  0  0  0  0  0  0  0  0
    8.9419   26.6669   21.6131 H   0  0  0  0  0  0  0  0  0  0  0  0
    7.3391   28.2175   22.7174 H   0  0  0  0  0  0  0  0  0  0  0  0
    5.0930   30.4350   19.8440 H   0  0  0  0  0  0  0  0  0  0  0  0
    3.5191   27.5085   18.5831 H   0  0  0  0  0  0  0  0  0  0  0  0
    5.5198   28.0344   17.1218 H   0  0  0  0  0  0  0  0  0  0  0  0
    6.1728   29.0767   18.4296 H   0  0  0  0  0  0  0  0  0  0  0  0
    5.8590   26.2640   18.3080 H   0  0  0  0  0  0  0  0  0  0  0  0
    3.6260   30.4360   18.4580 H   0  0  0  0  0  0  0  0  0  0  0  0
    1.9746   31.3602   17.0043 H   0  0  0  0  0  0  0  0  0  0  0  0
    0.9655   30.4824   14.4833 H   0  0  0  0  0  0  0  0  0  0  0  0
    0.4559   29.4667   15.9509 H   0  0  0  0  0  0  0  0  0  0  0  0
    0.2618   32.2462   16.4865 H   0  0  0  0  0  0  0  0  0  0  0  0
   -1.7114   32.7916   15.0466 H   0  0  0  0  0  0  0  0  0  0  0  0
   -0.1865   32.5976   14.1172 H   0  0  0  0  0  0  0  0  0  0  0  0
   -1.4117   31.2840   14.1172 H   0  0  0  0  0  0  0  0  0  0  0  0
   -1.0089   31.0659   17.9415 H   0  0  0  0  0  0  0  0  0  0  0  0
   -2.2884   31.4077   16.7279 H   0  0  0  0  0  0  0  0  0  0  0  0
   -1.4521   29.8179   16.7279 H   0  0  0  0  0  0  0  0  0  0  0  0
    3.3120   30.7240   14.4470 H   0  0  0  0  0  0  0  0  0  0  0  0
    4.8530   32.1413   13.6945 H   0  0  0  0  0  0  0  0  0  0  0  0
    5.9177   34.4341   13.6794 H   0  0  0  0  0  0  0  0  0  0  0  0
    4.8923   34.8365   15.1290 H   0  0  0  0  0  0  0  0  0  0  0  0
    6.2162   34.3467   17.4751 H   0  0  0  0  0  0  0  0  0  0  0  0
    8.8651   31.3571   16.1210 H   0  0  0  0  0  0  0  0  0  0  0  0
    7.5180   32.2210   14.0990 H   0  0  0  0  0  0  0  0  0  0  0  0
    3.8180   33.0440   12.1020 H   0  0  0  0  0  0  0  0  0  0  0  0
    3.4416   35.2652   10.8768 H   0  0  0  0  0  0  0  0  0  0  0  0
    1.9561   37.0817   12.2419 H   0  0  0  0  0  0  0  0  0  0  0  0
    1.7867   36.9634   10.4976 H   0  0  0  0  0  0  0  0  0  0  0  0
    0.0657   35.6503   12.6913 H   0  0  0  0  0  0  0  0  0  0  0  0
   -0.5142   36.6193   11.3515 H   0  0  0  0  0  0  0  0  0  0  0  0
   -0.5443   33.9306   11.1622 H   0  0  0  0  0  0  0  0  0  0  0  0
   -0.0512   34.8409    9.7394 H   0  0  0  0  0  0  0  0  0  0  0  0
    1.5740   33.2500   11.5730 H   0  0  0  0  0  0  0  0  0  0  0  0
    1.9230   33.6940   10.0160 H   0  0  0  0  0  0  0  0  0  0  0  0
    1.4610   29.8830   21.4230 H   0  0  0  0  0  0  0  0  0  0  0  0
   -0.4817   27.7179   21.8144 H   0  0  0  0  0  0  0  0  0  0  0  0
   -1.5474   29.7438   21.5344 H   0  0  0  0  0  0  0  0  0  0  0  0
   -0.6186   30.1249   20.0448 H   0  0  0  0  0  0  0  0  0  0  0  0
   -1.8010   28.7726   20.0448 H   0  0  0  0  0  0  0  0  0  0  0  0
    1.1670   26.1140   21.3330 H   0  0  0  0  0  0  0  0  0  0  0  0
    1.3244   25.4356   18.4384 H   0  0  0  0  0  0  0  0  0  0  0  0
    1.8879   23.0962   19.7437 H   0  0  0  0  0  0  0  0  0  0  0  0
    3.1268   24.3094   19.1636 H   0  0  0  0  0  0  0  0  0  0  0  0
    1.2957   23.5540   22.6790 H   0  0  0  0  0  0  0  0  0  0  0  0
    3.1030   24.3120   24.4100 H   0  0  0  0  0  0  0  0  0  0  0  0
    5.1919   25.2968   23.2857 H   0  0  0  0  0  0  0  0  0  0  0  0
    4.6900   25.1670   20.7670 H   0  0  0  0  0  0  0  0  0  0  0  0
  1  2  1  0
  2  3  1  0
  3  4  1  0
  4  5  1  0
  5  6  1  0
  6  7  1  0
  7  8  1  0
  8  9  1  0
  9 10  1  0
 10 11  2  0
 11 12  1  0
 12 13  2  0
 13 14  1  0
 14 15  2  0
  8 16  1  0
 16 17  1  0
 17 18  2  0
 17 19  1  0
 19 20  1  0
 20 21  1  0
 19 22  1  0
 22 23  1  0
 23 24  2  0
 23 25  1  0
 25 26  1  0
 26 27  1  0
 27 28  1  0
 27 29  1  0
 25 30  1  0
 30 31  1  0
 31 32  2  0
 31 33  1  0
 33 34  1  0
 34 35  1  0
 35 36  2  0
 36 37  1  0
 37 38  2  0
 38 39  1  0
 33 40  1  0
 40 41  1  0
 41 42  2  0
 41 43  1  0
 43 44  1  0
 44 45  1  0
 45 46  1  0
 46 47  1  0
  5 48  1  0
 48 49  2  0
 48 50  1  0
 50 51  1  0
 51 52  1  0
 51 53  1  0
 53 54  2  0
 53 55  1  0
 55 56  1  0
 56 57  1  0
 57 58  1  0
 58 59  2  0
 59 60  1  0
 60 61  2  0
 61 62  1  0
 56 63  1  0
 63 64  2  0
 63 65  1  0
 15 10  1  0
 39 35  1  0
 47 43  1  0
 62 58  1  0
  1 66  1  0
  1 67  1  0
  1 68  1  0
  3 69  1  0
  3 70  1  0
  4 71  1  0
  4 72  1  0
  5 73  1  1
  6 74  1  0
  6 75  1  0
  7 76  1  0
  7 77  1  0
  8 78  1  1
  9 79  1  0
  9 80  1  0
 11 81  1  0
 12 82  1  0
 13 83  1  0
 14 84  1  0
 15 85  1  0
 16 86  1  0
 19 87  1  1
 20 88  1  0
 20 89  1  0
 21 90  1  0
 22 91  1  0
 25 92  1  1
 26 93  1  0
 26 94  1  0
 27 95  1  0
 28 96  1  0
 28 97  1  0
 28 98  1  0
 29 99  1  0
 29100  1  0
 29101  1  0
 30102  1  0
 33103  1  6
 34104  1  0
 34105  1  0
 36106  1  0
 38107  1  0
 39108  1  0
 40109  1  0
 43110  1  6
 44111  1  0
 44112  1  0
 45113  1  0
 45114  1  0
 46115  1  0
 46116  1  0
 47117  1  0
 47118  1  0
 50119  1  0
 51120  1  1
 52121  1  0
 52122  1  0
 52123  1  0
 55124  1  0
 56125  1  6
 57126  1  0
 57127  1  0
 59128  1  0
 60129  1  0
 61130  1  0
 62131  1  0
M  CHG  4   6   1  47   1  60   1  65  -1
M  END
>  <meeko>  (3) 
{"is_sidechain": [false], "free_energy": -8.092, "intermolecular_energy": -20.699, "internal_energy": -6.533}

$$$$
3uri_ligand
     RDKit          3D

131134  0  0  0  0  0  0  0  0999 V2000
   -2.0510   25.6210   24.9620 C   0  0  0  0  0  0  0  0  0  0  0  0
   -1.4250   27.3130   25.1370 S   0  0  0  0  0  0  0  0  0  0  0  0
   -0.3400   27.3360   23.6770 C   0  0  0  0  0  0  0  0  0  0  0  0
    0.7310   26.2520   23.8160 C   0  0  0  0  0  0  0  0  0  0  0  0
    2.0910   26.5960   23.1870 C   0  0  2  0  0  0  0  0  0  0  0  0
    3.0270   25.4210   23.1840 N   0  0  0  0  0  0  0  0  0  0  0  0
    3.4480   24.8270   21.8970 C   0  0  0  0  0  0  0  0  0  0  0  0
    2.6110   25.3080   20.6690 C   0  0  2  0  0  0  0  0  0  0  0  0
    1.6450   24.2600   20.0570 C   0  0  0  0  0  0  0  0  0  0  0  0
    0.8920   23.3640   21.0180 C   0  0  0  0  0  0  0  0  0  0  0  0
    1.3730   22.1110   21.4100 C   0  0  0  0  0  0  0  0  0  0  0  0
    0.6560   21.3300   22.3210 C   0  0  0  0  0  0  0  0  0  0  0  0
   -0.5540   21.7870   22.8380 C   0  0  0  0  0  0  0  0  0  0  0  0
   -1.0580   23.0200   22.4360 C   0  0  0  0  0  0  0  0  0  0  0  0
   -0.3430   23.8010   21.5280 C   0  0  0  0  0  0  0  0  0  0  0  0
    3.4480   25.8850   19.5990 N   0  0  0  0  0  0  0  0  0  0  0  0
    3.7390   27.2360   19.5360 C   0  0  0  0  0  0  0  0  0  0  0  0
    3.4370   28.0120   20.4390 O   0  0  0  0  0  0  0  0  0  0  0  0
    4.3150   27.7200   18.1920 C   0  0  2  0  0  0  0  0  0  0  0  0
    5.8390   27.8110   18.3300 C   0  0  0  0  0  0  0  0  0  0  0  0
    6.2960   26.8090   19.2550 O   0  0  0  0  0  0  0  0  0  0  0  0
    3.7740   29.0300   17.8120 N   0  0  0  0  0  0  0  0  0  0  0  0
    2.7510   29.1540   16.9030 C   0  0  0  0  0  0  0  0  0  0  0  0
    2.2610   28.1690   16.3500 O   0  0  0  0  0  0  0  0  0  0  0  0
    2.3240   30.6100   16.5570 C   0  0  2  0  0  0  0  0  0  0  0  0
    0.8270   30.7670   16.2260 C   0  0  0  0  0  0  0  0  0  0  0  0
    0.4290   30.7420   14.7320 C   0  0  0  0  0  0  0  0  0  0  0  0
   -0.5560   29.6200   14.4040 C   0  0  0  0  0  0  0  0  0  0  0  0
   -0.0960   32.0800   14.2130 C   0  0  0  0  0  0  0  0  0  0  0  0
    3.2500   31.1310   15.5500 N   0  0  0  0  0  0  0  0  0  0  0  0
    3.5060   32.4820   15.4140 C   0  0  0  0  0  0  0  0  0  0  0  0
    3.1540   33.3230   16.2380 O   0  0  0  0  0  0  0  0  0  0  0  0
    4.1470   32.9090   14.0770 C   0  0  2  0  0  0  0  0  0  0  0  0
    5.2430   33.9670   14.3440 C   0  0  0  0  0  0  0  0  0  0  0  0
    6.3470   33.4500   15.2100 C   0  0  0  0  0  0  0  0  0  0  0  0
    6.7000   33.6890   16.5210 C   0  0  0  0  0  0  0  0  0  0  0  0
    7.6920   32.8380   16.9150 N   0  0  0  0  0  0  0  0  0  0  0  0
    8.0530   32.1920   15.8300 C   0  0  0  0  0  0  0  0  0  0  0  0
    7.2760   32.5390   14.7630 N   0  0  0  0  0  0  0  0  0  0  0  0
    3.1910   33.2830   13.0000 N   0  0  0  0  0  0  0  0  0  0  0  0
    2.7010   34.5700   12.8630 C   0  0  0  0  0  0  0  0  0  0  0  0
    2.7200   35.3890   13.7760 O   0  0  0  0  0  0  0  0  0  0  0  0
    2.0390   34.8410   11.4930 C   0  0  2  0  0  0  0  0  0  0  0  0
    1.1980   36.1110   11.4610 C   0  0  0  0  0  0  0  0  0  0  0  0
   -0.1870   35.6390   11.8680 C   0  0  0  0  0  0  0  0  0  0  0  0
   -0.3340   34.3260   11.1330 C   0  0  0  0  0  0  0  0  0  0  0  0
    1.0440   33.7340   11.1520 N   0  0  0  0  0  0  0  0  0  0  0  0
    2.7730   27.8110   23.8780 C   0  0  0  0  0  0  0  0  0  0  0  0
    3.4120   27.7230   24.9230 O   0  0  0  0  0  0  0  0  0  0  0  0
    2.6830   29.0020   23.1770 N   0  0  0  0  0  0  0  0  0  0  0  0
    3.5140   30.1760   23.4830 C   0  0  1  0  0  0  0  0  0  0  0  0
    3.5430   30.5760   24.9530 C   0  0  0  0  0  0  0  0  0  0  0  0
    4.9200   29.9850   22.8670 C   0  0  0  0  0  0  0  0  0  0  0  0
    5.8330   29.4430   23.4880 O   0  0  0  0  0  0  0  0  0  0  0  0
    5.0870   30.4920   21.5920 N   0  0  0  0  0  0  0  0  0  0  0  0
    6.4160   31.0140   21.1750 C   0  0  1  0  0  0  0  0  0  0  0  0
    6.6950   30.6950   19.7060 C   0  0  0  0  0  0  0  0  0  0  0  0
    8.1390   30.7000   19.3590 C   0  0  0  0  0  0  0  0  0  0  0  0
    8.9980   29.7380   18.8810 C   0  0  0  0  0  0  0  0  0  0  0  0
   10.2400   30.3230   18.7630 N   0  0  0  0  0  0  0  0  0  0  0  0
   10.1910   31.6000   19.1470 C   0  0  0  0  0  0  0  0  0  0  0  0
    8.9290   31.8370   19.5090 N   0  0  0  0  0  0  0  0  0  0  0  0
    6.5330   32.5500   21.4100 C   0  0  0  0  0  0  0  0  0  0  0  0
    6.9930   32.9430   22.5100 O   0  0  0  0  0  0  0  0  0  0  0  0
    6.2180   33.2790   20.4130 O   0  0  0  0  0  0  0  0  0  0  0  0
   -2.2124   25.1848   25.9588 H   0  0  0  0  0  0  0  0  0  0  0  0
   -3.0026   25.6373   24.4105 H   0  0  0  0  0  0  0  0  0  0  0  0
   -1.3179   25.0140   24.4105 H   0  0  0  0  0  0  0  0  0  0  0  0
   -0.9380   27.1460   22.7735 H   0  0  0  0  0  0  0  0  0  0  0  0
    0.1447   28.3203   23.5977 H   0  0  0  0  0  0  0  0  0  0  0  0
    0.8890   26.0643   24.8883 H   0  0  0  0  0  0  0  0  0  0  0  0
    0.3531   25.3754   23.2694 H   0  0  0  0  0  0  0  0  0  0  0  0
    1.8743   26.8712   22.1443 H   0  0  0  0  0  0  0  0  0  0  0  0
    3.8470   25.6710   23.7430 H   0  0  0  0  0  0  0  0  0  0  0  0
    2.6410   24.6920   23.8500 H   0  0  0  0  0  0  0  0  0  0  0  0
    4.5013   25.0918   21.7223 H   0  0  0  0  0  0  0  0  0  0  0  0
    3.2916   23.7415   21.9822 H   0  0  0  0  0  0  0  0  0  0  0  0
    1.9765   26.0911   21.1095 H   0  0  0  0  0  0  0  0  0  0  0  0
    0.8989   24.8066   19.4615 H   0  0  0  0  0  0  0  0  0  0  0  0
    2.2928   23.5792   19.4853 H   0  0  0  0  0  0  0  0  0  0  0  0
    2.3223   21.7372   20.9986 H   0  0  0  0  0  0  0  0  0  0  0  0
    1.0490   20.3504   22.6309 H   0  0  0  0  0  0  0  0  0  0  0  0
   -1.1101   21.1742   23.5628 H   0  0  0  0  0  0  0  0  0  0  0  0
   -2.0189   23.3784   22.8337 H   0  0  0  0  0  0  0  0  0  0  0  0
   -0.7506   24.7710   21.2070 H   0  0  0  0  0  0  0  0  0  0  0  0
    3.3710   25.4580   18.6780 H   0  0  0  0  0  0  0  0  0  0  0  0
    4.0334   27.0058   17.4042 H   0  0  0  0  0  0  0  0  0  0  0  0
    6.3069   27.6449   17.3484 H   0  0  0  0  0  0  0  0  0  0  0  0
    6.1151   28.8083   18.7030 H   0  0  0  0  0  0  0  0  0  0  0  0
    6.3100   27.2360   20.1340 H   0  0  0  0  0  0  0  0  0  0  0  0
    4.1880   29.8340   18.2710 H   0  0  0  0  0  0  0  0  0  0  0  0
    2.4090   31.2403   17.4545 H   0  0  0  0  0  0  0  0  0  0  0  0
    0.2895   29.9476   16.7258 H   0  0  0  0  0  0  0  0  0  0  0  0
    0.5633   31.7768   16.5736 H   0  0  0  0  0  0  0  0  0  0  0  0
    1.3706   30.5387   14.2010 H   0  0  0  0  0  0  0  0  0  0  0  0
   -0.9391   29.1836   15.3383 H   0  0  0  0  0  0  0  0  0  0  0  0
   -1.3938   30.0270   13.8189 H   0  0  0  0  0  0  0  0  0  0  0  0
   -0.0439   28.8419   13.8189 H   0  0  0  0  0  0  0  0  0  0  0  0
   -0.3506   32.7289   15.0639 H   0  0  0  0  0  0  0  0  0  0  0  0
    0.6784   32.5652   13.6007 H   0  0  0  0  0  0  0  0  0  0  0  0
   -0.9937   31.9090   13.6007 H   0  0  0  0  0  0  0  0  0  0  0  0
    3.2380   30.6190   14.6670 H   0  0  0  0  0  0  0  0  0  0  0  0
    4.6216   32.0139   13.6486 H   0  0  0  0  0  0  0  0  0  0  0  0
    5.6700   34.2820   13.3804 H   0  0  0  0  0  0  0  0  0  0  0  0
    4.7709   34.8071   14.8745 H   0  0  0  0  0  0  0  0  0  0  0  0
    6.2451   34.4592   17.1612 H   0  0  0  0  0  0  0  0  0  0  0  0
    8.8766   31.4641   15.7868 H   0  0  0  0  0  0  0  0  0  0  0  0
    7.3660   32.1770   13.8210 H   0  0  0  0  0  0  0  0  0  0  0  0
    3.3870   32.7880   12.1370 H   0  0  0  0  0  0  0  0  0  0  0  0
    2.8843   34.9137   10.7929 H   0  0  0  0  0  0  0  0  0  0  0  0
    1.5838   36.8545   12.1740 H   0  0  0  0  0  0  0  0  0  0  0  0
    1.2076   36.6028   10.4771 H   0  0  0  0  0  0  0  0  0  0  0  0
   -0.2494   35.4911   12.9562 H   0  0  0  0  0  0  0  0  0  0  0  0
   -0.9788   36.3620   11.6223 H   0  0  0  0  0  0  0  0  0  0  0  0
   -1.0479   33.6679   11.6500 H   0  0  0  0  0  0  0  0  0  0  0  0
   -0.7208   34.4573   10.1117 H   0  0  0  0  0  0  0  0  0  0  0  0
    1.0990   32.9890   11.8610 H   0  0  0  0  0  0  0  0  0  0  0  0
    1.2630   33.3040   10.2430 H   0  0  0  0  0  0  0  0  0  0  0  0
    2.1500   29.0600   22.3170 H   0  0  0  0  0  0  0  0  0  0  0  0
    3.0351   31.0460   23.0100 H   0  0  0  0  0  0  0  0  0  0  0  0
    3.4776   29.6743   25.5797 H   0  0  0  0  0  0  0  0  0  0  0  0
    4.4819   31.1063   25.1703 H   0  0  0  0  0  0  0  0  0  0  0  0
    2.6904   31.2362   25.1703 H   0  0  0  0  0  0  0  0  0  0  0  0
    4.3060   31.0660   21.2620 H   0  0  0  0  0  0  0  0  0  0  0  0
    7.1674   30.5104   21.8009 H   0  0  0  0  0  0  0  0  0  0  0  0
    6.2876   29.6977   19.4835 H   0  0  0  0  0  0  0  0  0  0  0  0
    6.2175   31.4856   19.1085 H   0  0  0  0  0  0  0  0  0  0  0  0
    8.7414   28.6962   18.6383 H   0  0  0  0  0  0  0  0  0  0  0  0
   11.0780   29.8520   18.4330 H   0  0  0  0  0  0  0  0  0  0  0  0
   11.0261   32.3158   19.1621 H   0  0  0  0  0  0  0  0  0  0  0  0
    8.5850   32.7300   19.8560 H   0  0  0  0  0  0  0  0  0  0  0  0
  1  2  1  0
  2  3  1  0
  3  4  1  0
  4  5  1  0
  5  6  1  0
  6  7  1  0
  7  8  1  0
  8  9  1  0
  9 10  1  0
 10 11  2  0
 11 12  1  0
 12 13  2  0
 13 14  1  0
 14 15  2  0
  8 16  1  0
 16 17  1  0
 17 18  2  0
 17 19  1  0
 19 20  1  0
 20 21  1  0
 19 22  1  0
 22 23  1  0
 23 24  2  0
 23 25  1  0
 25 26  1  0
 26 27  1  0
 27 28  1  0
 27 29  1  0
 25 30  1  0
 30 31  1  0
 31 32  2  0
 31 33  1  0
 33 34  1  0
 34 35  1  0
 35 36  2  0
 36 37  1  0
 37 38  2  0
 38 39  1  0
 33 40  1  0
 40 41  1  0
 41 42  2  0
 41 43  1  0
 43 44  1  0
 44 45  1  0
 45 46  1  0
 46 47  1  0
  5 48  1  0
 48 49  2  0
 48 50  1  0
 50 51  1  0
 51 52  1  0
 51 53  1  0
 53 54  2  0
 53 55  1  0
 55 56  1  0
 56 57  1  0
 57 58  1  0
 58 59  2  0
 59 60  1  0
 60 61  2  0
 61 62  1  0
 56 63  1  0
 63 64  2  0
 63 65  1  0
 15 10  1  0
 39 35  1  0
 47 43  1  0
 62 58  1  0
  1 66  1  0
  1 67  1  0
  1 68  1  0
  3 69  1  0
  3 70  1  0
  4 71  1  0
  4 72  1  0
  5 73  1  6
  6 74  1  0
  6 75  1  0
  7 76  1  0
  7 77  1  0
  8 78  1  1
  9 79  1  0
  9 80  1  0
 11 81  1  0
 12 82  1  0
 13 83  1  0
 14 84  1  0
 15 85  1  0
 16 86  1  0
 19 87  1  6
 20 88  1  0
 20 89  1  0
 21 90  1  0
 22 91  1  0
 25 92  1  1
 26 93  1  0
 26 94  1  0
 27 95  1  0
 28 96  1  0
 28 97  1  0
 28 98  1  0
 29 99  1  0
 29100  1  0
 29101  1  0
 30102  1  0
 33103  1  6
 34104  1  0
 34105  1  0
 36106  1  0
 38107  1  0
 39108  1  0
 40109  1  0
 43110  1  6
 44111  1  0
 44112  1  0
 45113  1  0
 45114  1  0
 46115  1  0
 46116  1  0
 47117  1  0
 47118  1  0
 50119  1  0
 51120  1  6
 52121  1  0
 52122  1  0
 52123  1  0
 55124  1  0
 56125  1  1
 57126  1  0
 57127  1  0
 59128  1  0
 60129  1  0
 61130  1  0
 62131  1  0
M  CHG  4   6   1  47   1  60   1  65  -1
M  END
>  <meeko>  (4) 
{"is_sidechain": [false], "free_energy": -8.079, "intermolecular_energy": -21.885, "internal_energy": -5.311}

$$$$
3uri_ligand
     RDKit          3D

131134  0  0  0  0  0  0  0  0999 V2000
   10.3330   26.4250   24.2620 C   0  0  0  0  0  0  0  0  0  0  0  0
   10.1920   24.7540   24.9500 S   0  0  0  0  0  0  0  0  0  0  0  0
    8.3880   24.5710   24.8100 C   0  0  0  0  0  0  0  0  0  0  0  0
    7.9370   24.9810   23.4060 C   0  0  0  0  0  0  0  0  0  0  0  0
    6.6230   25.7760   23.3490 C   0  0  2  0  0  0  0  0  0  0  0  0
    5.8770   25.5470   22.0660 N   0  0  0  0  0  0  0  0  0  0  0  0
    4.4120   25.3480   22.0980 C   0  0  0  0  0  0  0  0  0  0  0  0
    3.6100   26.3690   21.2300 C   0  0  2  0  0  0  0  0  0  0  0  0
    2.0970   26.0740   21.0650 C   0  0  0  0  0  0  0  0  0  0  0  0
    1.6960   24.6460   20.7590 C   0  0  0  0  0  0  0  0  0  0  0  0
    1.0340   23.8360   21.6880 C   0  0  0  0  0  0  0  0  0  0  0  0
    0.6590   22.5330   21.3520 C   0  0  0  0  0  0  0  0  0  0  0  0
    0.9540   22.0200   20.0910 C   0  0  0  0  0  0  0  0  0  0  0  0
    1.6350   22.8060   19.1660 C   0  0  0  0  0  0  0  0  0  0  0  0
    2.0090   24.1080   19.4990 C   0  0  0  0  0  0  0  0  0  0  0  0
    4.2140   26.5860   19.9010 N   0  0  0  0  0  0  0  0  0  0  0  0
    4.6690   27.8260   19.4890 C   0  0  0  0  0  0  0  0  0  0  0  0
    4.7250   28.7870   20.2520 O   0  0  0  0  0  0  0  0  0  0  0  0
    4.9390   27.9550   17.9790 C   0  0  2  0  0  0  0  0  0  0  0  0
    6.4420   28.1850   17.7800 C   0  0  0  0  0  0  0  0  0  0  0  0
    7.1760   27.4030   18.7380 O   0  0  0  0  0  0  0  0  0  0  0  0
    4.1870   29.0690   17.3880 N   0  0  0  0  0  0  0  0  0  0  0  0
    2.9840   28.8730   16.7550 C   0  0  0  0  0  0  0  0  0  0  0  0
    2.4970   27.7480   16.6350 O   0  0  0  0  0  0  0  0  0  0  0  0
    2.3330   30.1400   16.1280 C   0  0  2  0  0  0  0  0  0  0  0  0
    1.0360   29.8610   15.3430 C   0  0  0  0  0  0  0  0  0  0  0  0
   -0.2910   30.3180   15.9880 C   0  0  0  0  0  0  0  0  0  0  0  0
   -0.2940   30.1580   17.5080 C   0  0  0  0  0  0  0  0  0  0  0  0
   -0.7070   31.7380   15.6010 C   0  0  0  0  0  0  0  0  0  0  0  0
    3.3680   30.8700   15.3930 N   0  0  0  0  0  0  0  0  0  0  0  0
    3.4340   32.2490   15.3900 C   0  0  0  0  0  0  0  0  0  0  0  0
    2.7790   32.9600   16.1490 O   0  0  0  0  0  0  0  0  0  0  0  0
    4.2840   32.8740   14.2640 C   0  0  2  0  0  0  0  0  0  0  0  0
    5.2170   33.9550   14.8600 C   0  0  0  0  0  0  0  0  0  0  0  0
    6.3570   33.3730   15.6320 C   0  0  0  0  0  0  0  0  0  0  0  0
    6.7780   33.5200   16.9360 C   0  0  0  0  0  0  0  0  0  0  0  0
    7.7790   32.6370   17.2220 N   0  0  0  0  0  0  0  0  0  0  0  0
    8.0790   32.0630   16.0790 C   0  0  0  0  0  0  0  0  0  0  0  0
    7.2530   32.4880   15.0780 N   0  0  0  0  0  0  0  0  0  0  0  0
    3.5270   33.3210   13.0640 N   0  0  0  0  0  0  0  0  0  0  0  0
    3.0500   34.6130   12.9310 C   0  0  0  0  0  0  0  0  0  0  0  0
    2.8950   35.3660   13.8870 O   0  0  0  0  0  0  0  0  0  0  0  0
    2.6360   34.9770   11.4870 C   0  0  2  0  0  0  0  0  0  0  0  0
    1.9800   36.3480   11.3670 C   0  0  0  0  0  0  0  0  0  0  0  0
    0.5020   36.0620   11.5580 C   0  0  0  0  0  0  0  0  0  0  0  0
    0.2930   34.7840   10.7770 C   0  0  0  0  0  0  0  0  0  0  0  0
    1.5650   34.0140   10.9780 N   0  0  0  0  0  0  0  0  0  0  0  0
    6.8420   27.3000   23.5660 C   0  0  0  0  0  0  0  0  0  0  0  0
    7.0250   27.8070   24.6690 O   0  0  0  0  0  0  0  0  0  0  0  0
    6.9030   28.0480   22.4010 N   0  0  0  0  0  0  0  0  0  0  0  0
    7.4120   29.4270   22.3620 C   0  0  1  0  0  0  0  0  0  0  0  0
    8.1650   29.7980   21.0900 C   0  0  0  0  0  0  0  0  0  0  0  0
    6.2680   30.4080   22.7090 C   0  0  0  0  0  0  0  0  0  0  0  0
    6.4390   31.6260   22.7320 O   0  0  0  0  0  0  0  0  0  0  0  0
    5.0550   29.8220   23.0250 N   0  0  0  0  0  0  0  0  0  0  0  0
    4.1490   30.4850   24.0010 C   0  0  1  0  0  0  0  0  0  0  0  0
    3.0000   31.1970   23.2880 C   0  0  0  0  0  0  0  0  0  0  0  0
    2.4750   32.3720   24.0290 C   0  0  0  0  0  0  0  0  0  0  0  0
    1.5370   32.5170   25.0240 C   0  0  0  0  0  0  0  0  0  0  0  0
    1.4530   33.8620   25.3120 N   0  0  0  0  0  0  0  0  0  0  0  0
    2.2930   34.5550   24.5420 C   0  0  0  0  0  0  0  0  0  0  0  0
    2.9130   33.6660   23.7640 N   0  0  0  0  0  0  0  0  0  0  0  0
    3.5770   29.4700   25.0370 C   0  0  0  0  0  0  0  0  0  0  0  0
    4.2730   29.2090   26.0490 O   0  0  0  0  0  0  0  0  0  0  0  0
    2.3980   29.0530   24.7970 O   0  0  0  0  0  0  0  0  0  0  0  0
   10.3946   27.1553   25.0823 H   0  0  0  0  0  0  0  0  0  0  0  0
   11.2399   26.4914   23.6431 H   0  0  0  0  0  0  0  0  0  0  0  0
    9.4500   26.6424   23.6431 H   0  0  0  0  0  0  0  0  0  0  0  0
    8.1114   23.5219   24.9914 H   0  0  0  0  0  0  0  0  0  0  0  0
    7.8969   25.2156   25.5539 H   0  0  0  0  0  0  0  0  0  0  0  0
    8.7296   25.6005   22.9609 H   0  0  0  0  0  0  0  0  0  0  0  0
    7.7525   24.0451   22.8582 H   0  0  0  0  0  0  0  0  0  0  0  0
    6.0110   25.3954   24.1801 H   0  0  0  0  0  0  0  0  0  0  0  0
    6.1170   26.3060   21.4230 H   0  0  0  0  0  0  0  0  0  0  0  0
    6.3700   24.7740   21.5330 H   0  0  0  0  0  0  0  0  0  0  0  0
    4.1930   24.3348   21.7299 H   0  0  0  0  0  0  0  0  0  0  0  0
    4.0943   25.4997   23.1401 H   0  0  0  0  0  0  0  0  0  0  0  0
    3.6803   27.2906   21.8265 H   0  0  0  0  0  0  0  0  0  0  0  0
    1.6001   26.3628   22.0029 H   0  0  0  0  0  0  0  0  0  0  0  0
    1.7929   26.6485   20.1776 H   0  0  0  0  0  0  0  0  0  0  0  0
    0.8071   24.2281   22.6904 H   0  0  0  0  0  0  0  0  0  0  0  0
    0.1284   21.9093   22.0865 H   0  0  0  0  0  0  0  0  0  0  0  0
    0.6496   20.9965   19.8270 H   0  0  0  0  0  0  0  0  0  0  0  0
    1.8782   22.4007   18.1727 H   0  0  0  0  0  0  0  0  0  0  0  0
    2.5553   24.7207   18.7668 H   0  0  0  0  0  0  0  0  0  0  0  0
    3.8420   26.0310   19.1340 H   0  0  0  0  0  0  0  0  0  0  0  0
    4.6118   27.0324   17.4772 H   0  0  0  0  0  0  0  0  0  0  0  0
    6.7281   27.8814   16.7622 H   0  0  0  0  0  0  0  0  0  0  0  0
    6.6725   29.2511   17.9222 H   0  0  0  0  0  0  0  0  0  0  0  0
    7.5540   26.6500   18.2430 H   0  0  0  0  0  0  0  0  0  0  0  0
    4.5990   29.9890   17.4890 H   0  0  0  0  0  0  0  0  0  0  0  0
    1.9592   30.7942   16.9294 H   0  0  0  0  0  0  0  0  0  0  0  0
    1.1226   30.3669   14.3701 H   0  0  0  0  0  0  0  0  0  0  0  0
    0.9646   28.7644   15.2934 H   0  0  0  0  0  0  0  0  0  0  0  0
   -1.0465   29.6365   15.5699 H   0  0  0  0  0  0  0  0  0  0  0  0
   -0.2754   31.1508   17.9812 H   0  0  0  0  0  0  0  0  0  0  0  0
   -1.2024   29.6208   17.8184 H   0  0  0  0  0  0  0  0  0  0  0  0
    0.5936   29.5872   17.8184 H   0  0  0  0  0  0  0  0  0  0  0  0
   -0.8805   32.3303   16.5116 H   0  0  0  0  0  0  0  0  0  0  0  0
    0.0921   32.2050   15.0065 H   0  0  0  0  0  0  0  0  0  0  0  0
   -1.6318   31.7000   15.0065 H   0  0  0  0  0  0  0  0  0  0  0  0
    3.6350   30.4380   14.5080 H   0  0  0  0  0  0  0  0  0  0  0  0
    4.9041   32.0675   13.8456 H   0  0  0  0  0  0  0  0  0  0  0  0
    5.6229   34.5617   14.0371 H   0  0  0  0  0  0  0  0  0  0  0  0
    4.6196   34.5611   15.5569 H   0  0  0  0  0  0  0  0  0  0  0  0
    6.3642   34.2488   17.6485 H   0  0  0  0  0  0  0  0  0  0  0  0
    8.8914   31.3335   15.9454 H   0  0  0  0  0  0  0  0  0  0  0  0
    7.2920   32.1890   14.1110 H   0  0  0  0  0  0  0  0  0  0  0  0
    3.8800   32.8880   12.2170 H   0  0  0  0  0  0  0  0  0  0  0  0
    3.5767   34.9407   10.9180 H   0  0  0  0  0  0  0  0  0  0  0  0
    2.3510   37.0292   12.1469 H   0  0  0  0  0  0  0  0  0  0  0  0
    2.1968   36.8400   10.4074 H   0  0  0  0  0  0  0  0  0  0  0  0
    0.2625   35.9177   12.6219 H   0  0  0  0  0  0  0  0  0  0  0  0
   -0.1438   36.8852   11.2186 H   0  0  0  0  0  0  0  0  0  0  0  0
   -0.5680   34.2235   11.1702 H   0  0  0  0  0  0  0  0  0  0  0  0
    0.0787   34.9713    9.7145 H   0  0  0  0  0  0  0  0  0  0  0  0
    1.4190   33.2640   11.6690 H   0  0  0  0  0  0  0  0  0  0  0  0
    1.8560   33.5650   10.1000 H   0  0  0  0  0  0  0  0  0  0  0  0
    6.7480   27.6170   21.4970 H   0  0  0  0  0  0  0  0  0  0  0  0
    8.1931   29.5062   23.1324 H   0  0  0  0  0  0  0  0  0  0  0  0
    9.1226   30.2698   21.3552 H   0  0  0  0  0  0  0  0  0  0  0  0
    8.3549   28.8903   20.4983 H   0  0  0  0  0  0  0  0  0  0  0  0
    7.5610   30.5016   20.4983 H   0  0  0  0  0  0  0  0  0  0  0  0
    5.0950   28.8060   23.1360 H   0  0  0  0  0  0  0  0  0  0  0  0
    4.7509   31.2300   24.5420 H   0  0  0  0  0  0  0  0  0  0  0  0
    3.3588   31.5378   22.3056 H   0  0  0  0  0  0  0  0  0  0  0  0
    2.1752   30.4739   23.2055 H   0  0  0  0  0  0  0  0  0  0  0  0
    0.9613   31.7101   25.5009 H   0  0  0  0  0  0  0  0  0  0  0  0
    0.8390   34.2730   26.0100 H   0  0  0  0  0  0  0  0  0  0  0  0
    2.4447   35.6445   24.5473 H   0  0  0  0  0  0  0  0  0  0  0  0
    3.6130   33.9000   23.0620 H   0  0  0  0  0  0  0  0  0  0  0  0
  1  2  1  0
  2  3  1  0
  3  4  1  0
  4  5  1  0
  5  6  1  0
  6  7  1  0
  7  8  1  0
  8  9  1  0
  9 10  1  0
 10 11  2  0
 11 12  1  0
 12 13  2  0
 13 14  1  0
 14 15  2  0
  8 16  1  0
 16 17  1  0
 17 18  2  0
 17 19  1  0
 19 20  1  0
 20 21  1  0
 19 22  1  0
 22 23  1  0
 23 24  2  0
 23 25  1  0
 25 26  1  0
 26 27  1  0
 27 28  1  0
 27 29  1  0
 25 30  1  0
 30 31  1  0
 31 32  2  0
 31 33  1  0
 33 34  1  0
 34 35  1  0
 35 36  2  0
 36 37  1  0
 37 38  2  0
 38 39  1  0
 33 40  1  0
 40 41  1  0
 41 42  2  0
 41 43  1  0
 43 44  1  0
 44 45  1  0
 45 46  1  0
 46 47  1  0
  5 48  1  0
 48 49  2  0
 48 50  1  0
 50 51  1  0
 51 52  1  0
 51 53  1  0
 53 54  2  0
 53 55  1  0
 55 56  1  0
 56 57  1  0
 57 58  1  0
 58 59  2  0
 59 60  1  0
 60 61  2  0
 61 62  1  0
 56 63  1  0
 63 64  2  0
 63 65  1  0
 15 10  1  0
 39 35  1  0
 47 43  1  0
 62 58  1  0
  1 66  1  0
  1 67  1  0
  1 68  1  0
  3 69  1  0
  3 70  1  0
  4 71  1  0
  4 72  1  0
  5 73  1  1
  6 74  1  0
  6 75  1  0
  7 76  1  0
  7 77  1  0
  8 78  1  1
  9 79  1  0
  9 80  1  0
 11 81  1  0
 12 82  1  0
 13 83  1  0
 14 84  1  0
 15 85  1  0
 16 86  1  0
 19 87  1  6
 20 88  1  0
 20 89  1  0
 21 90  1  0
 22 91  1  0
 25 92  1  1
 26 93  1  0
 26 94  1  0
 27 95  1  0
 28 96  1  0
 28 97  1  0
 28 98  1  0
 29 99  1  0
 29100  1  0
 29101  1  0
 30102  1  0
 33103  1  6
 34104  1  0
 34105  1  0
 36106  1  0
 38107  1  0
 39108  1  0
 40109  1  0
 43110  1  6
 44111  1  0
 44112  1  0
 45113  1  0
 45114  1  0
 46115  1  0
 46116  1  0
 47117  1  0
 47118  1  0
 50119  1  0
 51120  1  1
 52121  1  0
 52122  1  0
 52123  1  0
 55124  1  0
 56125  1  1
 57126  1  0
 57127  1  0
 59128  1  0
 60129  1  0
 61130  1  0
 62131  1  0
M  CHG  4   6   1  47   1  60   1  65  -1
M  END
>  <meeko>  (5) 
{"is_sidechain": [false], "free_energy": -8.056, "intermolecular_energy": -22.24, "internal_energy": -4.897}

$$$$
3uri_ligand
     RDKit          3D

131134  0  0  0  0  0  0  0  0999 V2000
    0.9560   29.8500   27.0900 C   0  0  0  0  0  0  0  0  0  0  0  0
    0.7320   31.1610   25.8580 S   0  0  0  0  0  0  0  0  0  0  0  0
    2.4850   31.5690   25.5980 C   0  0  0  0  0  0  0  0  0  0  0  0
    3.3160   30.2840   25.5880 C   0  0  0  0  0  0  0  0  0  0  0  0
    3.6630   29.7440   24.1910 C   0  0  2  0  0  0  0  0  0  0  0  0
    3.9260   30.8460   23.2060 N   0  0  0  0  0  0  0  0  0  0  0  0
    5.2250   30.9020   22.5020 C   0  0  0  0  0  0  0  0  0  0  0  0
    5.6510   29.5520   21.8420 C   0  0  2  0  0  0  0  0  0  0  0  0
    7.1680   29.2320   21.8760 C   0  0  0  0  0  0  0  0  0  0  0  0
    8.0410   29.8880   20.8270 C   0  0  0  0  0  0  0  0  0  0  0  0
    8.3000   31.2630   20.8160 C   0  0  0  0  0  0  0  0  0  0  0  0
    9.1340   31.8190   19.8430 C   0  0  0  0  0  0  0  0  0  0  0  0
    9.7050   31.0120   18.8620 C   0  0  0  0  0  0  0  0  0  0  0  0
    9.4350   29.6470   18.8450 C   0  0  0  0  0  0  0  0  0  0  0  0
    8.6040   29.0900   19.8160 C   0  0  0  0  0  0  0  0  0  0  0  0
    5.1520   29.4090   20.4610 N   0  0  0  0  0  0  0  0  0  0  0  0
    4.4100   28.3140   20.0530 C   0  0  0  0  0  0  0  0  0  0  0  0
    4.0050   27.4680   20.8460 O   0  0  0  0  0  0  0  0  0  0  0  0
    4.2720   28.1490   18.5280 C   0  0  2  0  0  0  0  0  0  0  0  0
    5.6640   28.3010   17.9030 C   0  0  0  0  0  0  0  0  0  0  0  0
    5.7220   27.5490   16.6790 O   0  0  0  0  0  0  0  0  0  0  0  0
    3.3610   29.1480   17.9560 N   0  0  0  0  0  0  0  0  0  0  0  0
    2.5600   28.8620   16.8780 C   0  0  0  0  0  0  0  0  0  0  0  0
    2.5890   27.7600   16.3300 O   0  0  0  0  0  0  0  0  0  0  0  0
    1.6910   30.0400   16.3470 C   0  0  2  0  0  0  0  0  0  0  0  0
    0.3390   29.6070   15.7480 C   0  0  0  0  0  0  0  0  0  0  0  0
   -0.9190   30.3700   16.2210 C   0  0  0  0  0  0  0  0  0  0  0  0
   -0.7430   30.9970   17.6040 C   0  0  0  0  0  0  0  0  0  0  0  0
   -1.4160   31.4150   15.2220 C   0  0  0  0  0  0  0  0  0  0  0  0
    2.5280   30.8690   15.4780 N   0  0  0  0  0  0  0  0  0  0  0  0
    2.6240   32.2380   15.6360 C   0  0  0  0  0  0  0  0  0  0  0  0
    2.1960   32.8370   16.6210 O   0  0  0  0  0  0  0  0  0  0  0  0
    3.1810   33.0130   14.4240 C   0  0  2  0  0  0  0  0  0  0  0  0
    4.3190   33.9520   14.8900 C   0  0  0  0  0  0  0  0  0  0  0  0
    5.3970   33.2290   15.6320 C   0  0  0  0  0  0  0  0  0  0  0  0
    6.6720   32.8390   15.2840 C   0  0  0  0  0  0  0  0  0  0  0  0
    7.3410   32.3560   16.3730 N   0  0  0  0  0  0  0  0  0  0  0  0
    6.4510   32.3040   17.3380 C   0  0  0  0  0  0  0  0  0  0  0  0
    5.2490   32.8090   16.9330 N   0  0  0  0  0  0  0  0  0  0  0  0
    2.1630   33.6740   13.5640 N   0  0  0  0  0  0  0  0  0  0  0  0
    1.0750   32.9890   13.0490 C   0  0  0  0  0  0  0  0  0  0  0  0
    1.0450   31.7670   12.9550 O   0  0  0  0  0  0  0  0  0  0  0  0
   -0.0430   33.9120   12.5140 C   0  0  2  0  0  0  0  0  0  0  0  0
   -0.2480   33.8110   11.0070 C   0  0  0  0  0  0  0  0  0  0  0  0
    0.6860   34.8660   10.4420 C   0  0  0  0  0  0  0  0  0  0  0  0
    0.5150   36.0260   11.3970 C   0  0  0  0  0  0  0  0  0  0  0  0
    0.3200   35.3780   12.7370 N   0  0  0  0  0  0  0  0  0  0  0  0
    2.5660   28.7920   23.6350 C   0  0  0  0  0  0  0  0  0  0  0  0
    2.2960   27.7040   24.1380 O   0  0  0  0  0  0  0  0  0  0  0  0
    1.8450   29.3000   22.5670 N   0  0  0  0  0  0  0  0  0  0  0  0
    0.5780   28.7130   22.1060 C   0  0  1  0  0  0  0  0  0  0  0  0
   -0.6250   29.6450   22.1740 C   0  0  0  0  0  0  0  0  0  0  0  0
    0.7850   28.0740   20.7120 C   0  0  0  0  0  0  0  0  0  0  0  0
    0.8270   28.7520   19.6860 O   0  0  0  0  0  0  0  0  0  0  0  0
    0.8860   26.6950   20.6960 N   0  0  0  0  0  0  0  0  0  0  0  0
    0.3920   25.9340   19.5170 C   0  0  1  0  0  0  0  0  0  0  0  0
    1.3670   24.8220   19.1330 C   0  0  0  0  0  0  0  0  0  0  0  0
    1.4990   23.7620   20.1650 C   0  0  0  0  0  0  0  0  0  0  0  0
    2.3400   23.5910   21.2400 C   0  0  0  0  0  0  0  0  0  0  0  0
    2.0020   22.3950   21.8350 N   0  0  0  0  0  0  0  0  0  0  0  0
    0.9960   21.8160   21.1780 C   0  0  0  0  0  0  0  0  0  0  0  0
    0.6860   22.6320   20.1680 N   0  0  0  0  0  0  0  0  0  0  0  0
   -1.0220   25.3290   19.7730 C   0  0  0  0  0  0  0  0  0  0  0  0
   -1.5100   24.5830   18.8890 O   0  0  0  0  0  0  0  0  0  0  0  0
   -1.5270   25.5880   20.9130 O   0  0  0  0  0  0  0  0  0  0  0  0
    0.8826   30.2796   28.1000 H   0  0  0  0  0  0  0  0  0  0  0  0
    0.1753   29.0862   26.9588 H   0  0  0  0  0  0  0  0  0  0  0  0
    1.9460   29.3888   26.9588 H   0  0  0  0  0  0  0  0  0  0  0  0
    2.6011   32.0874   24.6348 H   0  0  0  0  0  0  0  0  0  0  0  0
    2.8324   32.2220   26.4122 H   0  0  0  0  0  0  0  0  0  0  0  0
    4.2578   30.4829   26.1203 H   0  0  0  0  0  0  0  0  0  0  0  0
    2.6957   29.5136   26.0694 H   0  0  0  0  0  0  0  0  0  0  0  0
    4.5890   29.1643   24.3196 H   0  0  0  0  0  0  0  0  0  0  0  0
    3.1570   30.8550   22.5310 H   0  0  0  0  0  0  0  0  0  0  0  0
    3.6880   31.7680   23.6740 H   0  0  0  0  0  0  0  0  0  0  0  0
    5.1580   31.6661   21.7135 H   0  0  0  0  0  0  0  0  0  0  0  0
    5.9865   31.1391   23.2595 H   0  0  0  0  0  0  0  0  0  0  0  0
    5.1651   28.8097   22.4924 H   0  0  0  0  0  0  0  0  0  0  0  0
    7.5483   29.5394   22.8613 H   0  0  0  0  0  0  0  0  0  0  0  0
    7.2336   28.1547   21.6637 H   0  0  0  0  0  0  0  0  0  0  0  0
    7.8436   31.9108   21.5790 H   0  0  0  0  0  0  0  0  0  0  0  0
    9.3407   32.8994   19.8517 H   0  0  0  0  0  0  0  0  0  0  0  0
   10.3677   31.4525   18.1026 H   0  0  0  0  0  0  0  0  0  0  0  0
    9.8768   29.0081   18.0662 H   0  0  0  0  0  0  0  0  0  0  0  0
    8.3861   28.0121   19.7906 H   0  0  0  0  0  0  0  0  0  0  0  0
    5.7440   29.7780   19.7210 H   0  0  0  0  0  0  0  0  0  0  0  0
    3.8502   27.1563   18.3120 H   0  0  0  0  0  0  0  0  0  0  0  0
    5.8572   29.3629   17.6909 H   0  0  0  0  0  0  0  0  0  0  0  0
    6.4244   27.9238   18.6027 H   0  0  0  0  0  0  0  0  0  0  0  0
    5.8490   26.6150   16.9380 H   0  0  0  0  0  0  0  0  0  0  0  0
    3.3490   30.0530   18.4130 H   0  0  0  0  0  0  0  0  0  0  0  0
    1.3585   30.6608   17.1920 H   0  0  0  0  0  0  0  0  0  0  0  0
    0.4073   29.7256   14.6565 H   0  0  0  0  0  0  0  0  0  0  0  0
    0.1921   28.5739   16.0961 H   0  0  0  0  0  0  0  0  0  0  0  0
   -1.6978   29.5964   16.2917 H   0  0  0  0  0  0  0  0  0  0  0  0
   -0.9544   30.2440   18.3775 H   0  0  0  0  0  0  0  0  0  0  0  0
    0.2907   31.3563   17.7148 H   0  0  0  0  0  0  0  0  0  0  0  0
   -1.4387   31.8418   17.7148 H   0  0  0  0  0  0  0  0  0  0  0  0
   -1.8263   32.2777   15.7674 H   0  0  0  0  0  0  0  0  0  0  0  0
   -0.5786   31.7454   14.5899 H   0  0  0  0  0  0  0  0  0  0  0  0
   -2.2008   30.9739   14.5899 H   0  0  0  0  0  0  0  0  0  0  0  0
    2.5560   30.5600   14.5060 H   0  0  0  0  0  0  0  0  0  0  0  0
    3.6019   32.2676   13.7331 H   0  0  0  0  0  0  0  0  0  0  0  0
    4.7624   34.4331   14.0057 H   0  0  0  0  0  0  0  0  0  0  0  0
    3.8800   34.6898   15.5777 H   0  0  0  0  0  0  0  0  0  0  0  0
    7.0929   32.9071   14.2700 H   0  0  0  0  0  0  0  0  0  0  0  0
    6.6490   31.9047   18.3436 H   0  0  0  0  0  0  0  0  0  0  0  0
    4.4120   32.8710   17.4990 H   0  0  0  0  0  0  0  0  0  0  0  0
    1.9880   34.6290   13.8580 H   0  0  0  0  0  0  0  0  0  0  0  0
   -0.9443   33.5885   13.0552 H   0  0  0  0  0  0  0  0  0  0  0  0
    0.0244   32.8101   10.6408 H   0  0  0  0  0  0  0  0  0  0  0  0
   -1.2953   33.9671   10.7091 H   0  0  0  0  0  0  0  0  0  0  0  0
    1.7266   34.5095   10.4367 H   0  0  0  0  0  0  0  0  0  0  0  0
    0.4586   35.1292    9.3985 H   0  0  0  0  0  0  0  0  0  0  0  0
    1.4111   36.6640   11.3994 H   0  0  0  0  0  0  0  0  0  0  0  0
   -0.3261   36.6783   11.1194 H   0  0  0  0  0  0  0  0  0  0  0  0
    1.1890   35.4390   13.2880 H   0  0  0  0  0  0  0  0  0  0  0  0
   -0.4120   35.8650   13.2690 H   0  0  0  0  0  0  0  0  0  0  0  0
    2.0800   30.1970   22.1600 H   0  0  0  0  0  0  0  0  0  0  0  0
    0.3066   27.9236   22.8224 H   0  0  0  0  0  0  0  0  0  0  0  0
   -0.8780   29.8410   23.2264 H   0  0  0  0  0  0  0  0  0  0  0  0
   -0.3828   30.5935   21.6723 H   0  0  0  0  0  0  0  0  0  0  0  0
   -1.4829   29.1735   21.6723 H   0  0  0  0  0  0  0  0  0  0  0  0
    0.6630   26.2470   21.5890 H   0  0  0  0  0  0  0  0  0  0  0  0
    0.3172   26.6480   18.6835 H   0  0  0  0  0  0  0  0  0  0  0  0
    1.0140   24.3571   18.2006 H   0  0  0  0  0  0  0  0  0  0  0  0
    2.3575   25.2871   19.0208 H   0  0  0  0  0  0  0  0  0  0  0  0
    3.1338   24.2801   21.5640 H   0  0  0  0  0  0  0  0  0  0  0  0
    2.4550   22.0020   22.6560 H   0  0  0  0  0  0  0  0  0  0  0  0
    0.5166   20.8561   21.4204 H   0  0  0  0  0  0  0  0  0  0  0  0
   -0.0470   22.4530   19.4840 H   0  0  0  0  0  0  0  0  0  0  0  0
  1  2  1  0
  2  3  1  0
  3  4  1  0
  4  5  1  0
  5  6  1  0
  6  7  1  0
  7  8  1  0
  8  9  1  0
  9 10  1  0
 10 11  2  0
 11 12  1  0
 12 13  2  0
 13 14  1  0
 14 15  2  0
  8 16  1  0
 16 17  1  0
 17 18  2  0
 17 19  1  0
 19 20  1  0
 20 21  1  0
 19 22  1  0
 22 23  1  0
 23 24  2  0
 23 25  1  0
 25 26  1  0
 26 27  1  0
 27 28  1  0
 27 29  1  0
 25 30  1  0
 30 31  1  0
 31 32  2  0
 31 33  1  0
 33 34  1  0
 34 35  1  0
 35 36  2  0
 36 37  1  0
 37 38  2  0
 38 39  1  0
 33 40  1  0
 40 41  1  0
 41 42  2  0
 41 43  1  0
 43 44  1  0
 44 45  1  0
 45 46  1  0
 46 47  1  0
  5 48  1  0
 48 49  2  0
 48 50  1  0
 50 51  1  0
 51 52  1  0
 51 53  1  0
 53 54  2  0
 53 55  1  0
 55 56  1  0
 56 57  1  0
 57 58  1  0
 58 59  2  0
 59 60  1  0
 60 61  2  0
 61 62  1  0
 56 63  1  0
 63 64  2  0
 63 65  1  0
 15 10  1  0
 39 35  1  0
 47 43  1  0
 62 58  1  0
  1 66  1  0
  1 67  1  0
  1 68  1  0
  3 69  1  0
  3 70  1  0
  4 71  1  0
  4 72  1  0
  5 73  1  1
  6 74  1  0
  6 75  1  0
  7 76  1  0
  7 77  1  0
  8 78  1  1
  9 79  1  0
  9 80  1  0
 11 81  1  0
 12 82  1  0
 13 83  1  0
 14 84  1  0
 15 85  1  0
 16 86  1  0
 19 87  1  1
 20 88  1  0
 20 89  1  0
 21 90  1  0
 22 91  1  0
 25 92  1  1
 26 93  1  0
 26 94  1  0
 27 95  1  0
 28 96  1  0
 28 97  1  0
 28 98  1  0
 29 99  1  0
 29100  1  0
 29101  1  0
 30102  1  0
 33103  1  6
 34104  1  0
 34105  1  0
 36106  1  0
 38107  1  0
 39108  1  0
 40109  1  0
 43110  1  1
 44111  1  0
 44112  1  0
 45113  1  0
 45114  1  0
 46115  1  0
 46116  1  0
 47117  1  0
 47118  1  0
 50119  1  0
 51120  1  1
 52121  1  0
 52122  1  0
 52123  1  0
 55124  1  0
 56125  1  6
 57126  1  0
 57127  1  0
 59128  1  0
 60129  1  0
 61130  1  0
 62131  1  0
M  CHG  4   6   1  47   1  60   1  65  -1
M  END
>  <meeko>  (6) 
{"is_sidechain": [false], "free_energy": -8.048, "intermolecular_energy": -20.76, "internal_energy": -6.355}

$$$$
3uri_ligand
     RDKit          3D

131134  0  0  0  0  0  0  0  0999 V2000
    3.8090   30.6730   23.9410 C   0  0  0  0  0  0  0  0  0  0  0  0
    4.5000   29.3200   22.9530 S   0  0  0  0  0  0  0  0  0  0  0  0
    6.2610   29.7280   23.1550 C   0  0  0  0  0  0  0  0  0  0  0  0
    6.5820   31.0130   22.3880 C   0  0  0  0  0  0  0  0  0  0  0  0
    6.5430   30.8840   20.8570 C   0  0  2  0  0  0  0  0  0  0  0  0
    7.7280   30.1310   20.3210 N   0  0  0  0  0  0  0  0  0  0  0  0
    7.5240   29.0780   19.3030 C   0  0  0  0  0  0  0  0  0  0  0  0
    6.4110   28.0450   19.6690 C   0  0  2  0  0  0  0  0  0  0  0  0
    6.9090   26.6790   20.2080 C   0  0  0  0  0  0  0  0  0  0  0  0
    7.3280   26.6160   21.6620 C   0  0  0  0  0  0  0  0  0  0  0  0
    6.5060   26.0810   22.6590 C   0  0  0  0  0  0  0  0  0  0  0  0
    6.9480   26.0190   23.9840 C   0  0  0  0  0  0  0  0  0  0  0  0
    8.2070   26.5040   24.3280 C   0  0  0  0  0  0  0  0  0  0  0  0
    9.0250   27.0630   23.3510 C   0  0  0  0  0  0  0  0  0  0  0  0
    8.5870   27.1240   22.0280 C   0  0  0  0  0  0  0  0  0  0  0  0
    5.4590   27.8180   18.5650 N   0  0  0  0  0  0  0  0  0  0  0  0
    4.1580   28.2890   18.6020 C   0  0  0  0  0  0  0  0  0  0  0  0
    3.7610   29.0400   19.4890 O   0  0  0  0  0  0  0  0  0  0  0  0
    3.2100   27.6760   17.5550 C   0  0  2  0  0  0  0  0  0  0  0  0
    3.0230   28.6940   16.4240 C   0  0  0  0  0  0  0  0  0  0  0  0
    3.9980   29.7430   16.5600 O   0  0  0  0  0  0  0  0  0  0  0  0
    1.9060   27.3390   18.1380 N   0  0  0  0  0  0  0  0  0  0  0  0
    1.7190   26.1990   18.8820 C   0  0  0  0  0  0  0  0  0  0  0  0
    2.6350   25.3980   19.0710 O   0  0  0  0  0  0  0  0  0  0  0  0
    0.2670   25.9480   19.3840 C   0  0  2  0  0  0  0  0  0  0  0  0
   -0.2210   24.4970   19.2030 C   0  0  0  0  0  0  0  0  0  0  0  0
   -0.0370   23.5360   20.3990 C   0  0  0  0  0  0  0  0  0  0  0  0
    0.9650   22.4190   20.1080 C   0  0  0  0  0  0  0  0  0  0  0  0
    0.3180   24.2420   21.7070 C   0  0  0  0  0  0  0  0  0  0  0  0
   -0.6000   26.9800   18.8120 N   0  0  0  0  0  0  0  0  0  0  0  0
   -1.5190   27.6740   19.5740 C   0  0  0  0  0  0  0  0  0  0  0  0
   -1.5430   27.6400   20.8020 O   0  0  0  0  0  0  0  0  0  0  0  0
   -2.6280   28.4010   18.7840 C   0  0  2  0  0  0  0  0  0  0  0  0
   -2.3800   29.9280   18.8340 C   0  0  0  0  0  0  0  0  0  0  0  0
   -1.9700   30.4900   17.5110 C   0  0  0  0  0  0  0  0  0  0  0  0
   -1.2070   29.9920   16.4770 C   0  0  0  0  0  0  0  0  0  0  0  0
   -1.2620   30.8220   15.3940 N   0  0  0  0  0  0  0  0  0  0  0  0
   -1.9180   31.8860   15.7990 C   0  0  0  0  0  0  0  0  0  0  0  0
   -2.3560   31.7400   17.0840 N   0  0  0  0  0  0  0  0  0  0  0  0
   -4.0200   28.0000   19.1210 N   0  0  0  0  0  0  0  0  0  0  0  0
   -5.0540   28.0850   18.2050 C   0  0  0  0  0  0  0  0  0  0  0  0
   -5.0010   28.7960   17.2070 O   0  0  0  0  0  0  0  0  0  0  0  0
   -6.3110   27.2820   18.6120 C   0  0  2  0  0  0  0  0  0  0  0  0
   -5.9950   25.9380   19.2560 C   0  0  0  0  0  0  0  0  0  0  0  0
   -5.9450   24.9760   18.0830 C   0  0  0  0  0  0  0  0  0  0  0  0
   -7.1050   25.4210   17.2210 C   0  0  0  0  0  0  0  0  0  0  0  0
   -7.1320   26.9130   17.3790 N   0  0  0  0  0  0  0  0  0  0  0  0
    6.4320   32.2630   20.1480 C   0  0  0  0  0  0  0  0  0  0  0  0
    6.5280   33.3360   20.7380 O   0  0  0  0  0  0  0  0  0  0  0  0
    6.3010   32.1980   18.7710 N   0  0  0  0  0  0  0  0  0  0  0  0
    6.4990   33.3610   17.8920 C   0  0  1  0  0  0  0  0  0  0  0  0
    7.9450   33.8200   17.7490 C   0  0  0  0  0  0  0  0  0  0  0  0
    5.7960   33.1070   16.5380 C   0  0  0  0  0  0  0  0  0  0  0  0
    6.3540   33.3270   15.4640 O   0  0  0  0  0  0  0  0  0  0  0  0
    4.4930   32.6510   16.6180 N   0  0  0  0  0  0  0  0  0  0  0  0
    3.5160   33.0230   15.5600 C   0  0  1  0  0  0  0  0  0  0  0  0
    4.1150   32.8290   14.1670 C   0  0  0  0  0  0  0  0  0  0  0  0
    3.7950   33.9290   13.2220 C   0  0  0  0  0  0  0  0  0  0  0  0
    4.4340   35.1000   12.8860 C   0  0  0  0  0  0  0  0  0  0  0  0
    3.6490   35.7390   11.9510 N   0  0  0  0  0  0  0  0  0  0  0  0
    2.5550   35.0200   11.6930 C   0  0  0  0  0  0  0  0  0  0  0  0
    2.6330   33.9280   12.4550 N   0  0  0  0  0  0  0  0  0  0  0  0
    2.1940   32.2060   15.6820 C   0  0  0  0  0  0  0  0  0  0  0  0
    1.6790   32.0880   16.8210 O   0  0  0  0  0  0  0  0  0  0  0  0
    1.7060   31.7920   14.5800 O   0  0  0  0  0  0  0  0  0  0  0  0
    3.9264   30.4432   25.0103 H   0  0  0  0  0  0  0  0  0  0  0  0
    4.3405   31.6070   23.7062 H   0  0  0  0  0  0  0  0  0  0  0  0
    2.7407   30.7900   23.7062 H   0  0  0  0  0  0  0  0  0  0  0  0
    6.4828   29.8738   24.2225 H   0  0  0  0  0  0  0  0  0  0  0  0
    6.8742   28.9044   22.7604 H   0  0  0  0  0  0  0  0  0  0  0  0
    5.8502   31.7789   22.6844 H   0  0  0  0  0  0  0  0  0  0  0  0
    7.6184   31.2746   22.6476 H   0  0  0  0  0  0  0  0  0  0  0  0
    5.6331   30.3081   20.6322 H   0  0  0  0  0  0  0  0  0  0  0  0
    8.4120   30.8160   19.9900 H   0  0  0  0  0  0  0  0  0  0  0  0
    8.2940   29.7810   21.1460 H   0  0  0  0  0  0  0  0  0  0  0  0
    7.2474   29.5627   18.3551 H   0  0  0  0  0  0  0  0  0  0  0  0
    8.4675   28.5168   19.2333 H   0  0  0  0  0  0  0  0  0  0  0  0
    5.8979   28.5383   20.5077 H   0  0  0  0  0  0  0  0  0  0  0  0
    6.0957   25.9519   20.0669 H   0  0  0  0  0  0  0  0  0  0  0  0
    7.8278   26.4699   19.6405 H   0  0  0  0  0  0  0  0  0  0  0  0
    5.5050   25.7064   22.3990 H   0  0  0  0  0  0  0  0  0  0  0  0
    6.2981   25.5851   24.7582 H   0  0  0  0  0  0  0  0  0  0  0  0
    8.5543   26.4454   25.3701 H   0  0  0  0  0  0  0  0  0  0  0  0
   10.0160   27.4564   23.6216 H   0  0  0  0  0  0  0  0  0  0  0  0
    9.2345   27.5751   21.2616 H   0  0  0  0  0  0  0  0  0  0  0  0
    5.5410   26.9360   18.0640 H   0  0  0  0  0  0  0  0  0  0  0  0
    3.6523   26.7434   17.1746 H   0  0  0  0  0  0  0  0  0  0  0  0
    3.1556   28.1931   15.4537 H   0  0  0  0  0  0  0  0  0  0  0  0
    2.0115   29.1228   16.4788 H   0  0  0  0  0  0  0  0  0  0  0  0
    4.3550   29.6680   17.4670 H   0  0  0  0  0  0  0  0  0  0  0  0
    1.1580   28.0030   17.9710 H   0  0  0  0  0  0  0  0  0  0  0  0
    0.2353   26.0472   20.4791 H   0  0  0  0  0  0  0  0  0  0  0  0
   -1.2957   24.5357   18.9718 H   0  0  0  0  0  0  0  0  0  0  0  0
    0.4128   24.0820   18.4055 H   0  0  0  0  0  0  0  0  0  0  0  0
   -1.0285   23.0806   20.5389 H   0  0  0  0  0  0  0  0  0  0  0  0
    1.3372   22.0041   21.0563 H   0  0  0  0  0  0  0  0  0  0  0  0
    0.4709   21.6248   19.5291 H   0  0  0  0  0  0  0  0  0  0  0  0
    1.8080   22.8243   19.5291 H   0  0  0  0  0  0  0  0  0  0  0  0
    0.0044   23.6183   22.5571 H   0  0  0  0  0  0  0  0  0  0  0  0
    1.4050   24.4044   21.7527 H   0  0  0  0  0  0  0  0  0  0  0  0
   -0.1998   25.2114   21.7527 H   0  0  0  0  0  0  0  0  0  0  0  0
   -0.9120   26.7820   17.8600 H   0  0  0  0  0  0  0  0  0  0  0  0
   -2.5504   28.0674   17.7387 H   0  0  0  0  0  0  0  0  0  0  0  0
   -3.3075   30.4247   19.1551 H   0  0  0  0  0  0  0  0  0  0  0  0
   -1.5564   30.1076   19.5407 H   0  0  0  0  0  0  0  0  0  0  0  0
   -0.6326   29.0548   16.5184 H   0  0  0  0  0  0  0  0  0  0  0  0
   -2.0920   32.7798   15.1819 H   0  0  0  0  0  0  0  0  0  0  0  0
   -2.8800   32.4270   17.6130 H   0  0  0  0  0  0  0  0  0  0  0  0
   -4.0380   27.1970   19.7400 H   0  0  0  0  0  0  0  0  0  0  0  0
   -6.8370   27.9409   19.3185 H   0  0  0  0  0  0  0  0  0  0  0  0
   -5.0267   25.9713   19.7768 H   0  0  0  0  0  0  0  0  0  0  0  0
   -6.7362   25.6454   20.0143 H   0  0  0  0  0  0  0  0  0  0  0  0
   -4.9927   25.0657   17.5397 H   0  0  0  0  0  0  0  0  0  0  0  0
   -6.0136   23.9211   18.3872 H   0  0  0  0  0  0  0  0  0  0  0  0
   -6.9386   25.1432   16.1697 H   0  0  0  0  0  0  0  0  0  0  0  0
   -8.0539   24.9494   17.5164 H   0  0  0  0  0  0  0  0  0  0  0  0
   -6.7270   27.3640   16.5450 H   0  0  0  0  0  0  0  0  0  0  0  0
   -8.1010   27.2480   17.4640 H   0  0  0  0  0  0  0  0  0  0  0  0
    6.2200   31.3060   18.2970 H   0  0  0  0  0  0  0  0  0  0  0  0
    6.0242   34.2234   18.3827 H   0  0  0  0  0  0  0  0  0  0  0  0
    8.3857   33.9599   18.7471 H   0  0  0  0  0  0  0  0  0  0  0  0
    8.5183   33.0597   17.1983 H   0  0  0  0  0  0  0  0  0  0  0  0
    7.9748   34.7718   17.1983 H   0  0  0  0  0  0  0  0  0  0  0  0
    4.0950   32.6760   17.5610 H   0  0  0  0  0  0  0  0  0  0  0  0
    3.2790   34.0875   15.7037 H   0  0  0  0  0  0  0  0  0  0  0  0
    5.2086   32.7625   14.2652 H   0  0  0  0  0  0  0  0  0  0  0  0
    3.6746   31.9102   13.7524 H   0  0  0  0  0  0  0  0  0  0  0  0
    5.3926   35.4592   13.2886 H   0  0  0  0  0  0  0  0  0  0  0  0
    3.8670   36.6320   11.5180 H   0  0  0  0  0  0  0  0  0  0  0  0
    1.7483   35.2770   10.9907 H   0  0  0  0  0  0  0  0  0  0  0  0
    1.9330   33.1890   12.4800 H   0  0  0  0  0  0  0  0  0  0  0  0
  1  2  1  0
  2  3  1  0
  3  4  1  0
  4  5  1  0
  5  6  1  0
  6  7  1  0
  7  8  1  0
  8  9  1  0
  9 10  1  0
 10 11  2  0
 11 12  1  0
 12 13  2  0
 13 14  1  0
 14 15  2  0
  8 16  1  0
 16 17  1  0
 17 18  2  0
 17 19  1  0
 19 20  1  0
 20 21  1  0
 19 22  1  0
 22 23  1  0
 23 24  2  0
 23 25  1  0
 25 26  1  0
 26 27  1  0
 27 28  1  0
 27 29  1  0
 25 30  1  0
 30 31  1  0
 31 32  2  0
 31 33  1  0
 33 34  1  0
 34 35  1  0
 35 36  2  0
 36 37  1  0
 37 38  2  0
 38 39  1  0
 33 40  1  0
 40 41  1  0
 41 42  2  0
 41 43  1  0
 43 44  1  0
 44 45  1  0
 45 46  1  0
 46 47  1  0
  5 48  1  0
 48 49  2  0
 48 50  1  0
 50 51  1  0
 51 52  1  0
 51 53  1  0
 53 54  2  0
 53 55  1  0
 55 56  1  0
 56 57  1  0
 57 58  1  0
 58 59  2  0
 59 60  1  0
 60 61  2  0
 61 62  1  0
 56 63  1  0
 63 64  2  0
 63 65  1  0
 15 10  1  0
 39 35  1  0
 47 43  1  0
 62 58  1  0
  1 66  1  0
  1 67  1  0
  1 68  1  0
  3 69  1  0
  3 70  1  0
  4 71  1  0
  4 72  1  0
  5 73  1  1
  6 74  1  0
  6 75  1  0
  7 76  1  0
  7 77  1  0
  8 78  1  1
  9 79  1  0
  9 80  1  0
 11 81  1  0
 12 82  1  0
 13 83  1  0
 14 84  1  0
 15 85  1  0
 16 86  1  0
 19 87  1  6
 20 88  1  0
 20 89  1  0
 21 90  1  0
 22 91  1  0
 25 92  1  1
 26 93  1  0
 26 94  1  0
 27 95  1  0
 28 96  1  0
 28 97  1  0
 28 98  1  0
 29 99  1  0
 29100  1  0
 29101  1  0
 30102  1  0
 33103  1  6
 34104  1  0
 34105  1  0
 36106  1  0
 38107  1  0
 39108  1  0
 40109  1  0
 43110  1  1
 44111  1  0
 44112  1  0
 45113  1  0
 45114  1  0
 46115  1  0
 46116  1  0
 47117  1  0
 47118  1  0
 50119  1  0
 51120  1  1
 52121  1  0
 52122  1  0
 52123  1  0
 55124  1  0
 56125  1  1
 57126  1  0
 57127  1  0
 59128  1  0
 60129  1  0
 61130  1  0
 62131  1  0
M  CHG  4   6   1  47   1  60   1  65  -1
M  END
>  <meeko>  (7) 
{"is_sidechain": [false], "free_energy": -8.047, "intermolecular_energy": -22.028, "internal_energy": -5.083}

$$$$
3uri_ligand
     RDKit          3D

131134  0  0  0  0  0  0  0  0999 V2000
    2.6580   20.8710   23.1210 C   0  0  0  0  0  0  0  0  0  0  0  0
    2.9950   22.1540   24.3560 S   0  0  0  0  0  0  0  0  0  0  0  0
    3.8000   23.3600   23.2590 C   0  0  0  0  0  0  0  0  0  0  0  0
    3.1540   24.7350   23.4440 C   0  0  0  0  0  0  0  0  0  0  0  0
    3.3430   25.7070   22.2690 C   0  0  2  0  0  0  0  0  0  0  0  0
    2.6690   27.0280   22.5120 N   0  0  0  0  0  0  0  0  0  0  0  0
    3.3080   28.2720   22.0330 C   0  0  0  0  0  0  0  0  0  0  0  0
    4.7800   28.0870   21.5450 C   0  0  2  0  0  0  0  0  0  0  0  0
    5.8700   28.7650   22.4140 C   0  0  0  0  0  0  0  0  0  0  0  0
    6.3200   30.1530   22.0090 C   0  0  0  0  0  0  0  0  0  0  0  0
    7.5710   30.4000   21.4350 C   0  0  0  0  0  0  0  0  0  0  0  0
    7.9310   31.6950   21.0510 C   0  0  0  0  0  0  0  0  0  0  0  0
    7.0520   32.7570   21.2490 C   0  0  0  0  0  0  0  0  0  0  0  0
    5.8150   32.5300   21.8430 C   0  0  0  0  0  0  0  0  0  0  0  0
    5.4520   31.2380   22.2250 C   0  0  0  0  0  0  0  0  0  0  0  0
    4.9670   28.4760   20.1340 N   0  0  0  0  0  0  0  0  0  0  0  0
    5.6200   27.6630   19.2240 C   0  0  0  0  0  0  0  0  0  0  0  0
    5.9580   26.5150   19.4990 O   0  0  0  0  0  0  0  0  0  0  0  0
    6.0350   28.3530   17.9110 C   0  0  2  0  0  0  0  0  0  0  0  0
    7.3490   29.1020   18.1590 C   0  0  0  0  0  0  0  0  0  0  0  0
    8.0260   29.3060   16.9070 O   0  0  0  0  0  0  0  0  0  0  0  0
    5.0080   29.2950   17.4480 N   0  0  0  0  0  0  0  0  0  0  0  0
    3.7970   28.8640   16.9640 C   0  0  0  0  0  0  0  0  0  0  0  0
    3.5300   27.6640   16.8770 O   0  0  0  0  0  0  0  0  0  0  0  0
    2.8350   29.9770   16.4550 C   0  0  2  0  0  0  0  0  0  0  0  0
    1.4810   29.4520   15.9380 C   0  0  0  0  0  0  0  0  0  0  0  0
    0.2610   29.6040   16.8740 C   0  0  0  0  0  0  0  0  0  0  0  0
    0.2680   28.5930   18.0200 C   0  0  0  0  0  0  0  0  0  0  0  0
    0.0730   31.0210   17.4160 C   0  0  0  0  0  0  0  0  0  0  0  0
    3.5750   30.8320   15.5260 N   0  0  0  0  0  0  0  0  0  0  0  0
    3.3420   32.1900   15.4300 C   0  0  0  0  0  0  0  0  0  0  0  0
    2.6640   32.8190   16.2390 O   0  0  0  0  0  0  0  0  0  0  0  0
    3.8720   32.8690   14.1490 C   0  0  2  0  0  0  0  0  0  0  0  0
    5.0030   33.8570   14.5200 C   0  0  0  0  0  0  0  0  0  0  0  0
    5.9730   33.2830   15.5030 C   0  0  0  0  0  0  0  0  0  0  0  0
    7.1880   32.6510   15.3590 C   0  0  0  0  0  0  0  0  0  0  0  0
    7.7800   32.4630   16.5760 N   0  0  0  0  0  0  0  0  0  0  0  0
    6.8840   32.8290   17.4630 C   0  0  0  0  0  0  0  0  0  0  0  0
    5.7610   33.3210   16.8620 N   0  0  0  0  0  0  0  0  0  0  0  0
    2.8320   33.4450   13.2550 N   0  0  0  0  0  0  0  0  0  0  0  0
    2.6530   34.8100   13.1140 C   0  0  0  0  0  0  0  0  0  0  0  0
    3.0610   35.6220   13.9380 O   0  0  0  0  0  0  0  0  0  0  0  0
    1.8040   35.2010   11.8820 C   0  0  2  0  0  0  0  0  0  0  0  0
    0.3740   35.5980   12.2280 C   0  0  0  0  0  0  0  0  0  0  0  0
   -0.3940   34.2910   12.1530 C   0  0  0  0  0  0  0  0  0  0  0  0
    0.1870   33.6180   10.9300 C   0  0  0  0  0  0  0  0  0  0  0  0
    1.6360   34.0060   10.9470 N   0  0  0  0  0  0  0  0  0  0  0  0
    2.8550   25.1080   20.9200 C   0  0  0  0  0  0  0  0  0  0  0  0
    3.5750   24.9960   19.9310 O   0  0  0  0  0  0  0  0  0  0  0  0
    1.5580   24.6240   20.9360 N   0  0  0  0  0  0  0  0  0  0  0  0
    1.0180   23.7450   19.8870 C   0  0  1  0  0  0  0  0  0  0  0  0
    0.6640   22.3370   20.3480 C   0  0  0  0  0  0  0  0  0  0  0  0
   -0.1400   24.4660   19.1590 C   0  0  0  0  0  0  0  0  0  0  0  0
    0.0370   25.0910   18.1140 O   0  0  0  0  0  0  0  0  0  0  0  0
   -1.3750   24.3890   19.7780 N   0  0  0  0  0  0  0  0  0  0  0  0
   -2.3390   25.5140   19.6430 C   0  0  1  0  0  0  0  0  0  0  0  0
   -3.7490   25.0790   20.0400 C   0  0  0  0  0  0  0  0  0  0  0  0
   -4.7910   25.4640   19.0540 C   0  0  0  0  0  0  0  0  0  0  0  0
   -5.2060   26.6710   18.5410 C   0  0  0  0  0  0  0  0  0  0  0  0
   -6.2350   26.4090   17.6630 N   0  0  0  0  0  0  0  0  0  0  0  0
   -6.4790   25.0980   17.6100 C   0  0  0  0  0  0  0  0  0  0  0  0
   -5.6140   24.5190   18.4460 N   0  0  0  0  0  0  0  0  0  0  0  0
   -1.9090   26.7470   20.4940 C   0  0  0  0  0  0  0  0  0  0  0  0
   -2.4560   27.8500   20.2490 O   0  0  0  0  0  0  0  0  0  0  0  0
   -1.0830   26.4990   21.4320 O   0  0  0  0  0  0  0  0  0  0  0  0
    2.4103   19.9279   23.6302 H   0  0  0  0  0  0  0  0  0  0  0  0
    1.8109   21.1814   22.4916 H   0  0  0  0  0  0  0  0  0  0  0  0
    3.5483   20.7250   22.4916 H   0  0  0  0  0  0  0  0  0  0  0  0
    4.8701   23.4222   23.5062 H   0  0  0  0  0  0  0  0  0  0  0  0
    3.6811   23.0387   22.2137 H   0  0  0  0  0  0  0  0  0  0  0  0
    2.0743   24.5870   23.5936 H   0  0  0  0  0  0  0  0  0  0  0  0
    3.6565   25.1961   24.3071 H   0  0  0  0  0  0  0  0  0  0  0  0
    4.4274   25.8770   22.1972 H   0  0  0  0  0  0  0  0  0  0  0  0
    1.7120   26.9620   22.1580 H   0  0  0  0  0  0  0  0  0  0  0  0
    2.4160   27.0830   23.5410 H   0  0  0  0  0  0  0  0  0  0  0  0
    2.7134   28.6651   21.1952 H   0  0  0  0  0  0  0  0  0  0  0  0
    3.3426   28.9606   22.8901 H   0  0  0  0  0  0  0  0  0  0  0  0
    4.9290   27.0027   21.6551 H   0  0  0  0  0  0  0  0  0  0  0  0
    5.4800   28.8309   23.4404 H   0  0  0  0  0  0  0  0  0  0  0  0
    6.7617   28.1329   22.2908 H   0  0  0  0  0  0  0  0  0  0  0  0
    8.2766   29.5696   21.2846 H   0  0  0  0  0  0  0  0  0  0  0  0
    8.9133   31.8761   20.5902 H   0  0  0  0  0  0  0  0  0  0  0  0
    7.3354   33.7729   20.9364 H   0  0  0  0  0  0  0  0  0  0  0  0
    5.1233   33.3685   22.0115 H   0  0  0  0  0  0  0  0  0  0  0  0
    4.4752   31.0662   22.7008 H   0  0  0  0  0  0  0  0  0  0  0  0
    5.1110   29.4660   19.9480 H   0  0  0  0  0  0  0  0  0  0  0  0
    6.1597   27.5897   17.1288 H   0  0  0  0  0  0  0  0  0  0  0  0
    7.1343   30.0759   18.6231 H   0  0  0  0  0  0  0  0  0  0  0  0
    7.9884   28.5099   18.8303 H   0  0  0  0  0  0  0  0  0  0  0  0
    7.5390   28.7770   16.2440 H   0  0  0  0  0  0  0  0  0  0  0  0
    5.2410   30.2790   17.5200 H   0  0  0  0  0  0  0  0  0  0  0  0
    2.5116   30.5984   17.3031 H   0  0  0  0  0  0  0  0  0  0  0  0
    1.2519   29.9891   15.0058 H   0  0  0  0  0  0  0  0  0  0  0  0
    1.6209   28.3665   15.8283 H   0  0  0  0  0  0  0  0  0  0  0  0
   -0.6048   29.3886   16.2307 H   0  0  0  0  0  0  0  0  0  0  0  0
    0.2643   29.1281   18.9811 H   0  0  0  0  0  0  0  0  0  0  0  0
   -0.6258   27.9554   17.9519 H   0  0  0  0  0  0  0  0  0  0  0  0
    1.1705   27.9678   17.9519 H   0  0  0  0  0  0  0  0  0  0  0  0
    0.0763   30.9964   18.5157 H   0  0  0  0  0  0  0  0  0  0  0  0
    0.8941   31.6612   17.0611 H   0  0  0  0  0  0  0  0  0  0  0  0
   -0.8866   31.4250   17.0611 H   0  0  0  0  0  0  0  0  0  0  0  0
    3.8020   30.3840   14.6370 H   0  0  0  0  0  0  0  0  0  0  0  0
    4.2936   32.0755   13.5145 H   0  0  0  0  0  0  0  0  0  0  0  0
    5.5488   34.1268   13.6039 H   0  0  0  0  0  0  0  0  0  0  0  0
    4.5356   34.7352   14.9894 H   0  0  0  0  0  0  0  0  0  0  0  0
    7.6220   32.3404   14.3971 H   0  0  0  0  0  0  0  0  0  0  0  0
    7.0205   32.7494   18.5516 H   0  0  0  0  0  0  0  0  0  0  0  0
    4.9350   33.6620   17.3380 H   0  0  0  0  0  0  0  0  0  0  0  0
    2.7160   32.8920   12.4120 H   0  0  0  0  0  0  0  0  0  0  0  0
    2.3481   36.0455   11.4340 H   0  0  0  0  0  0  0  0  0  0  0  0
    0.3203   36.0263   13.2398 H   0  0  0  0  0  0  0  0  0  0  0  0
   -0.0288   36.3670   11.5524 H   0  0  0  0  0  0  0  0  0  0  0  0
   -0.2269   33.6831   13.0544 H   0  0  0  0  0  0  0  0  0  0  0  0
   -1.4829   34.4337   12.0903 H   0  0  0  0  0  0  0  0  0  0  0  0
    0.0752   32.5257   10.9962 H   0  0  0  0  0  0  0  0  0  0  0  0
   -0.3190   33.9229   10.0021 H   0  0  0  0  0  0  0  0  0  0  0  0
    2.2090   33.2190   11.2850 H   0  0  0  0  0  0  0  0  0  0  0  0
    1.9590   34.2300    9.9970 H   0  0  0  0  0  0  0  0  0  0  0  0
    0.9740   24.7250   21.7590 H   0  0  0  0  0  0  0  0  0  0  0  0
    1.8294   23.5609   19.1674 H   0  0  0  0  0  0  0  0  0  0  0  0
    0.6553   22.3025   21.4474 H   0  0  0  0  0  0  0  0  0  0  0  0
   -0.3305   22.0649   19.9647 H   0  0  0  0  0  0  0  0  0  0  0  0
    1.4116   21.6269   19.9647 H   0  0  0  0  0  0  0  0  0  0  0  0
   -1.3490   23.9900   20.7200 H   0  0  0  0  0  0  0  0  0  0  0  0
   -2.3403   25.8093   18.5834 H   0  0  0  0  0  0  0  0  0  0  0  0
   -3.7581   23.9841   20.1457 H   0  0  0  0  0  0  0  0  0  0  0  0
   -3.9914   25.5928   20.9819 H   0  0  0  0  0  0  0  0  0  0  0  0
   -4.7933   27.6608   18.7860 H   0  0  0  0  0  0  0  0  0  0  0  0
   -6.7420   27.1110   17.1320 H   0  0  0  0  0  0  0  0  0  0  0  0
   -7.2420   24.5941   16.9984 H   0  0  0  0  0  0  0  0  0  0  0  0
   -5.5630   23.5180   18.6220 H   0  0  0  0  0  0  0  0  0  0  0  0
  1  2  1  0
  2  3  1  0
  3  4  1  0
  4  5  1  0
  5  6  1  0
  6  7  1  0
  7  8  1  0
  8  9  1  0
  9 10  1  0
 10 11  2  0
 11 12  1  0
 12 13  2  0
 13 14  1  0
 14 15  2  0
  8 16  1  0
 16 17  1  0
 17 18  2  0
 17 19  1  0
 19 20  1  0
 20 21  1  0
 19 22  1  0
 22 23  1  0
 23 24  2  0
 23 25  1  0
 25 26  1  0
 26 27  1  0
 27 28  1  0
 27 29  1  0
 25 30  1  0
 30 31  1  0
 31 32  2  0
 31 33  1  0
 33 34  1  0
 34 35  1  0
 35 36  2  0
 36 37  1  0
 37 38  2  0
 38 39  1  0
 33 40  1  0
 40 41  1  0
 41 42  2  0
 41 43  1  0
 43 44  1  0
 44 45  1  0
 45 46  1  0
 46 47  1  0
  5 48  1  0
 48 49  2  0
 48 50  1  0
 50 51  1  0
 51 52  1  0
 51 53  1  0
 53 54  2  0
 53 55  1  0
 55 56  1  0
 56 57  1  0
 57 58  1  0
 58 59  2  0
 59 60  1  0
 60 61  2  0
 61 62  1  0
 56 63  1  0
 63 64  2  0
 63 65  1  0
 15 10  1  0
 39 35  1  0
 47 43  1  0
 62 58  1  0
  1 66  1  0
  1 67  1  0
  1 68  1  0
  3 69  1  0
  3 70  1  0
  4 71  1  0
  4 72  1  0
  5 73  1  6
  6 74  1  0
  6 75  1  0
  7 76  1  0
  7 77  1  0
  8 78  1  6
  9 79  1  0
  9 80  1  0
 11 81  1  0
 12 82  1  0
 13 83  1  0
 14 84  1  0
 15 85  1  0
 16 86  1  0
 19 87  1  6
 20 88  1  0
 20 89  1  0
 21 90  1  0
 22 91  1  0
 25 92  1  1
 26 93  1  0
 26 94  1  0
 27 95  1  0
 28 96  1  0
 28 97  1  0
 28 98  1  0
 29 99  1  0
 29100  1  0
 29101  1  0
 30102  1  0
 33103  1  6
 34104  1  0
 34105  1  0
 36106  1  0
 38107  1  0
 39108  1  0
 40109  1  0
 43110  1  6
 44111  1  0
 44112  1  0
 45113  1  0
 45114  1  0
 46115  1  0
 46116  1  0
 47117  1  0
 47118  1  0
 50119  1  0
 51120  1  6
 52121  1  0
 52122  1  0
 52123  1  0
 55124  1  0
 56125  1  6
 57126  1  0
 57127  1  0
 59128  1  0
 60129  1  0
 61130  1  0
 62131  1  0
M  CHG  4   6   1  47   1  60   1  65  -1
M  END
>  <meeko>  (8) 
{"is_sidechain": [false], "free_energy": -7.918, "intermolecular_energy": -22.663, "internal_energy": -4.103}

$$$$
3uri_ligand
     RDKit          3D

131134  0  0  0  0  0  0  0  0999 V2000
    5.4880   24.9530   25.9230 C   0  0  0  0  0  0  0  0  0  0  0  0
    5.2170   26.2780   24.7160 S   0  0  0  0  0  0  0  0  0  0  0  0
    5.6330   25.3430   23.2120 C   0  0  0  0  0  0  0  0  0  0  0  0
    5.5850   26.2740   21.9980 C   0  0  0  0  0  0  0  0  0  0  0  0
    4.5710   25.8780   20.9130 C   0  0  2  0  0  0  0  0  0  0  0  0
    4.8790   26.5170   19.5890 N   0  0  0  0  0  0  0  0  0  0  0  0
    6.0290   27.4400   19.4740 C   0  0  0  0  0  0  0  0  0  0  0  0
    6.1410   28.1480   18.0860 C   0  0  2  0  0  0  0  0  0  0  0  0
    7.5090   28.8070   17.7720 C   0  0  0  0  0  0  0  0  0  0  0  0
    7.9910   29.8910   18.7130 C   0  0  0  0  0  0  0  0  0  0  0  0
    7.2630   30.2860   19.8410 C   0  0  0  0  0  0  0  0  0  0  0  0
    7.7620   31.2720   20.6960 C   0  0  0  0  0  0  0  0  0  0  0  0
    8.9840   31.8840   20.4270 C   0  0  0  0  0  0  0  0  0  0  0  0
    9.7060   31.5190   19.2950 C   0  0  0  0  0  0  0  0  0  0  0  0
    9.2110   30.5340   18.4410 C   0  0  0  0  0  0  0  0  0  0  0  0
    5.0620   29.1290   17.8560 N   0  0  0  0  0  0  0  0  0  0  0  0
    3.8850   28.7950   17.2100 C   0  0  0  0  0  0  0  0  0  0  0  0
    3.6100   27.6360   16.9130 O   0  0  0  0  0  0  0  0  0  0  0  0
    3.0320   29.9900   16.7460 C   0  0  2  0  0  0  0  0  0  0  0  0
    1.7690   29.4430   16.0710 C   0  0  0  0  0  0  0  0  0  0  0  0
    0.6920   30.3800   16.2440 O   0  0  0  0  0  0  0  0  0  0  0  0
    3.7660   30.8450   15.8050 N   0  0  0  0  0  0  0  0  0  0  0  0
    3.5810   32.2050   15.7680 C   0  0  0  0  0  0  0  0  0  0  0  0
    2.7720   32.7640   16.5100 O   0  0  0  0  0  0  0  0  0  0  0  0
    4.3860   32.9700   14.6770 C   0  0  2  0  0  0  0  0  0  0  0  0
    5.6770   33.6340   15.1940 C   0  0  0  0  0  0  0  0  0  0  0  0
    6.5170   32.8390   16.2190 C   0  0  0  0  0  0  0  0  0  0  0  0
    7.8670   32.3940   15.6560 C   0  0  0  0  0  0  0  0  0  0  0  0
    6.7090   33.5630   17.5510 C   0  0  0  0  0  0  0  0  0  0  0  0
    3.4630   33.8580   13.9660 N   0  0  0  0  0  0  0  0  0  0  0  0
    3.7780   34.4220   12.7450 C   0  0  0  0  0  0  0  0  0  0  0  0
    4.7420   34.0730   12.0670 O   0  0  0  0  0  0  0  0  0  0  0  0
    2.9210   35.6360   12.3300 C   0  0  2  0  0  0  0  0  0  0  0  0
    1.8820   35.1970   11.2710 C   0  0  0  0  0  0  0  0  0  0  0  0
    0.4850   35.1800   11.8050 C   0  0  0  0  0  0  0  0  0  0  0  0
   -0.2550   36.0960   12.5210 C   0  0  0  0  0  0  0  0  0  0  0  0
   -1.5550   35.6890   12.6260 N   0  0  0  0  0  0  0  0  0  0  0  0
   -1.5850   34.4760   12.1210 C   0  0  0  0  0  0  0  0  0  0  0  0
   -0.3660   34.1150   11.6230 N   0  0  0  0  0  0  0  0  0  0  0  0
    3.6830   36.8600   11.9620 N   0  0  0  0  0  0  0  0  0  0  0  0
    3.6020   38.0280   12.7000 C   0  0  0  0  0  0  0  0  0  0  0  0
    2.6750   38.2680   13.4650 O   0  0  0  0  0  0  0  0  0  0  0  0
    4.7310   39.0380   12.3890 C   0  0  2  0  0  0  0  0  0  0  0  0
    4.5310   40.3980   13.0460 C   0  0  0  0  0  0  0  0  0  0  0  0
    3.7460   41.1880   12.0150 C   0  0  0  0  0  0  0  0  0  0  0  0
    4.4000   40.7980   10.7090 C   0  0  0  0  0  0  0  0  0  0  0  0
    4.7690   39.3550   10.8960 N   0  0  0  0  0  0  0  0  0  0  0  0
    3.1060   26.1990   21.3240 C   0  0  0  0  0  0  0  0  0  0  0  0
    2.4170   25.4510   22.0120 O   0  0  0  0  0  0  0  0  0  0  0  0
    2.6530   27.4470   20.9260 N   0  0  0  0  0  0  0  0  0  0  0  0
    1.4380   28.0690   21.4730 C   0  0  1  0  0  0  0  0  0  0  0  0
    1.5470   29.5640   21.7440 C   0  0  0  0  0  0  0  0  0  0  0  0
    0.2250   27.6880   20.5920 C   0  0  0  0  0  0  0  0  0  0  0  0
   -0.6310   28.5120   20.2740 O   0  0  0  0  0  0  0  0  0  0  0  0
    0.1530   26.3590   20.2170 N   0  0  0  0  0  0  0  0  0  0  0  0
   -1.1760   25.7190   20.0230 C   0  0  1  0  0  0  0  0  0  0  0  0
   -1.0290   24.3090   19.4520 C   0  0  0  0  0  0  0  0  0  0  0  0
    0.2430   23.6430   19.8290 C   0  0  0  0  0  0  0  0  0  0  0  0
    1.4490   23.4810   19.1880 C   0  0  0  0  0  0  0  0  0  0  0  0
    2.2630   22.7530   20.0280 N   0  0  0  0  0  0  0  0  0  0  0  0
    1.6180   22.4550   21.1570 C   0  0  0  0  0  0  0  0  0  0  0  0
    0.3990   22.9860   21.0470 N   0  0  0  0  0  0  0  0  0  0  0  0
   -1.9900   25.6670   21.3510 C   0  0  0  0  0  0  0  0  0  0  0  0
   -3.2160   25.9350   21.3010 O   0  0  0  0  0  0  0  0  0  0  0  0
   -1.3400   25.2710   22.3730 O   0  0  0  0  0  0  0  0  0  0  0  0
    5.4044   25.3615   26.9409 H   0  0  0  0  0  0  0  0  0  0  0  0
    4.7321   24.1667   25.7803 H   0  0  0  0  0  0  0  0  0  0  0  0
    6.4919   24.5267   25.7803 H   0  0  0  0  0  0  0  0  0  0  0  0
    6.6445   24.9222   23.3107 H   0  0  0  0  0  0  0  0  0  0  0  0
    4.9066   24.5283   23.0761 H   0  0  0  0  0  0  0  0  0  0  0  0
    5.3283   27.2832   22.3524 H   0  0  0  0  0  0  0  0  0  0  0  0
    6.5771   26.2146   21.5267 H   0  0  0  0  0  0  0  0  0  0  0  0
    4.6658   24.7875   20.8042 H   0  0  0  0  0  0  0  0  0  0  0  0
    4.9520   25.7730   18.8900 H   0  0  0  0  0  0  0  0  0  0  0  0
    3.9850   26.9480   19.2170 H   0  0  0  0  0  0  0  0  0  0  0  0
    5.9301   28.2137   20.2497 H   0  0  0  0  0  0  0  0  0  0  0  0
    6.9377   26.8319   19.5946 H   0  0  0  0  0  0  0  0  0  0  0  0
    6.0357   27.3068   17.3850 H   0  0  0  0  0  0  0  0  0  0  0  0
    8.2670   28.0099   17.7706 H   0  0  0  0  0  0  0  0  0  0  0  0
    7.3623   29.3155   16.8077 H   0  0  0  0  0  0  0  0  0  0  0  0
    6.2914   29.8171   20.0560 H   0  0  0  0  0  0  0  0  0  0  0  0
    7.1868   31.5665   21.5862 H   0  0  0  0  0  0  0  0  0  0  0  0
    9.3771   32.6536   21.1075 H   0  0  0  0  0  0  0  0  0  0  0  0
   10.6666   32.0071   19.0739 H   0  0  0  0  0  0  0  0  0  0  0  0
    9.7826   30.2566   17.5430 H   0  0  0  0  0  0  0  0  0  0  0  0
    5.3480   30.0890   17.6790 H   0  0  0  0  0  0  0  0  0  0  0  0
    2.7743   30.6067   17.6197 H   0  0  0  0  0  0  0  0  0  0  0  0
    1.9601   29.2974   14.9976 H   0  0  0  0  0  0  0  0  0  0  0  0
    1.4957   28.4802   16.5274 H   0  0  0  0  0  0  0  0  0  0  0  0
    0.5340   30.7790   15.3650 H   0  0  0  0  0  0  0  0  0  0  0  0
    4.4250   30.3740   15.1960 H   0  0  0  0  0  0  0  0  0  0  0  0
    4.7937   32.2511   13.9511 H   0  0  0  0  0  0  0  0  0  0  0  0
    6.3188   33.8329   14.3230 H   0  0  0  0  0  0  0  0  0  0  0  0
    5.3385   34.5287   15.7370 H   0  0  0  0  0  0  0  0  0  0  0  0
    5.9173   31.9402   16.4251 H   0  0  0  0  0  0  0  0  0  0  0  0
    8.5535   32.1677   16.4852 H   0  0  0  0  0  0  0  0  0  0  0  0
    7.7282   31.4941   15.0389 H   0  0  0  0  0  0  0  0  0  0  0  0
    8.2906   33.2001   15.0389 H   0  0  0  0  0  0  0  0  0  0  0  0
    6.5234   32.8629   18.3789 H   0  0  0  0  0  0  0  0  0  0  0  0
    7.7391   33.9434   17.6164 H   0  0  0  0  0  0  0  0  0  0  0  0
    6.0028   34.4038   17.6164 H   0  0  0  0  0  0  0  0  0  0  0  0
    2.9140   34.4650   14.5760 H   0  0  0  0  0  0  0  0  0  0  0  0
    2.3839   35.9724   13.2291 H   0  0  0  0  0  0  0  0  0  0  0  0
    1.9262   35.8968   10.4235 H   0  0  0  0  0  0  0  0  0  0  0  0
    2.1331   34.1707   10.9649 H   0  0  0  0  0  0  0  0  0  0  0  0
    0.1458   37.0267   12.9490 H   0  0  0  0  0  0  0  0  0  0  0  0
   -2.4779   33.8338   12.1020 H   0  0  0  0  0  0  0  0  0  0  0  0
   -0.1430   33.2280   11.1880 H   0  0  0  0  0  0  0  0  0  0  0  0
    4.5970   36.6320   11.5880 H   0  0  0  0  0  0  0  0  0  0  0  0
    5.6425   38.5507   12.7656 H   0  0  0  0  0  0  0  0  0  0  0  0
    3.9611   40.3008   13.9818 H   0  0  0  0  0  0  0  0  0  0  0  0
    5.4805   40.8817   13.3189 H   0  0  0  0  0  0  0  0  0  0  0  0
    2.6837   40.9027   12.0247 H   0  0  0  0  0  0  0  0  0  0  0  0
    3.7626   42.2724   12.1986 H   0  0  0  0  0  0  0  0  0  0  0  0
    3.6972   40.9151    9.8709 H   0  0  0  0  0  0  0  0  0  0  0  0
    5.2702   41.4270   10.4702 H   0  0  0  0  0  0  0  0  0  0  0  0
    4.0990   38.7520   10.3970 H   0  0  0  0  0  0  0  0  0  0  0  0
    5.6990   39.1670   10.5000 H   0  0  0  0  0  0  0  0  0  0  0  0
    3.2320   28.0530   20.3560 H   0  0  0  0  0  0  0  0  0  0  0  0
    1.2879   27.6567   22.4817 H   0  0  0  0  0  0  0  0  0  0  0  0
    1.5598   29.7398   22.8298 H   0  0  0  0  0  0  0  0  0  0  0  0
    2.4757   29.9506   21.2990 H   0  0  0  0  0  0  0  0  0  0  0  0
    0.6842   30.0812   21.2990 H   0  0  0  0  0  0  0  0  0  0  0  0
    0.8280   25.7510   20.6880 H   0  0  0  0  0  0  0  0  0  0  0  0
   -1.7284   26.3407   19.3030 H   0  0  0  0  0  0  0  0  0  0  0  0
   -1.8647   23.6960   19.8206 H   0  0  0  0  0  0  0  0  0  0  0  0
   -1.0301   24.4039   18.3561 H   0  0  0  0  0  0  0  0  0  0  0  0
    1.7142   23.8617   18.1906 H   0  0  0  0  0  0  0  0  0  0  0  0
    3.2190   22.4760   19.8200 H   0  0  0  0  0  0  0  0  0  0  0  0
    2.0132   21.8842   22.0102 H   0  0  0  0  0  0  0  0  0  0  0  0
   -0.3280   22.9190   21.7560 H   0  0  0  0  0  0  0  0  0  0  0  0
  1  2  1  0
  2  3  1  0
  3  4  1  0
  4  5  1  0
  5  6  1  0
  6  7  1  0
  7  8  1  0
  8  9  1  0
  9 10  1  0
 10 11  2  0
 11 12  1  0
 12 13  2  0
 13 14  1  0
 14 15  2  0
  8 16  1  0
 16 17  1  0
 17 18  2  0
 17 19  1  0
 19 20  1  0
 20 21  1  0
 19 22  1  0
 22 23  1  0
 23 24  2  0
 23 25  1  0
 25 26  1  0
 26 27  1  0
 27 28  1  0
 27 29  1  0
 25 30  1  0
 30 31  1  0
 31 32  2  0
 31 33  1  0
 33 34  1  0
 34 35  1  0
 35 36  2  0
 36 37  1  0
 37 38  2  0
 38 39  1  0
 33 40  1  0
 40 41  1  0
 41 42  2  0
 41 43  1  0
 43 44  1  0
 44 45  1  0
 45 46  1  0
 46 47  1  0
  5 48  1  0
 48 49  2  0
 48 50  1  0
 50 51  1  0
 51 52  1  0
 51 53  1  0
 53 54  2  0
 53 55  1  0
 55 56  1  0
 56 57  1  0
 57 58  1  0
 58 59  2  0
 59 60  1  0
 60 61  2  0
 61 62  1  0
 56 63  1  0
 63 64  2  0
 63 65  1  0
 15 10  1  0
 39 35  1  0
 47 43  1  0
 62 58  1  0
  1 66  1  0
  1 67  1  0
  1 68  1  0
  3 69  1  0
  3 70  1  0
  4 71  1  0
  4 72  1  0
  5 73  1  6
  6 74  1  0
  6 75  1  0
  7 76  1  0
  7 77  1  0
  8 78  1  6
  9 79  1  0
  9 80  1  0
 11 81  1  0
 12 82  1  0
 13 83  1  0
 14 84  1  0
 15 85  1  0
 16 86  1  0
 19 87  1  1
 20 88  1  0
 20 89  1  0
 21 90  1  0
 22 91  1  0
 25 92  1  6
 26 93  1  0
 26 94  1  0
 27 95  1  0
 28 96  1  0
 28 97  1  0
 28 98  1  0
 29 99  1  0
 29100  1  0
 29101  1  0
 30102  1  0
 33103  1  1
 34104  1  0
 34105  1  0
 36106  1  0
 38107  1  0
 39108  1  0
 40109  1  0
 43110  1  1
 44111  1  0
 44112  1  0
 45113  1  0
 45114  1  0
 46115  1  0
 46116  1  0
 47117  1  0
 47118  1  0
 50119  1  0
 51120  1  1
 52121  1  0
 52122  1  0
 52123  1  0
 55124  1  0
 56125  1  6
 57126  1  0
 57127  1  0
 59128  1  0
 60129  1  0
 61130  1  0
 62131  1  0
M  CHG  4   6   1  47   1  60   1  65  -1
M  END
>  <meeko>  (9) 
{"is_sidechain": [false], "free_energy": -7.897, "intermolecular_energy": -21.839, "internal_energy": -4.872}

$$$$
