4cra_ligand
     RDKit          3D

 63 67  0  0  0  0  0  0  0  0999 V2000
  -18.5880  -47.5690  -11.3420 N   0  0  0  0  0  0  0  0  0  0  0  0
  -19.5740  -48.5290  -11.5600 C   0  0  0  0  0  0  0  0  0  0  0  0
  -20.8960  -48.1580  -11.7020 C   0  0  0  0  0  0  0  0  0  0  0  0
  -21.8430  -49.1500  -11.9350 C   0  0  0  0  0  0  0  0  0  0  0  0
  -21.4570  -50.5010  -12.0270 C   0  0  0  0  0  0  0  0  0  0  0  0
  -22.3590  -51.5790  -12.2640 C   0  0  0  0  0  0  0  0  0  0  0  0
  -23.8460  -51.3780  -12.4410 C   0  0  0  0  0  0  0  0  0  0  0  0
  -24.5660  -52.6190  -12.3000 N   0  0  0  0  0  0  0  0  0  0  0  0
  -25.5020  -52.8190  -11.3030 C   0  0  0  0  0  0  0  0  0  0  0  0
  -25.7250  -51.9790  -10.4350 O   0  0  0  0  0  0  0  0  0  0  0  0
  -26.3350  -54.1140  -11.4800 C   0  0  2  0  0  0  0  0  0  0  0  0
  -25.8370  -55.2710  -10.5870 C   0  0  0  0  0  0  0  0  0  0  0  0
  -26.6470  -55.5130   -9.3280 C   0  0  0  0  0  0  0  0  0  0  0  0
  -27.9770  -55.0720   -9.2490 C   0  0  0  0  0  0  0  0  0  0  0  0
  -28.7400  -55.3210   -8.1070 C   0  0  0  0  0  0  0  0  0  0  0  0
  -28.1810  -56.0070   -7.0320 C   0  0  0  0  0  0  0  0  0  0  0  0
  -26.8590  -56.4400   -7.0960 C   0  0  0  0  0  0  0  0  0  0  0  0
  -26.0950  -56.1940   -8.2370 C   0  0  0  0  0  0  0  0  0  0  0  0
  -26.4550  -54.5110  -12.8920 N   0  0  0  0  0  0  0  0  0  0  0  0
  -27.5960  -55.0590  -13.4250 C   0  0  0  0  0  0  0  0  0  0  0  0
  -28.6140  -55.2310  -12.7600 O   0  0  0  0  0  0  0  0  0  0  0  0
  -27.5720  -55.4250  -14.8680 C   0  0  0  0  0  0  0  0  0  0  0  0
  -28.3310  -56.5340  -15.2720 C   0  0  0  0  0  0  0  0  0  0  0  0
  -28.3510  -56.9280  -16.6120 C   0  0  0  0  0  0  0  0  0  0  0  0
  -27.6150  -56.2060  -17.5490 C   0  0  0  0  0  0  0  0  0  0  0  0
  -27.6340  -56.6000  -18.8930 N   0  0  0  0  0  0  0  0  0  0  0  0
  -26.9500  -55.9480  -19.8810 C   0  0  0  0  0  0  0  0  0  0  0  0
  -26.9820  -56.3120  -21.0520 O   0  0  0  0  0  0  0  0  0  0  0  0
  -26.1540  -54.7640  -19.4820 C   0  0  0  0  0  0  0  0  0  0  0  0
  -26.1120  -54.3610  -18.2060 C   0  0  0  0  0  0  0  0  0  0  0  0
  -25.3850  -53.2690  -17.7860 O   0  0  0  0  0  0  0  0  0  0  0  0
  -26.8590  -55.0870  -17.1680 C   0  0  0  0  0  0  0  0  0  0  0  0
  -26.8470  -54.6970  -15.8200 C   0  0  0  0  0  0  0  0  0  0  0  0
  -21.8640  -52.8930  -12.3010 C   0  0  0  0  0  0  0  0  0  0  0  0
  -20.5080  -53.1410  -12.1410 C   0  0  0  0  0  0  0  0  0  0  0  0
  -19.6330  -52.0750  -11.9320 C   0  0  0  0  0  0  0  0  0  0  0  0
  -20.0760  -50.7630  -11.8670 C   0  0  0  0  0  0  0  0  0  0  0  0
  -19.1620  -49.8020  -11.6460 N   0  0  0  0  0  0  0  0  0  0  0  0
  -18.8510  -46.6750  -11.7390 H   0  0  0  0  0  0  0  0  0  0  0  0
  -18.4600  -47.5100  -10.3340 H   0  0  0  0  0  0  0  0  0  0  0  0
  -21.1940  -47.1014  -11.6325 H   0  0  0  0  0  0  0  0  0  0  0  0
  -22.9025  -48.8767  -12.0483 H   0  0  0  0  0  0  0  0  0  0  0  0
  -24.2040  -50.6683  -11.6806 H   0  0  0  0  0  0  0  0  0  0  0  0
  -24.0240  -50.9882  -13.4541 H   0  0  0  0  0  0  0  0  0  0  0  0
  -24.6700  -53.1990  -13.1320 H   0  0  0  0  0  0  0  0  0  0  0  0
  -27.3506  -53.8745  -11.1318 H   0  0  0  0  0  0  0  0  0  0  0  0
  -25.8549  -56.1939  -11.1852 H   0  0  0  0  0  0  0  0  0  0  0  0
  -24.8301  -54.9835  -10.2502 H   0  0  0  0  0  0  0  0  0  0  0  0
  -28.4217  -54.5257  -10.0939 H   0  0  0  0  0  0  0  0  0  0  0  0
  -29.7830  -54.9752   -8.0563 H   0  0  0  0  0  0  0  0  0  0  0  0
  -28.7829  -56.2067   -6.1332 H   0  0  0  0  0  0  0  0  0  0  0  0
  -26.4160  -56.9774   -6.2446 H   0  0  0  0  0  0  0  0  0  0  0  0
  -25.0510  -56.5378   -8.2795 H   0  0  0  0  0  0  0  0  0  0  0  0
  -25.6800  -54.2650  -13.4930 H   0  0  0  0  0  0  0  0  0  0  0  0
  -28.9142  -57.0969  -14.5284 H   0  0  0  0  0  0  0  0  0  0  0  0
  -28.9428  -57.8009  -16.9247 H   0  0  0  0  0  0  0  0  0  0  0  0
  -28.1730  -57.4030  -19.1850 H   0  0  0  0  0  0  0  0  0  0  0  0
  -25.5894  -54.2081  -20.2450 H   0  0  0  0  0  0  0  0  0  0  0  0
  -25.1790  -52.7120  -18.5570 H   0  0  0  0  0  0  0  0  0  0  0  0
  -26.2659  -53.8160  -15.5098 H   0  0  0  0  0  0  0  0  0  0  0  0
  -22.5571  -53.7326  -12.4581 H   0  0  0  0  0  0  0  0  0  0  0  0
  -20.1256  -54.1717  -12.1788 H   0  0  0  0  0  0  0  0  0  0  0  0
  -18.5589  -52.2817  -11.8152 H   0  0  0  0  0  0  0  0  0  0  0  0
  1  2  1  0
  2  3  2  0
  3  4  1  0
  4  5  2  0
  5  6  1  0
  6  7  1  0
  7  8  1  0
  8  9  1  0
  9 10  2  0
  9 11  1  0
 11 12  1  0
 12 13  1  0
 13 14  2  0
 14 15  1  0
 15 16  2  0
 16 17  1  0
 17 18  2  0
 11 19  1  0
 19 20  1  0
 20 21  2  0
 20 22  1  0
 22 23  2  0
 23 24  1  0
 24 25  2  0
 25 26  1  0
 26 27  1  0
 27 28  2  0
 27 29  1  0
 29 30  2  0
 30 31  1  0
 30 32  1  0
 32 33  2  0
  6 34  2  0
 34 35  1  0
 35 36  2  0
 36 37  1  0
 37 38  2  0
 38  2  1  0
 37  5  1  0
 18 13  1  0
 33 22  1  0
 32 25  1  0
  1 39  1  0
  1 40  1  0
  3 41  1  0
  4 42  1  0
  7 43  1  0
  7 44  1  0
  8 45  1  0
 11 46  1  1
 12 47  1  0
 12 48  1  0
 14 49  1  0
 15 50  1  0
 16 51  1  0
 17 52  1  0
 18 53  1  0
 19 54  1  0
 23 55  1  0
 24 56  1  0
 26 57  1  0
 29 58  1  0
 31 59  1  0
 33 60  1  0
 34 61  1  0
 35 62  1  0
 36 63  1  0
M  END
>  <meeko>  (1) 
{"is_sidechain": [false], "free_energy": -10.068, "intermolecular_energy": -14.776, "internal_energy": -1.253}

$$$$
4cra_ligand
     RDKit          3D

 63 67  0  0  0  0  0  0  0  0999 V2000
  -27.9170  -54.6540  -21.8160 N   0  0  0  0  0  0  0  0  0  0  0  0
  -27.6290  -54.6770  -20.4530 C   0  0  0  0  0  0  0  0  0  0  0  0
  -28.5150  -55.2410  -19.5580 C   0  0  0  0  0  0  0  0  0  0  0  0
  -28.1770  -55.2570  -18.2080 C   0  0  0  0  0  0  0  0  0  0  0  0
  -26.9540  -54.7120  -17.7700 C   0  0  0  0  0  0  0  0  0  0  0  0
  -26.5280  -54.6850  -16.4100 C   0  0  0  0  0  0  0  0  0  0  0  0
  -27.3600  -55.2490  -15.2810 C   0  0  0  0  0  0  0  0  0  0  0  0
  -26.7850  -54.9360  -13.9960 N   0  0  0  0  0  0  0  0  0  0  0  0
  -27.5620  -54.5970  -12.9050 C   0  0  0  0  0  0  0  0  0  0  0  0
  -28.7820  -54.4740  -12.9800 O   0  0  0  0  0  0  0  0  0  0  0  0
  -26.7740  -54.5470  -11.5700 C   0  0  2  0  0  0  0  0  0  0  0  0
  -27.6640  -54.1760  -10.3650 C   0  0  0  0  0  0  0  0  0  0  0  0
  -27.4510  -55.0140   -9.1190 C   0  0  0  0  0  0  0  0  0  0  0  0
  -28.4300  -55.0450   -8.1140 C   0  0  0  0  0  0  0  0  0  0  0  0
  -28.2570  -55.8400   -6.9800 C   0  0  0  0  0  0  0  0  0  0  0  0
  -27.1040  -56.6060   -6.8360 C   0  0  0  0  0  0  0  0  0  0  0  0
  -26.1210  -56.5750   -7.8230 C   0  0  0  0  0  0  0  0  0  0  0  0
  -26.2930  -55.7830   -8.9590 C   0  0  0  0  0  0  0  0  0  0  0  0
  -25.5760  -53.6970  -11.6620 N   0  0  0  0  0  0  0  0  0  0  0  0
  -24.3410  -54.1750  -12.0230 C   0  0  0  0  0  0  0  0  0  0  0  0
  -24.1550  -55.3500  -12.3250 O   0  0  0  0  0  0  0  0  0  0  0  0
  -23.2130  -53.2030  -12.0620 C   0  0  0  0  0  0  0  0  0  0  0  0
  -22.0190  -53.6130  -12.6730 C   0  0  0  0  0  0  0  0  0  0  0  0
  -20.9250  -52.7470  -12.7420 C   0  0  0  0  0  0  0  0  0  0  0  0
  -21.0310  -51.4660  -12.2040 C   0  0  0  0  0  0  0  0  0  0  0  0
  -19.9340  -50.5960  -12.2730 N   0  0  0  0  0  0  0  0  0  0  0  0
  -19.9490  -49.3210  -11.7810 C   0  0  0  0  0  0  0  0  0  0  0  0
  -18.9770  -48.5790  -11.8520 O   0  0  0  0  0  0  0  0  0  0  0  0
  -21.2050  -48.8590  -11.1450 C   0  0  0  0  0  0  0  0  0  0  0  0
  -22.2710  -49.6650  -11.0600 C   0  0  0  0  0  0  0  0  0  0  0  0
  -23.4590  -49.2810  -10.4770 O   0  0  0  0  0  0  0  0  0  0  0  0
  -22.2200  -51.0320  -11.6000 C   0  0  0  0  0  0  0  0  0  0  0  0
  -23.3140  -51.9070  -11.5370 C   0  0  0  0  0  0  0  0  0  0  0  0
  -25.3020  -54.0820  -16.0860 C   0  0  0  0  0  0  0  0  0  0  0  0
  -24.4960  -53.5440  -17.0800 C   0  0  0  0  0  0  0  0  0  0  0  0
  -24.9150  -53.5950  -18.4090 C   0  0  0  0  0  0  0  0  0  0  0  0
  -26.1260  -54.1620  -18.7760 C   0  0  0  0  0  0  0  0  0  0  0  0
  -26.4540  -54.1520  -20.0800 N   0  0  0  0  0  0  0  0  0  0  0  0
  -28.6620  -55.3010  -22.0450 H   0  0  0  0  0  0  0  0  0  0  0  0
  -28.1710  -53.6940  -22.0410 H   0  0  0  0  0  0  0  0  0  0  0  0
  -29.4676  -55.6686  -19.9040 H   0  0  0  0  0  0  0  0  0  0  0  0
  -28.8704  -55.6987  -17.4772 H   0  0  0  0  0  0  0  0  0  0  0  0
  -28.3720  -54.8212  -15.3340 H   0  0  0  0  0  0  0  0  0  0  0  0
  -27.3925  -56.3433  -15.3883 H   0  0  0  0  0  0  0  0  0  0  0  0
  -25.8650  -55.3220  -13.7870 H   0  0  0  0  0  0  0  0  0  0  0  0
  -26.4208  -55.5720  -11.3842 H   0  0  0  0  0  0  0  0  0  0  0  0
  -27.4648  -53.1256  -10.1061 H   0  0  0  0  0  0  0  0  0  0  0  0
  -28.7002  -54.3628  -10.6835 H   0  0  0  0  0  0  0  0  0  0  0  0
  -29.3410  -54.4379   -8.2209 H   0  0  0  0  0  0  0  0  0  0  0  0
  -29.0322  -55.8612   -6.1998 H   0  0  0  0  0  0  0  0  0  0  0  0
  -26.9689  -57.2352   -5.9439 H   0  0  0  0  0  0  0  0  0  0  0  0
  -25.2072  -57.1762   -7.7065 H   0  0  0  0  0  0  0  0  0  0  0  0
  -25.5128  -55.7631   -9.7341 H   0  0  0  0  0  0  0  0  0  0  0  0
  -25.7220  -52.7030  -11.5440 H   0  0  0  0  0  0  0  0  0  0  0  0
  -21.9434  -54.6235  -13.1009 H   0  0  0  0  0  0  0  0  0  0  0  0
  -19.9881  -53.0735  -13.2169 H   0  0  0  0  0  0  0  0  0  0  0  0
  -19.0700  -50.8930  -12.7050 H   0  0  0  0  0  0  0  0  0  0  0  0
  -21.2626  -47.8392  -10.7368 H   0  0  0  0  0  0  0  0  0  0  0  0
  -23.3160  -49.1600   -9.5220 H   0  0  0  0  0  0  0  0  0  0  0  0
  -24.2550  -51.5752  -11.0739 H   0  0  0  0  0  0  0  0  0  0  0  0
  -24.9776  -54.0355  -15.0360 H   0  0  0  0  0  0  0  0  0  0  0  0
  -23.5328  -53.0803  -16.8208 H   0  0  0  0  0  0  0  0  0  0  0  0
  -24.2653  -53.1727  -19.1897 H   0  0  0  0  0  0  0  0  0  0  0  0
  1  2  1  0
  2  3  2  0
  3  4  1  0
  4  5  2  0
  5  6  1  0
  6  7  1  0
  7  8  1  0
  8  9  1  0
  9 10  2  0
  9 11  1  0
 11 12  1  0
 12 13  1  0
 13 14  2  0
 14 15  1  0
 15 16  2  0
 16 17  1  0
 17 18  2  0
 11 19  1  0
 19 20  1  0
 20 21  2  0
 20 22  1  0
 22 23  2  0
 23 24  1  0
 24 25  2  0
 25 26  1  0
 26 27  1  0
 27 28  2  0
 27 29  1  0
 29 30  2  0
 30 31  1  0
 30 32  1  0
 32 33  2  0
  6 34  2  0
 34 35  1  0
 35 36  2  0
 36 37  1  0
 37 38  2  0
 38  2  1  0
 37  5  1  0
 18 13  1  0
 33 22  1  0
 32 25  1  0
  1 39  1  0
  1 40  1  0
  3 41  1  0
  4 42  1  0
  7 43  1  0
  7 44  1  0
  8 45  1  0
 11 46  1  1
 12 47  1  0
 12 48  1  0
 14 49  1  0
 15 50  1  0
 16 51  1  0
 17 52  1  0
 18 53  1  0
 19 54  1  0
 23 55  1  0
 24 56  1  0
 26 57  1  0
 29 58  1  0
 31 59  1  0
 33 60  1  0
 34 61  1  0
 35 62  1  0
 36 63  1  0
M  END
>  <meeko>  (2) 
{"is_sidechain": [false], "free_energy": -10.036, "intermolecular_energy": -14.652, "internal_energy": -1.331}

$$$$
4cra_ligand
     RDKit          3D

 63 67  0  0  0  0  0  0  0  0999 V2000
  -18.5090  -47.3360  -11.4670 N   0  0  0  0  0  0  0  0  0  0  0  0
  -19.4690  -48.3320  -11.6390 C   0  0  0  0  0  0  0  0  0  0  0  0
  -20.8020  -48.0040  -11.7830 C   0  0  0  0  0  0  0  0  0  0  0  0
  -21.7220  -49.0320  -11.9690 C   0  0  0  0  0  0  0  0  0  0  0  0
  -21.2970  -50.3730  -12.0140 C   0  0  0  0  0  0  0  0  0  0  0  0
  -22.1690  -51.4860  -12.2010 C   0  0  0  0  0  0  0  0  0  0  0  0
  -23.6630  -51.3350  -12.3720 C   0  0  0  0  0  0  0  0  0  0  0  0
  -24.3340  -52.6080  -12.2870 N   0  0  0  0  0  0  0  0  0  0  0  0
  -25.3140  -52.8630  -11.3470 C   0  0  0  0  0  0  0  0  0  0  0  0
  -25.6230  -52.0470  -10.4830 O   0  0  0  0  0  0  0  0  0  0  0  0
  -26.0780  -54.1910  -11.5870 C   0  0  2  0  0  0  0  0  0  0  0  0
  -26.9760  -54.1450  -12.8420 C   0  0  0  0  0  0  0  0  0  0  0  0
  -27.9460  -55.3010  -12.9870 C   0  0  0  0  0  0  0  0  0  0  0  0
  -27.4880  -56.5580  -13.4110 C   0  0  0  0  0  0  0  0  0  0  0  0
  -28.3680  -57.6350  -13.5150 C   0  0  0  0  0  0  0  0  0  0  0  0
  -29.7150  -57.4670  -13.2020 C   0  0  0  0  0  0  0  0  0  0  0  0
  -30.1820  -56.2220  -12.7900 C   0  0  0  0  0  0  0  0  0  0  0  0
  -29.3030  -55.1430  -12.6830 C   0  0  0  0  0  0  0  0  0  0  0  0
  -26.8120  -54.6350  -10.3910 N   0  0  0  0  0  0  0  0  0  0  0  0
  -26.5610  -55.8250   -9.7530 C   0  0  0  0  0  0  0  0  0  0  0  0
  -25.6790  -56.5940  -10.1230 O   0  0  0  0  0  0  0  0  0  0  0  0
  -27.3900  -56.1520   -8.5600 C   0  0  0  0  0  0  0  0  0  0  0  0
  -28.4950  -55.3330   -8.2890 C   0  0  0  0  0  0  0  0  0  0  0  0
  -29.3130  -55.5880   -7.1850 C   0  0  0  0  0  0  0  0  0  0  0  0
  -29.0260  -56.6710   -6.3570 C   0  0  0  0  0  0  0  0  0  0  0  0
  -29.8450  -56.9280   -5.2490 N   0  0  0  0  0  0  0  0  0  0  0  0
  -29.6450  -57.9710   -4.3880 C   0  0  0  0  0  0  0  0  0  0  0  0
  -30.3750  -58.1760   -3.4250 O   0  0  0  0  0  0  0  0  0  0  0  0
  -28.4930  -58.8610   -4.6630 C   0  0  0  0  0  0  0  0  0  0  0  0
  -27.6890  -58.6430   -5.7110 C   0  0  0  0  0  0  0  0  0  0  0  0
  -26.6050  -59.4410   -6.0060 O   0  0  0  0  0  0  0  0  0  0  0  0
  -27.9330  -57.5100   -6.6180 C   0  0  0  0  0  0  0  0  0  0  0  0
  -27.1190  -57.2480   -7.7290 C   0  0  0  0  0  0  0  0  0  0  0  0
  -21.6360  -52.7850  -12.1930 C   0  0  0  0  0  0  0  0  0  0  0  0
  -20.2710  -52.9870  -12.0370 C   0  0  0  0  0  0  0  0  0  0  0  0
  -19.4260  -51.8900  -11.8760 C   0  0  0  0  0  0  0  0  0  0  0  0
  -19.9080  -50.5890  -11.8570 C   0  0  0  0  0  0  0  0  0  0  0  0
  -19.0210  -49.5940  -11.6810 N   0  0  0  0  0  0  0  0  0  0  0  0
  -18.3150  -46.8580  -12.3390 H   0  0  0  0  0  0  0  0  0  0  0  0
  -18.8780  -46.6990  -10.7630 H   0  0  0  0  0  0  0  0  0  0  0  0
  -21.1298  -46.9544  -11.7515 H   0  0  0  0  0  0  0  0  0  0  0  0
  -22.7901  -48.7943  -12.0818 H   0  0  0  0  0  0  0  0  0  0  0  0
  -24.0485  -50.6739  -11.5819 H   0  0  0  0  0  0  0  0  0  0  0  0
  -23.8559  -50.9080  -13.3672 H   0  0  0  0  0  0  0  0  0  0  0  0
  -24.3650  -53.1800  -13.1310 H   0  0  0  0  0  0  0  0  0  0  0  0
  -25.3113  -54.9536  -11.7885 H   0  0  0  0  0  0  0  0  0  0  0  0
  -27.5600  -53.2135  -12.8081 H   0  0  0  0  0  0  0  0  0  0  0  0
  -26.2966  -54.2079  -13.7048 H   0  0  0  0  0  0  0  0  0  0  0  0
  -26.4261  -56.6949  -13.6634 H   0  0  0  0  0  0  0  0  0  0  0  0
  -27.9983  -58.6173  -13.8443 H   0  0  0  0  0  0  0  0  0  0  0  0
  -30.4087  -58.3171  -13.2803 H   0  0  0  0  0  0  0  0  0  0  0  0
  -31.2467  -56.0882  -12.5481 H   0  0  0  0  0  0  0  0  0  0  0  0
  -29.6793  -54.1619  -12.3576 H   0  0  0  0  0  0  0  0  0  0  0  0
  -27.4560  -53.9680   -9.9870 H   0  0  0  0  0  0  0  0  0  0  0  0
  -28.7199  -54.4832   -8.9503 H   0  0  0  0  0  0  0  0  0  0  0  0
  -30.1756  -54.9395   -6.9717 H   0  0  0  0  0  0  0  0  0  0  0  0
  -30.6370  -56.3330   -5.0470 H   0  0  0  0  0  0  0  0  0  0  0  0
  -28.2954  -59.7134   -3.9964 H   0  0  0  0  0  0  0  0  0  0  0  0
  -26.1320  -59.6460   -5.1810 H   0  0  0  0  0  0  0  0  0  0  0  0
  -26.2646  -57.9048   -7.9494 H   0  0  0  0  0  0  0  0  0  0  0  0
  -22.3053  -53.6499  -12.3113 H   0  0  0  0  0  0  0  0  0  0  0  0
  -19.8588  -54.0069  -12.0404 H   0  0  0  0  0  0  0  0  0  0  0  0
  -18.3455  -52.0608  -11.7606 H   0  0  0  0  0  0  0  0  0  0  0  0
  1  2  1  0
  2  3  2  0
  3  4  1  0
  4  5  2  0
  5  6  1  0
  6  7  1  0
  7  8  1  0
  8  9  1  0
  9 10  2  0
  9 11  1  0
 11 12  1  0
 12 13  1  0
 13 14  2  0
 14 15  1  0
 15 16  2  0
 16 17  1  0
 17 18  2  0
 11 19  1  0
 19 20  1  0
 20 21  2  0
 20 22  1  0
 22 23  2  0
 23 24  1  0
 24 25  2  0
 25 26  1  0
 26 27  1  0
 27 28  2  0
 27 29  1  0
 29 30  2  0
 30 31  1  0
 30 32  1  0
 32 33  2  0
  6 34  2  0
 34 35  1  0
 35 36  2  0
 36 37  1  0
 37 38  2  0
 38  2  1  0
 37  5  1  0
 18 13  1  0
 33 22  1  0
 32 25  1  0
  1 39  1  0
  1 40  1  0
  3 41  1  0
  4 42  1  0
  7 43  1  0
  7 44  1  0
  8 45  1  0
 11 46  1  6
 12 47  1  0
 12 48  1  0
 14 49  1  0
 15 50  1  0
 16 51  1  0
 17 52  1  0
 18 53  1  0
 19 54  1  0
 23 55  1  0
 24 56  1  0
 26 57  1  0
 29 58  1  0
 31 59  1  0
 33 60  1  0
 34 61  1  0
 35 62  1  0
 36 63  1  0
M  END
>  <meeko>  (3) 
{"is_sidechain": [false], "free_energy": -9.707, "intermolecular_energy": -14.259, "internal_energy": -1.241}

$$$$
4cra_ligand
     RDKit          3D

 63 67  0  0  0  0  0  0  0  0999 V2000
  -31.0030  -56.7560   -7.6990 N   0  0  0  0  0  0  0  0  0  0  0  0
  -29.9640  -56.2880   -8.5010 C   0  0  0  0  0  0  0  0  0  0  0  0
  -28.7990  -55.8130   -7.9340 C   0  0  0  0  0  0  0  0  0  0  0  0
  -27.7820  -55.3720   -8.7760 C   0  0  0  0  0  0  0  0  0  0  0  0
  -27.9420  -55.4160  -10.1740 C   0  0  0  0  0  0  0  0  0  0  0  0
  -26.9540  -54.9860  -11.1090 C   0  0  0  0  0  0  0  0  0  0  0  0
  -25.6140  -54.4300  -10.6850 C   0  0  0  0  0  0  0  0  0  0  0  0
  -24.9800  -53.7080  -11.7600 N   0  0  0  0  0  0  0  0  0  0  0  0
  -24.6070  -52.3830  -11.6380 C   0  0  0  0  0  0  0  0  0  0  0  0
  -24.8550  -51.7210  -10.6330 O   0  0  0  0  0  0  0  0  0  0  0  0
  -23.7220  -51.8740  -12.8050 C   0  0  2  0  0  0  0  0  0  0  0  0
  -23.3800  -50.3730  -12.6840 C   0  0  0  0  0  0  0  0  0  0  0  0
  -21.9570  -50.0640  -12.2630 C   0  0  0  0  0  0  0  0  0  0  0  0
  -20.9840  -51.0760  -12.2660 C   0  0  0  0  0  0  0  0  0  0  0  0
  -19.6650  -50.7930  -11.9120 C   0  0  0  0  0  0  0  0  0  0  0  0
  -19.3040  -49.4990  -11.5480 C   0  0  0  0  0  0  0  0  0  0  0  0
  -20.2630  -48.4880  -11.5320 C   0  0  0  0  0  0  0  0  0  0  0  0
  -21.5830  -48.7690  -11.8870 C   0  0  0  0  0  0  0  0  0  0  0  0
  -24.2860  -52.2140  -14.1210 N   0  0  0  0  0  0  0  0  0  0  0  0
  -23.9150  -53.3270  -14.8330 C   0  0  0  0  0  0  0  0  0  0  0  0
  -23.1000  -54.1390  -14.4040 O   0  0  0  0  0  0  0  0  0  0  0  0
  -24.5590  -53.5410  -16.1590 C   0  0  0  0  0  0  0  0  0  0  0  0
  -23.8270  -53.1920  -17.3040 C   0  0  0  0  0  0  0  0  0  0  0  0
  -24.3760  -53.3690  -18.5760 C   0  0  0  0  0  0  0  0  0  0  0  0
  -25.6570  -53.9020  -18.7010 C   0  0  0  0  0  0  0  0  0  0  0  0
  -26.2090  -54.0800  -19.9770 N   0  0  0  0  0  0  0  0  0  0  0  0
  -27.4520  -54.6020  -20.1960 C   0  0  0  0  0  0  0  0  0  0  0  0
  -27.9140  -54.7480  -21.3220 O   0  0  0  0  0  0  0  0  0  0  0  0
  -28.2390  -54.9930  -19.0030 C   0  0  0  0  0  0  0  0  0  0  0  0
  -27.7440  -54.8350  -17.7690 C   0  0  0  0  0  0  0  0  0  0  0  0
  -28.4370  -55.1820  -16.6300 O   0  0  0  0  0  0  0  0  0  0  0  0
  -26.4010  -54.2690  -17.5700 C   0  0  0  0  0  0  0  0  0  0  0  0
  -25.8410  -54.0900  -16.2960 C   0  0  0  0  0  0  0  0  0  0  0  0
  -27.2380  -55.0430  -12.4830 C   0  0  0  0  0  0  0  0  0  0  0  0
  -28.4530  -55.5410  -12.9320 C   0  0  0  0  0  0  0  0  0  0  0  0
  -29.4020  -55.9780  -12.0090 C   0  0  0  0  0  0  0  0  0  0  0  0
  -29.1770  -55.9230  -10.6420 C   0  0  0  0  0  0  0  0  0  0  0  0
  -30.1550  -56.3520   -9.8260 N   0  0  0  0  0  0  0  0  0  0  0  0
  -31.8890  -56.7250   -8.1890 H   0  0  0  0  0  0  0  0  0  0  0  0
  -30.7550  -57.7060   -7.4290 H   0  0  0  0  0  0  0  0  0  0  0  0
  -28.6768  -55.7835   -6.8412 H   0  0  0  0  0  0  0  0  0  0  0  0
  -26.8461  -54.9861   -8.3457 H   0  0  0  0  0  0  0  0  0  0  0  0
  -25.7623  -53.7483   -9.8346 H   0  0  0  0  0  0  0  0  0  0  0  0
  -24.9640  -55.2712  -10.4023 H   0  0  0  0  0  0  0  0  0  0  0  0
  -24.4720  -54.2520  -12.4560 H   0  0  0  0  0  0  0  0  0  0  0  0
  -22.7663  -52.4124  -12.7224 H   0  0  0  0  0  0  0  0  0  0  0  0
  -23.5535  -49.9050  -13.6642 H   0  0  0  0  0  0  0  0  0  0  0  0
  -24.0256  -49.9776  -11.8860 H   0  0  0  0  0  0  0  0  0  0  0  0
  -21.2643  -52.1011  -12.5500 H   0  0  0  0  0  0  0  0  0  0  0  0
  -18.9098  -51.5927  -11.9205 H   0  0  0  0  0  0  0  0  0  0  0  0
  -18.2628  -49.2746  -11.2732 H   0  0  0  0  0  0  0  0  0  0  0  0
  -19.9789  -47.4665  -11.2390 H   0  0  0  0  0  0  0  0  0  0  0  0
  -22.3352  -47.9665  -11.8712 H   0  0  0  0  0  0  0  0  0  0  0  0
  -25.0510  -51.6360  -14.4430 H   0  0  0  0  0  0  0  0  0  0  0  0
  -22.8140  -52.7762  -17.1992 H   0  0  0  0  0  0  0  0  0  0  0  0
  -23.8017  -53.0899  -19.4717 H   0  0  0  0  0  0  0  0  0  0  0  0
  -25.6860  -53.8210  -20.8030 H   0  0  0  0  0  0  0  0  0  0  0  0
  -29.2447  -55.4193  -19.1330 H   0  0  0  0  0  0  0  0  0  0  0  0
  -29.3010  -54.7340  -16.6390 H   0  0  0  0  0  0  0  0  0  0  0  0
  -26.4105  -54.3818  -15.4013 H   0  0  0  0  0  0  0  0  0  0  0  0
  -26.4912  -54.6900  -13.2094 H   0  0  0  0  0  0  0  0  0  0  0  0
  -28.6661  -55.5906  -14.0100 H   0  0  0  0  0  0  0  0  0  0  0  0
  -30.3583  -56.3786  -12.3764 H   0  0  0  0  0  0  0  0  0  0  0  0
  1  2  1  0
  2  3  2  0
  3  4  1  0
  4  5  2  0
  5  6  1  0
  6  7  1  0
  7  8  1  0
  8  9  1  0
  9 10  2  0
  9 11  1  0
 11 12  1  0
 12 13  1  0
 13 14  2  0
 14 15  1  0
 15 16  2  0
 16 17  1  0
 17 18  2  0
 11 19  1  0
 19 20  1  0
 20 21  2  0
 20 22  1  0
 22 23  2  0
 23 24  1  0
 24 25  2  0
 25 26  1  0
 26 27  1  0
 27 28  2  0
 27 29  1  0
 29 30  2  0
 30 31  1  0
 30 32  1  0
 32 33  2  0
  6 34  2  0
 34 35  1  0
 35 36  2  0
 36 37  1  0
 37 38  2  0
 38  2  1  0
 37  5  1  0
 18 13  1  0
 33 22  1  0
 32 25  1  0
  1 39  1  0
  1 40  1  0
  3 41  1  0
  4 42  1  0
  7 43  1  0
  7 44  1  0
  8 45  1  0
 11 46  1  1
 12 47  1  0
 12 48  1  0
 14 49  1  0
 15 50  1  0
 16 51  1  0
 17 52  1  0
 18 53  1  0
 19 54  1  0
 23 55  1  0
 24 56  1  0
 26 57  1  0
 29 58  1  0
 31 59  1  0
 33 60  1  0
 34 61  1  0
 35 62  1  0
 36 63  1  0
M  END
>  <meeko>  (4) 
{"is_sidechain": [false], "free_energy": -9.589, "intermolecular_energy": -13.925, "internal_energy": -1.402}

$$$$
4cra_ligand
     RDKit          3D

 63 67  0  0  0  0  0  0  0  0999 V2000
  -27.8690  -54.8470  -21.5580 N   0  0  0  0  0  0  0  0  0  0  0  0
  -27.2840  -54.5800  -20.3210 C   0  0  0  0  0  0  0  0  0  0  0  0
  -26.2450  -53.6770  -20.2170 C   0  0  0  0  0  0  0  0  0  0  0  0
  -25.7040  -53.4290  -18.9590 C   0  0  0  0  0  0  0  0  0  0  0  0
  -26.2100  -54.0860  -17.8210 C   0  0  0  0  0  0  0  0  0  0  0  0
  -25.7160  -53.8940  -16.4970 C   0  0  0  0  0  0  0  0  0  0  0  0
  -24.5800  -52.9490  -16.1770 C   0  0  0  0  0  0  0  0  0  0  0  0
  -24.5220  -52.6540  -14.7670 N   0  0  0  0  0  0  0  0  0  0  0  0
  -23.3730  -52.1860  -14.1590 C   0  0  0  0  0  0  0  0  0  0  0  0
  -22.3130  -52.0600  -14.7670 O   0  0  0  0  0  0  0  0  0  0  0  0
  -23.5920  -51.6960  -12.7050 C   0  0  2  0  0  0  0  0  0  0  0  0
  -22.3240  -51.8240  -11.8340 C   0  0  0  0  0  0  0  0  0  0  0  0
  -21.4510  -50.5860  -11.7720 C   0  0  0  0  0  0  0  0  0  0  0  0
  -22.0070  -49.3180  -12.0010 C   0  0  0  0  0  0  0  0  0  0  0  0
  -21.2180  -48.1710  -11.9130 C   0  0  0  0  0  0  0  0  0  0  0  0
  -19.8650  -48.2790  -11.6010 C   0  0  0  0  0  0  0  0  0  0  0  0
  -19.3000  -49.5330  -11.3810 C   0  0  0  0  0  0  0  0  0  0  0  0
  -20.0880  -50.6820  -11.4670 C   0  0  0  0  0  0  0  0  0  0  0  0
  -24.7660  -52.3210  -12.0770 N   0  0  0  0  0  0  0  0  0  0  0  0
  -24.8980  -53.6780  -11.9120 C   0  0  0  0  0  0  0  0  0  0  0  0
  -24.0230  -54.4680  -12.2540 O   0  0  0  0  0  0  0  0  0  0  0  0
  -26.1470  -54.1740  -11.2710 C   0  0  0  0  0  0  0  0  0  0  0  0
  -27.3670  -53.8580  -11.8870 C   0  0  0  0  0  0  0  0  0  0  0  0
  -28.5730  -54.2940  -11.3350 C   0  0  0  0  0  0  0  0  0  0  0  0
  -28.5570  -55.0540  -10.1680 C   0  0  0  0  0  0  0  0  0  0  0  0
  -29.7670  -55.4920   -9.6130 N   0  0  0  0  0  0  0  0  0  0  0  0
  -29.8470  -56.2480   -8.4770 C   0  0  0  0  0  0  0  0  0  0  0  0
  -30.9180  -56.6190   -8.0100 O   0  0  0  0  0  0  0  0  0  0  0  0
  -28.5710  -56.6080   -7.8150 C   0  0  0  0  0  0  0  0  0  0  0  0
  -27.3980  -56.2050   -8.3170 C   0  0  0  0  0  0  0  0  0  0  0  0
  -26.1860  -56.5130   -7.7370 O   0  0  0  0  0  0  0  0  0  0  0  0
  -27.3480  -55.3920   -9.5420 C   0  0  0  0  0  0  0  0  0  0  0  0
  -26.1410  -54.9510  -10.1040 C   0  0  0  0  0  0  0  0  0  0  0  0
  -26.2750  -54.6310  -15.4410 C   0  0  0  0  0  0  0  0  0  0  0  0
  -27.3190  -55.5160  -15.6740 C   0  0  0  0  0  0  0  0  0  0  0  0
  -27.8070  -55.6800  -16.9700 C   0  0  0  0  0  0  0  0  0  0  0  0
  -27.2740  -54.9900  -18.0480 C   0  0  0  0  0  0  0  0  0  0  0  0
  -27.7990  -55.2230  -19.2640 N   0  0  0  0  0  0  0  0  0  0  0  0
  -27.1750  -55.1300  -22.2390 H   0  0  0  0  0  0  0  0  0  0  0  0
  -28.5600  -55.5780  -21.3980 H   0  0  0  0  0  0  0  0  0  0  0  0
  -25.8535  -53.1650  -21.1084 H   0  0  0  0  0  0  0  0  0  0  0  0
  -24.8747  -52.7142  -18.8528 H   0  0  0  0  0  0  0  0  0  0  0  0
  -23.6312  -53.4128  -16.4849 H   0  0  0  0  0  0  0  0  0  0  0  0
  -24.7492  -52.0079  -16.7207 H   0  0  0  0  0  0  0  0  0  0  0  0
  -25.3990  -52.4290  -14.2980 H   0  0  0  0  0  0  0  0  0  0  0  0
  -23.8070  -50.6194  -12.7744 H   0  0  0  0  0  0  0  0  0  0  0  0
  -22.6394  -52.0687  -10.8090 H   0  0  0  0  0  0  0  0  0  0  0  0
  -21.7096  -52.6053  -12.3054 H   0  0  0  0  0  0  0  0  0  0  0  0
  -23.0742  -49.2278  -12.2521 H   0  0  0  0  0  0  0  0  0  0  0  0
  -21.6644  -47.1814  -12.0900 H   0  0  0  0  0  0  0  0  0  0  0  0
  -19.2430  -47.3746  -11.5284 H   0  0  0  0  0  0  0  0  0  0  0  0
  -18.2303  -49.6181  -11.1389 H   0  0  0  0  0  0  0  0  0  0  0  0
  -19.6350  -51.6694  -11.2940 H   0  0  0  0  0  0  0  0  0  0  0  0
  -25.4450  -51.6920  -11.6690 H   0  0  0  0  0  0  0  0  0  0  0  0
  -27.3736  -53.2623  -12.8117 H   0  0  0  0  0  0  0  0  0  0  0  0
  -29.5280  -54.0393  -11.8178 H   0  0  0  0  0  0  0  0  0  0  0  0
  -30.6470  -55.2580  -10.0510 H   0  0  0  0  0  0  0  0  0  0  0  0
  -28.5884  -57.2151   -6.8979 H   0  0  0  0  0  0  0  0  0  0  0  0
  -25.9430  -57.4220   -7.9820 H   0  0  0  0  0  0  0  0  0  0  0  0
  -25.1857  -55.2158   -9.6272 H   0  0  0  0  0  0  0  0  0  0  0  0
  -25.8827  -54.5063  -14.4209 H   0  0  0  0  0  0  0  0  0  0  0  0
  -27.7587  -56.0845  -14.8412 H   0  0  0  0  0  0  0  0  0  0  0  0
  -28.6398  -56.3777  -17.1422 H   0  0  0  0  0  0  0  0  0  0  0  0
  1  2  1  0
  2  3  2  0
  3  4  1  0
  4  5  2  0
  5  6  1  0
  6  7  1  0
  7  8  1  0
  8  9  1  0
  9 10  2  0
  9 11  1  0
 11 12  1  0
 12 13  1  0
 13 14  2  0
 14 15  1  0
 15 16  2  0
 16 17  1  0
 17 18  2  0
 11 19  1  0
 19 20  1  0
 20 21  2  0
 20 22  1  0
 22 23  2  0
 23 24  1  0
 24 25  2  0
 25 26  1  0
 26 27  1  0
 27 28  2  0
 27 29  1  0
 29 30  2  0
 30 31  1  0
 30 32  1  0
 32 33  2  0
  6 34  2  0
 34 35  1  0
 35 36  2  0
 36 37  1  0
 37 38  2  0
 38  2  1  0
 37  5  1  0
 18 13  1  0
 33 22  1  0
 32 25  1  0
  1 39  1  0
  1 40  1  0
  3 41  1  0
  4 42  1  0
  7 43  1  0
  7 44  1  0
  8 45  1  0
 11 46  1  6
 12 47  1  0
 12 48  1  0
 14 49  1  0
 15 50  1  0
 16 51  1  0
 17 52  1  0
 18 53  1  0
 19 54  1  0
 23 55  1  0
 24 56  1  0
 26 57  1  0
 29 58  1  0
 31 59  1  0
 33 60  1  0
 34 61  1  0
 35 62  1  0
 36 63  1  0
M  END
>  <meeko>  (5) 
{"is_sidechain": [false], "free_energy": -9.517, "intermolecular_energy": -14.256, "internal_energy": -0.964}

$$$$
4cra_ligand
     RDKit          3D

 63 67  0  0  0  0  0  0  0  0999 V2000
  -25.1680  -55.2890  -19.9870 N   0  0  0  0  0  0  0  0  0  0  0  0
  -25.9450  -55.4960  -18.8490 C   0  0  0  0  0  0  0  0  0  0  0  0
  -26.3020  -54.4360  -18.0410 C   0  0  0  0  0  0  0  0  0  0  0  0
  -27.0940  -54.6890  -16.9240 C   0  0  0  0  0  0  0  0  0  0  0  0
  -27.5220  -55.9990  -16.6330 C   0  0  0  0  0  0  0  0  0  0  0  0
  -28.3320  -56.3480  -15.5130 C   0  0  0  0  0  0  0  0  0  0  0  0
  -28.8220  -55.3300  -14.5090 C   0  0  0  0  0  0  0  0  0  0  0  0
  -27.8970  -55.1860  -13.4120 N   0  0  0  0  0  0  0  0  0  0  0  0
  -28.0110  -54.1710  -12.4810 C   0  0  0  0  0  0  0  0  0  0  0  0
  -28.8630  -53.2900  -12.5710 O   0  0  0  0  0  0  0  0  0  0  0  0
  -27.0800  -54.3430  -11.2530 C   0  0  2  0  0  0  0  0  0  0  0  0
  -27.7930  -54.0500   -9.9170 C   0  0  0  0  0  0  0  0  0  0  0  0
  -27.5770  -55.0810   -8.8260 C   0  0  0  0  0  0  0  0  0  0  0  0
  -26.3610  -55.7780   -8.7460 C   0  0  0  0  0  0  0  0  0  0  0  0
  -26.1410  -56.7030   -7.7250 C   0  0  0  0  0  0  0  0  0  0  0  0
  -27.1330  -56.9460   -6.7790 C   0  0  0  0  0  0  0  0  0  0  0  0
  -28.3470  -56.2670   -6.8540 C   0  0  0  0  0  0  0  0  0  0  0  0
  -28.5690  -55.3390   -7.8730 C   0  0  0  0  0  0  0  0  0  0  0  0
  -25.8260  -53.5850  -11.3950 N   0  0  0  0  0  0  0  0  0  0  0  0
  -24.7180  -54.0760  -12.0400 C   0  0  0  0  0  0  0  0  0  0  0  0
  -24.7070  -55.1820  -12.5730 O   0  0  0  0  0  0  0  0  0  0  0  0
  -23.5130  -53.2040  -12.0970 C   0  0  0  0  0  0  0  0  0  0  0  0
  -22.3710  -53.7100  -12.7350 C   0  0  0  0  0  0  0  0  0  0  0  0
  -21.2090  -52.9400  -12.8220 C   0  0  0  0  0  0  0  0  0  0  0  0
  -21.1940  -51.6590  -12.2750 C   0  0  0  0  0  0  0  0  0  0  0  0
  -20.0290  -50.8850  -12.3610 N   0  0  0  0  0  0  0  0  0  0  0  0
  -19.9250  -49.6170  -11.8620 C   0  0  0  0  0  0  0  0  0  0  0  0
  -18.8940  -48.9590  -11.9490 O   0  0  0  0  0  0  0  0  0  0  0  0
  -21.1240  -49.0540  -11.1980 C   0  0  0  0  0  0  0  0  0  0  0  0
  -22.2530  -49.7660  -11.0960 C   0  0  0  0  0  0  0  0  0  0  0  0
  -23.3910  -49.2860  -10.4860 O   0  0  0  0  0  0  0  0  0  0  0  0
  -22.3290  -51.1290  -11.6440 C   0  0  0  0  0  0  0  0  0  0  0  0
  -23.4920  -51.9080  -11.5630 C   0  0  0  0  0  0  0  0  0  0  0  0
  -28.6690  -57.6950  -15.3020 C   0  0  0  0  0  0  0  0  0  0  0  0
  -28.2450  -58.6750  -16.1880 C   0  0  0  0  0  0  0  0  0  0  0  0
  -27.4710  -58.3180  -17.2920 C   0  0  0  0  0  0  0  0  0  0  0  0
  -27.0960  -57.0050  -17.5310 C   0  0  0  0  0  0  0  0  0  0  0  0
  -26.3350  -56.7560  -18.6120 N   0  0  0  0  0  0  0  0  0  0  0  0
  -25.6670  -55.5580  -20.8270 H   0  0  0  0  0  0  0  0  0  0  0  0
  -24.9250  -54.3000  -19.9940 H   0  0  0  0  0  0  0  0  0  0  0  0
  -25.9684  -53.4140  -18.2740 H   0  0  0  0  0  0  0  0  0  0  0  0
  -27.3876  -53.8595  -16.2639 H   0  0  0  0  0  0  0  0  0  0  0  0
  -28.9358  -54.3580  -15.0112 H   0  0  0  0  0  0  0  0  0  0  0  0
  -29.7854  -55.6764  -14.1066 H   0  0  0  0  0  0  0  0  0  0  0  0
  -27.4010  -56.0210  -13.1020 H   0  0  0  0  0  0  0  0  0  0  0  0
  -26.8048  -55.4076  -11.2240 H   0  0  0  0  0  0  0  0  0  0  0  0
  -27.4311  -53.0804   -9.5444 H   0  0  0  0  0  0  0  0  0  0  0  0
  -28.8704  -54.0635  -10.1385 H   0  0  0  0  0  0  0  0  0  0  0  0
  -25.5758  -55.5934   -9.4939 H   0  0  0  0  0  0  0  0  0  0  0  0
  -25.1831  -57.2407   -7.6675 H   0  0  0  0  0  0  0  0  0  0  0  0
  -26.9583  -57.6737   -5.9728 H   0  0  0  0  0  0  0  0  0  0  0  0
  -29.1322  -56.4624   -6.1089 H   0  0  0  0  0  0  0  0  0  0  0  0
  -29.5302  -54.8069   -7.9273 H   0  0  0  0  0  0  0  0  0  0  0  0
  -25.8460  -52.6240  -11.0800 H   0  0  0  0  0  0  0  0  0  0  0  0
  -22.3907  -54.7202  -13.1698 H   0  0  0  0  0  0  0  0  0  0  0  0
  -20.3133  -53.3417  -13.3183 H   0  0  0  0  0  0  0  0  0  0  0  0
  -19.2020  -51.2510  -12.8130 H   0  0  0  0  0  0  0  0  0  0  0  0
  -21.0858  -48.0361  -10.7828 H   0  0  0  0  0  0  0  0  0  0  0  0
  -23.8990  -48.7660  -11.1320 H   0  0  0  0  0  0  0  0  0  0  0  0
  -24.3916  -51.5006  -11.0785 H   0  0  0  0  0  0  0  0  0  0  0  0
  -29.2740  -57.9754  -14.4272 H   0  0  0  0  0  0  0  0  0  0  0  0
  -28.5177  -59.7274  -16.0207 H   0  0  0  0  0  0  0  0  0  0  0  0
  -27.1486  -59.1014  -17.9937 H   0  0  0  0  0  0  0  0  0  0  0  0
  1  2  1  0
  2  3  2  0
  3  4  1  0
  4  5  2  0
  5  6  1  0
  6  7  1  0
  7  8  1  0
  8  9  1  0
  9 10  2  0
  9 11  1  0
 11 12  1  0
 12 13  1  0
 13 14  2  0
 14 15  1  0
 15 16  2  0
 16 17  1  0
 17 18  2  0
 11 19  1  0
 19 20  1  0
 20 21  2  0
 20 22  1  0
 22 23  2  0
 23 24  1  0
 24 25  2  0
 25 26  1  0
 26 27  1  0
 27 28  2  0
 27 29  1  0
 29 30  2  0
 30 31  1  0
 30 32  1  0
 32 33  2  0
  6 34  2  0
 34 35  1  0
 35 36  2  0
 36 37  1  0
 37 38  2  0
 38  2  1  0
 37  5  1  0
 18 13  1  0
 33 22  1  0
 32 25  1  0
  1 39  1  0
  1 40  1  0
  3 41  1  0
  4 42  1  0
  7 43  1  0
  7 44  1  0
  8 45  1  0
 11 46  1  1
 12 47  1  0
 12 48  1  0
 14 49  1  0
 15 50  1  0
 16 51  1  0
 17 52  1  0
 18 53  1  0
 19 54  1  0
 23 55  1  0
 24 56  1  0
 26 57  1  0
 29 58  1  0
 31 59  1  0
 33 60  1  0
 34 61  1  0
 35 62  1  0
 36 63  1  0
M  END
>  <meeko>  (6) 
{"is_sidechain": [false], "free_energy": -9.372, "intermolecular_energy": -13.667, "internal_energy": -1.342}

$$$$
4cra_ligand
     RDKit          3D

 63 67  0  0  0  0  0  0  0  0999 V2000
  -26.9110  -58.7900  -15.9590 N   0  0  0  0  0  0  0  0  0  0  0  0
  -27.2700  -57.7610  -15.0910 C   0  0  0  0  0  0  0  0  0  0  0  0
  -26.3150  -57.1260  -14.3230 C   0  0  0  0  0  0  0  0  0  0  0  0
  -26.7180  -56.0920  -13.4830 C   0  0  0  0  0  0  0  0  0  0  0  0
  -28.0710  -55.7030  -13.4250 C   0  0  0  0  0  0  0  0  0  0  0  0
  -28.5700  -54.6570  -12.5950 C   0  0  0  0  0  0  0  0  0  0  0  0
  -27.6840  -53.8460  -11.6780 C   0  0  0  0  0  0  0  0  0  0  0  0
  -26.6380  -53.1770  -12.4120 N   0  0  0  0  0  0  0  0  0  0  0  0
  -25.3500  -53.0660  -11.9230 C   0  0  0  0  0  0  0  0  0  0  0  0
  -25.0360  -53.4660  -10.8050 O   0  0  0  0  0  0  0  0  0  0  0  0
  -24.3300  -52.5410  -12.9660 C   0  0  2  0  0  0  0  0  0  0  0  0
  -23.9130  -51.0770  -12.7090 C   0  0  0  0  0  0  0  0  0  0  0  0
  -22.4980  -50.8860  -12.2000 C   0  0  0  0  0  0  0  0  0  0  0  0
  -21.9310  -49.6030  -12.1560 C   0  0  0  0  0  0  0  0  0  0  0  0
  -20.6420  -49.4130  -11.6580 C   0  0  0  0  0  0  0  0  0  0  0  0
  -19.9040  -50.5030  -11.2030 C   0  0  0  0  0  0  0  0  0  0  0  0
  -20.4530  -51.7830  -11.2510 C   0  0  0  0  0  0  0  0  0  0  0  0
  -21.7430  -51.9740  -11.7480 C   0  0  0  0  0  0  0  0  0  0  0  0
  -24.7860  -52.7570  -14.3490 N   0  0  0  0  0  0  0  0  0  0  0  0
  -24.2760  -53.7370  -15.1640 C   0  0  0  0  0  0  0  0  0  0  0  0
  -23.4170  -54.5260  -14.7830 O   0  0  0  0  0  0  0  0  0  0  0  0
  -24.8230  -53.8330  -16.5460 C   0  0  0  0  0  0  0  0  0  0  0  0
  -24.0000  -53.4180  -17.6040 C   0  0  0  0  0  0  0  0  0  0  0  0
  -24.4540  -53.4840  -18.9230 C   0  0  0  0  0  0  0  0  0  0  0  0
  -25.7330  -53.9730  -19.1830 C   0  0  0  0  0  0  0  0  0  0  0  0
  -26.1900  -54.0400  -20.5050 N   0  0  0  0  0  0  0  0  0  0  0  0
  -27.4230  -54.5140  -20.8550 C   0  0  0  0  0  0  0  0  0  0  0  0
  -27.8020  -54.5620  -22.0200 O   0  0  0  0  0  0  0  0  0  0  0  0
  -28.3050  -54.9730  -19.7570 C   0  0  0  0  0  0  0  0  0  0  0  0
  -27.9010  -54.9220  -18.4820 C   0  0  0  0  0  0  0  0  0  0  0  0
  -28.6850  -55.3360  -17.4270 O   0  0  0  0  0  0  0  0  0  0  0  0
  -26.5660  -54.4060  -18.1410 C   0  0  0  0  0  0  0  0  0  0  0  0
  -26.1010  -54.3380  -16.8200 C   0  0  0  0  0  0  0  0  0  0  0  0
  -29.9470  -54.3790  -12.5940 C   0  0  0  0  0  0  0  0  0  0  0  0
  -30.8110  -55.0920  -13.4130 C   0  0  0  0  0  0  0  0  0  0  0  0
  -30.3070  -56.0990  -14.2360 C   0  0  0  0  0  0  0  0  0  0  0  0
  -28.9590  -56.4230  -14.2570 C   0  0  0  0  0  0  0  0  0  0  0  0
  -28.5660  -57.4190  -15.0710 N   0  0  0  0  0  0  0  0  0  0  0  0
  -26.0440  -58.5800  -16.4390 H   0  0  0  0  0  0  0  0  0  0  0  0
  -26.8330  -59.6320  -15.3920 H   0  0  0  0  0  0  0  0  0  0  0  0
  -25.2591  -57.4303  -14.3737 H   0  0  0  0  0  0  0  0  0  0  0  0
  -25.9743  -55.5743  -12.8594 H   0  0  0  0  0  0  0  0  0  0  0  0
  -28.2973  -53.0925  -11.1622 H   0  0  0  0  0  0  0  0  0  0  0  0
  -27.2160  -54.5303  -10.9550 H   0  0  0  0  0  0  0  0  0  0  0  0
  -26.7370  -53.1220  -13.4250 H   0  0  0  0  0  0  0  0  0  0  0  0
  -23.4200  -53.1450  -12.8352 H   0  0  0  0  0  0  0  0  0  0  0  0
  -24.0112  -50.5246  -13.6552 H   0  0  0  0  0  0  0  0  0  0  0  0
  -24.5752  -50.7077  -11.9121 H   0  0  0  0  0  0  0  0  0  0  0  0
  -22.5084  -48.7393  -12.5175 H   0  0  0  0  0  0  0  0  0  0  0  0
  -20.2085  -48.4026  -11.6246 H   0  0  0  0  0  0  0  0  0  0  0  0
  -18.8890  -50.3537  -10.8062 H   0  0  0  0  0  0  0  0  0  0  0  0
  -19.8683  -52.6446  -10.8964 H   0  0  0  0  0  0  0  0  0  0  0  0
  -22.1694  -52.9873  -11.7847 H   0  0  0  0  0  0  0  0  0  0  0  0
  -25.5810  -52.2080  -14.6490 H   0  0  0  0  0  0  0  0  0  0  0  0
  -22.9896  -53.0378  -17.3929 H   0  0  0  0  0  0  0  0  0  0  0  0
  -23.8079  -53.1530  -19.7494 H   0  0  0  0  0  0  0  0  0  0  0  0
  -25.6020  -53.7330  -21.2680 H   0  0  0  0  0  0  0  0  0  0  0  0
  -29.3067  -55.3615  -19.9929 H   0  0  0  0  0  0  0  0  0  0  0  0
  -29.1390  -54.5630  -17.0500 H   0  0  0  0  0  0  0  0  0  0  0  0
  -26.7422  -54.6825  -15.9953 H   0  0  0  0  0  0  0  0  0  0  0  0
  -30.3436  -53.5896  -11.9386 H   0  0  0  0  0  0  0  0  0  0  0  0
  -31.8872  -54.8643  -13.4132 H   0  0  0  0  0  0  0  0  0  0  0  0
  -30.9993  -56.6524  -14.8875 H   0  0  0  0  0  0  0  0  0  0  0  0
  1  2  1  0
  2  3  2  0
  3  4  1  0
  4  5  2  0
  5  6  1  0
  6  7  1  0
  7  8  1  0
  8  9  1  0
  9 10  2  0
  9 11  1  0
 11 12  1  0
 12 13  1  0
 13 14  2  0
 14 15  1  0
 15 16  2  0
 16 17  1  0
 17 18  2  0
 11 19  1  0
 19 20  1  0
 20 21  2  0
 20 22  1  0
 22 23  2  0
 23 24  1  0
 24 25  2  0
 25 26  1  0
 26 27  1  0
 27 28  2  0
 27 29  1  0
 29 30  2  0
 30 31  1  0
 30 32  1  0
 32 33  2  0
  6 34  2  0
 34 35  1  0
 35 36  2  0
 36 37  1  0
 37 38  2  0
 38  2  1  0
 37  5  1  0
 18 13  1  0
 33 22  1  0
 32 25  1  0
  1 39  1  0
  1 40  1  0
  3 41  1  0
  4 42  1  0
  7 43  1  0
  7 44  1  0
  8 45  1  0
 11 46  1  6
 12 47  1  0
 12 48  1  0
 14 49  1  0
 15 50  1  0
 16 51  1  0
 17 52  1  0
 18 53  1  0
 19 54  1  0
 23 55  1  0
 24 56  1  0
 26 57  1  0
 29 58  1  0
 31 59  1  0
 33 60  1  0
 34 61  1  0
 35 62  1  0
 36 63  1  0
M  END
>  <meeko>  (7) 
{"is_sidechain": [false], "free_energy": -9.275, "intermolecular_energy": -12.701, "internal_energy": -2.164}

$$$$
4cra_ligand
     RDKit          3D

 63 67  0  0  0  0  0  0  0  0999 V2000
  -18.4050  -47.2910  -11.8610 N   0  0  0  0  0  0  0  0  0  0  0  0
  -19.3540  -48.3030  -11.7330 C   0  0  0  0  0  0  0  0  0  0  0  0
  -20.6810  -47.9970  -11.5070 C   0  0  0  0  0  0  0  0  0  0  0  0
  -21.5960  -49.0400  -11.4030 C   0  0  0  0  0  0  0  0  0  0  0  0
  -21.1730  -50.3770  -11.5300 C   0  0  0  0  0  0  0  0  0  0  0  0
  -22.0400  -51.5060  -11.4380 C   0  0  0  0  0  0  0  0  0  0  0  0
  -23.5260  -51.3770  -11.1890 C   0  0  0  0  0  0  0  0  0  0  0  0
  -24.2420  -52.5300  -11.6760 N   0  0  0  0  0  0  0  0  0  0  0  0
  -24.6810  -52.6260  -12.9830 C   0  0  0  0  0  0  0  0  0  0  0  0
  -24.5500  -51.7070  -13.7890 O   0  0  0  0  0  0  0  0  0  0  0  0
  -25.1990  -54.0360  -13.3650 C   0  0  2  0  0  0  0  0  0  0  0  0
  -25.9370  -54.0540  -14.7210 C   0  0  0  0  0  0  0  0  0  0  0  0
  -25.0550  -54.2620  -15.9370 C   0  0  0  0  0  0  0  0  0  0  0  0
  -24.7730  -53.1890  -16.7970 C   0  0  0  0  0  0  0  0  0  0  0  0
  -23.9350  -53.3650  -17.8980 C   0  0  0  0  0  0  0  0  0  0  0  0
  -23.3740  -54.6130  -18.1550 C   0  0  0  0  0  0  0  0  0  0  0  0
  -23.6550  -55.6880  -17.3140 C   0  0  0  0  0  0  0  0  0  0  0  0
  -24.4910  -55.5140  -16.2110 C   0  0  0  0  0  0  0  0  0  0  0  0
  -25.9950  -54.6480  -12.2890 N   0  0  0  0  0  0  0  0  0  0  0  0
  -27.1870  -54.1290  -11.8460 C   0  0  0  0  0  0  0  0  0  0  0  0
  -27.6890  -53.1250  -12.3420 O   0  0  0  0  0  0  0  0  0  0  0  0
  -27.8790  -54.8460  -10.7400 C   0  0  0  0  0  0  0  0  0  0  0  0
  -29.1830  -55.3060  -10.9750 C   0  0  0  0  0  0  0  0  0  0  0  0
  -29.8850  -55.9860   -9.9780 C   0  0  0  0  0  0  0  0  0  0  0  0
  -29.2770  -56.2120   -8.7450 C   0  0  0  0  0  0  0  0  0  0  0  0
  -29.9800  -56.8940   -7.7440 N   0  0  0  0  0  0  0  0  0  0  0  0
  -29.4620  -57.1680   -6.5090 C   0  0  0  0  0  0  0  0  0  0  0  0
  -30.0970  -57.7670   -5.6480 O   0  0  0  0  0  0  0  0  0  0  0  0
  -28.0800  -56.7060   -6.2410 C   0  0  0  0  0  0  0  0  0  0  0  0
  -27.3800  -56.0500   -7.1750 C   0  0  0  0  0  0  0  0  0  0  0  0
  -26.0930  -55.6000   -6.9720 O   0  0  0  0  0  0  0  0  0  0  0  0
  -27.9690  -55.7720   -8.4930 C   0  0  0  0  0  0  0  0  0  0  0  0
  -27.2710  -55.0910   -9.5010 C   0  0  0  0  0  0  0  0  0  0  0  0
  -21.5000  -52.7980  -11.5450 C   0  0  0  0  0  0  0  0  0  0  0  0
  -20.1420  -52.9780  -11.7700 C   0  0  0  0  0  0  0  0  0  0  0  0
  -19.3080  -51.8660  -11.8800 C   0  0  0  0  0  0  0  0  0  0  0  0
  -19.7910  -50.5720  -11.7610 C   0  0  0  0  0  0  0  0  0  0  0  0
  -18.9100  -49.5610  -11.8650 N   0  0  0  0  0  0  0  0  0  0  0  0
  -18.8150  -46.3800  -11.6960 H   0  0  0  0  0  0  0  0  0  0  0  0
  -17.6690  -47.4990  -11.1890 H   0  0  0  0  0  0  0  0  0  0  0  0
  -21.0080  -46.9511  -11.4112 H   0  0  0  0  0  0  0  0  0  0  0  0
  -22.6578  -48.8184  -11.2202 H   0  0  0  0  0  0  0  0  0  0  0  0
  -23.7006  -51.2775  -10.1075 H   0  0  0  0  0  0  0  0  0  0  0  0
  -23.8918  -50.4894  -11.7261 H   0  0  0  0  0  0  0  0  0  0  0  0
  -24.0990  -53.4130  -11.1880 H   0  0  0  0  0  0  0  0  0  0  0  0
  -24.3059  -54.6650  -13.4945 H   0  0  0  0  0  0  0  0  0  0  0  0
  -26.6765  -54.8679  -14.6945 H   0  0  0  0  0  0  0  0  0  0  0  0
  -26.3839  -53.0556  -14.8370 H   0  0  0  0  0  0  0  0  0  0  0  0
  -25.2164  -52.2016  -16.6011 H   0  0  0  0  0  0  0  0  0  0  0  0
  -23.7172  -52.5170  -18.5639 H   0  0  0  0  0  0  0  0  0  0  0  0
  -22.7097  -54.7503  -19.0209 H   0  0  0  0  0  0  0  0  0  0  0  0
  -23.2168  -56.6756  -17.5203 H   0  0  0  0  0  0  0  0  0  0  0  0
  -24.7089  -56.3669  -15.5514 H   0  0  0  0  0  0  0  0  0  0  0  0
  -25.6730  -55.5440  -11.9480 H   0  0  0  0  0  0  0  0  0  0  0  0
  -29.6562  -55.1297  -11.9522 H   0  0  0  0  0  0  0  0  0  0  0  0
  -30.9095  -56.3404  -10.1644 H   0  0  0  0  0  0  0  0  0  0  0  0
  -30.9230  -57.2190   -7.9090 H   0  0  0  0  0  0  0  0  0  0  0  0
  -27.6225  -56.9048   -5.2606 H   0  0  0  0  0  0  0  0  0  0  0  0
  -26.1290  -54.7070   -6.5860 H   0  0  0  0  0  0  0  0  0  0  0  0
  -26.2420  -54.7477   -9.3185 H   0  0  0  0  0  0  0  0  0  0  0  0
  -22.1582  -53.6742  -11.4498 H   0  0  0  0  0  0  0  0  0  0  0  0
  -19.7262  -53.9923  -11.8610 H   0  0  0  0  0  0  0  0  0  0  0  0
  -18.2350  -52.0201  -12.0667 H   0  0  0  0  0  0  0  0  0  0  0  0
  1  2  1  0
  2  3  2  0
  3  4  1  0
  4  5  2  0
  5  6  1  0
  6  7  1  0
  7  8  1  0
  8  9  1  0
  9 10  2  0
  9 11  1  0
 11 12  1  0
 12 13  1  0
 13 14  2  0
 14 15  1  0
 15 16  2  0
 16 17  1  0
 17 18  2  0
 11 19  1  0
 19 20  1  0
 20 21  2  0
 20 22  1  0
 22 23  2  0
 23 24  1  0
 24 25  2  0
 25 26  1  0
 26 27  1  0
 27 28  2  0
 27 29  1  0
 29 30  2  0
 30 31  1  0
 30 32  1  0
 32 33  2  0
  6 34  2  0
 34 35  1  0
 35 36  2  0
 36 37  1  0
 37 38  2  0
 38  2  1  0
 37  5  1  0
 18 13  1  0
 33 22  1  0
 32 25  1  0
  1 39  1  0
  1 40  1  0
  3 41  1  0
  4 42  1  0
  7 43  1  0
  7 44  1  0
  8 45  1  0
 11 46  1  6
 12 47  1  0
 12 48  1  0
 14 49  1  0
 15 50  1  0
 16 51  1  0
 17 52  1  0
 18 53  1  0
 19 54  1  0
 23 55  1  0
 24 56  1  0
 26 57  1  0
 29 58  1  0
 31 59  1  0
 33 60  1  0
 34 61  1  0
 35 62  1  0
 36 63  1  0
M  END
>  <meeko>  (8) 
{"is_sidechain": [false], "free_energy": -9.191, "intermolecular_energy": -14.112, "internal_energy": -0.63}

$$$$
4cra_ligand
     RDKit          3D

 63 67  0  0  0  0  0  0  0  0999 V2000
  -16.3930  -52.6230  -18.5610 N   0  0  0  0  0  0  0  0  0  0  0  0
  -17.4910  -53.0400  -17.8110 C   0  0  0  0  0  0  0  0  0  0  0  0
  -18.7100  -52.4060  -17.9400 C   0  0  0  0  0  0  0  0  0  0  0  0
  -19.7830  -52.8690  -17.1840 C   0  0  0  0  0  0  0  0  0  0  0  0
  -19.6240  -53.9610  -16.3100 C   0  0  0  0  0  0  0  0  0  0  0  0
  -20.6660  -54.5000  -15.5000 C   0  0  0  0  0  0  0  0  0  0  0  0
  -22.0710  -53.9410  -15.4960 C   0  0  0  0  0  0  0  0  0  0  0  0
  -22.3380  -53.1970  -14.2900 N   0  0  0  0  0  0  0  0  0  0  0  0
  -23.3930  -52.3110  -14.1900 C   0  0  0  0  0  0  0  0  0  0  0  0
  -24.1240  -52.0500  -15.1420 O   0  0  0  0  0  0  0  0  0  0  0  0
  -23.6540  -51.8120  -12.7450 C   0  0  2  0  0  0  0  0  0  0  0  0
  -22.4060  -51.9170  -11.8430 C   0  0  0  0  0  0  0  0  0  0  0  0
  -21.5630  -50.6590  -11.7520 C   0  0  0  0  0  0  0  0  0  0  0  0
  -20.1890  -50.7480  -11.4800 C   0  0  0  0  0  0  0  0  0  0  0  0
  -19.4010  -49.5990  -11.4290 C   0  0  0  0  0  0  0  0  0  0  0  0
  -19.9760  -48.3490  -11.6440 C   0  0  0  0  0  0  0  0  0  0  0  0
  -21.3410  -48.2480  -11.9050 C   0  0  0  0  0  0  0  0  0  0  0  0
  -22.1310  -49.3970  -11.9590 C   0  0  0  0  0  0  0  0  0  0  0  0
  -24.8350  -52.4480  -12.1400 N   0  0  0  0  0  0  0  0  0  0  0  0
  -24.9600  -53.8060  -11.9820 C   0  0  0  0  0  0  0  0  0  0  0  0
  -24.0740  -54.5890  -12.3120 O   0  0  0  0  0  0  0  0  0  0  0  0
  -26.2170  -54.3130  -11.3650 C   0  0  0  0  0  0  0  0  0  0  0  0
  -27.3580  -54.3910  -12.1780 C   0  0  0  0  0  0  0  0  0  0  0  0
  -28.5670  -54.8580  -11.6590 C   0  0  0  0  0  0  0  0  0  0  0  0
  -28.6320  -55.2540  -10.3250 C   0  0  0  0  0  0  0  0  0  0  0  0
  -29.8440  -55.7240   -9.8020 N   0  0  0  0  0  0  0  0  0  0  0  0
  -29.9990  -56.1410   -8.5100 C   0  0  0  0  0  0  0  0  0  0  0  0
  -31.0710  -56.5470   -8.0750 O   0  0  0  0  0  0  0  0  0  0  0  0
  -28.8040  -56.0830   -7.6350 C   0  0  0  0  0  0  0  0  0  0  0  0
  -27.6310  -55.6380   -8.1010 C   0  0  0  0  0  0  0  0  0  0  0  0
  -26.4940  -55.5640   -7.3260 O   0  0  0  0  0  0  0  0  0  0  0  0
  -27.5000  -55.1960   -9.4980 C   0  0  0  0  0  0  0  0  0  0  0  0
  -26.2890  -54.7270  -10.0290 C   0  0  0  0  0  0  0  0  0  0  0  0
  -20.3820  -55.5720  -14.6380 C   0  0  0  0  0  0  0  0  0  0  0  0
  -19.1100  -56.1240  -14.5950 C   0  0  0  0  0  0  0  0  0  0  0  0
  -18.1040  -55.6030  -15.4090 C   0  0  0  0  0  0  0  0  0  0  0  0
  -18.3310  -54.5330  -16.2610 C   0  0  0  0  0  0  0  0  0  0  0  0
  -17.2980  -54.0860  -16.9970 N   0  0  0  0  0  0  0  0  0  0  0  0
  -16.0060  -53.3860  -19.1020 H   0  0  0  0  0  0  0  0  0  0  0  0
  -16.7220  -51.8670  -19.1590 H   0  0  0  0  0  0  0  0  0  0  0  0
  -18.8309  -51.5538  -18.6250 H   0  0  0  0  0  0  0  0  0  0  0  0
  -20.7633  -52.3776  -17.2702 H   0  0  0  0  0  0  0  0  0  0  0  0
  -22.1933  -53.2742  -16.3623 H   0  0  0  0  0  0  0  0  0  0  0  0
  -22.7782  -54.7819  -15.5476 H   0  0  0  0  0  0  0  0  0  0  0  0
  -21.9990  -53.5890  -13.4110 H   0  0  0  0  0  0  0  0  0  0  0  0
  -23.8815  -50.7390  -12.8283 H   0  0  0  0  0  0  0  0  0  0  0  0
  -22.7415  -52.1752  -10.8277 H   0  0  0  0  0  0  0  0  0  0  0  0
  -21.7623  -52.6814  -12.3028 H   0  0  0  0  0  0  0  0  0  0  0  0
  -19.7301  -51.7324  -11.3056 H   0  0  0  0  0  0  0  0  0  0  0  0
  -18.3243  -49.6799  -11.2188 H   0  0  0  0  0  0  0  0  0  0  0  0
  -19.3536  -47.4428  -11.6078 H   0  0  0  0  0  0  0  0  0  0  0  0
  -21.7968  -47.2604  -12.0688 H   0  0  0  0  0  0  0  0  0  0  0  0
  -23.2079  -49.3101  -12.1658 H   0  0  0  0  0  0  0  0  0  0  0  0
  -25.5250  -51.8240  -11.7430 H   0  0  0  0  0  0  0  0  0  0  0  0
  -27.2995  -54.0819  -13.2321 H   0  0  0  0  0  0  0  0  0  0  0  0
  -29.4607  -54.9128  -12.2980 H   0  0  0  0  0  0  0  0  0  0  0  0
  -30.6690  -55.7730  -10.3840 H   0  0  0  0  0  0  0  0  0  0  0  0
  -28.8824  -56.4104   -6.5878 H   0  0  0  0  0  0  0  0  0  0  0  0
  -25.9850  -54.7770   -7.5890 H   0  0  0  0  0  0  0  0  0  0  0  0
  -25.3923  -54.6843   -9.3933 H   0  0  0  0  0  0  0  0  0  0  0  0
  -21.1746  -55.9771  -13.9918 H   0  0  0  0  0  0  0  0  0  0  0  0
  -18.8958  -56.9679  -13.9227 H   0  0  0  0  0  0  0  0  0  0  0  0
  -17.1014  -56.0542  -15.3739 H   0  0  0  0  0  0  0  0  0  0  0  0
  1  2  1  0
  2  3  2  0
  3  4  1  0
  4  5  2  0
  5  6  1  0
  6  7  1  0
  7  8  1  0
  8  9  1  0
  9 10  2  0
  9 11  1  0
 11 12  1  0
 12 13  1  0
 13 14  2  0
 14 15  1  0
 15 16  2  0
 16 17  1  0
 17 18  2  0
 11 19  1  0
 19 20  1  0
 20 21  2  0
 20 22  1  0
 22 23  2  0
 23 24  1  0
 24 25  2  0
 25 26  1  0
 26 27  1  0
 27 28  2  0
 27 29  1  0
 29 30  2  0
 30 31  1  0
 30 32  1  0
 32 33  2  0
  6 34  2  0
 34 35  1  0
 35 36  2  0
 36 37  1  0
 37 38  2  0
 38  2  1  0
 37  5  1  0
 18 13  1  0
 33 22  1  0
 32 25  1  0
  1 39  1  0
  1 40  1  0
  3 41  1  0
  4 42  1  0
  7 43  1  0
  7 44  1  0
  8 45  1  0
 11 46  1  6
 12 47  1  0
 12 48  1  0
 14 49  1  0
 15 50  1  0
 16 51  1  0
 17 52  1  0
 18 53  1  0
 19 54  1  0
 23 55  1  0
 24 56  1  0
 26 57  1  0
 29 58  1  0
 31 59  1  0
 33 60  1  0
 34 61  1  0
 35 62  1  0
 36 63  1  0
M  END
>  <meeko>  (9) 
{"is_sidechain": [false], "free_energy": -9.185, "intermolecular_energy": -13.605, "internal_energy": -1.128}

$$$$
