1ps3_ligand
     RDKit          3D

 28 29  0  0  0  0  0  0  0  0999 V2000
   39.4510   82.6850  -31.7240 O   0  0  0  0  0  0  0  0  0  0  0  0
   40.1040   82.5830  -30.7100 C   0  0  0  0  0  0  0  0  0  0  0  0
   39.7060   82.8530  -29.4170 N   0  0  0  0  0  0  0  0  0  0  0  0
   40.6460   82.2980  -28.4900 C   0  0  2  0  0  0  0  0  0  0  0  0
   40.8650   83.1300  -27.2170 C   0  0  1  0  0  0  0  0  0  0  0  0
   39.6960   83.0780  -26.3830 O   0  0  0  0  0  0  0  0  0  0  0  0
   42.0770   82.5870  -26.4270 C   0  0  1  0  0  0  0  0  0  0  0  0
   41.6940   81.3490  -25.8090 O   0  0  0  0  0  0  0  0  0  0  0  0
   43.3330   82.4000  -27.3110 C   0  0  2  0  0  0  0  0  0  0  0  0
   43.8490   83.7000  -27.6310 O   0  0  0  0  0  0  0  0  0  0  0  0
   43.0590   81.6180  -28.6180 C   0  0  1  0  0  0  0  0  0  0  0  0
   42.9720   80.0940  -28.4110 C   0  0  0  0  0  0  0  0  0  0  0  0
   43.3040   79.3700  -29.5950 O   0  0  0  0  0  0  0  0  0  0  0  0
   41.8580   82.1580  -29.2470 N   0  0  0  0  0  0  0  0  0  0  0  0
   41.5770   82.1010  -30.5950 C   0  0  0  0  0  0  0  0  0  0  0  0
   42.3110   81.7490  -31.4920 O   0  0  0  0  0  0  0  0  0  0  0  0
   38.7210   82.9570  -29.2120 H   0  0  0  0  0  0  0  0  0  0  0  0
   40.2673   81.3445  -28.0933 H   0  0  0  0  0  0  0  0  0  0  0  0
   41.0576   84.1720  -27.5121 H   0  0  0  0  0  0  0  0  0  0  0  0
   39.7520   83.8580  -25.7950 H   0  0  0  0  0  0  0  0  0  0  0  0
   42.3574   83.3271  -25.6630 H   0  0  0  0  0  0  0  0  0  0  0  0
   41.3470   81.5670  -24.9220 H   0  0  0  0  0  0  0  0  0  0  0  0
   44.0569   81.7999  -26.7401 H   0  0  0  0  0  0  0  0  0  0  0  0
   43.5680   84.3290  -26.9400 H   0  0  0  0  0  0  0  0  0  0  0  0
   43.9193   81.7576  -29.2891 H   0  0  0  0  0  0  0  0  0  0  0  0
   43.6697   79.8046  -27.6113 H   0  0  0  0  0  0  0  0  0  0  0  0
   41.9336   79.8479  -28.1443 H   0  0  0  0  0  0  0  0  0  0  0  0
   42.5750   78.7570  -29.8180 H   0  0  0  0  0  0  0  0  0  0  0  0
  1  2  2  0
  2  3  1  0
  3  4  1  0
  4  5  1  0
  5  6  1  0
  5  7  1  0
  7  8  1  0
  7  9  1  0
  9 10  1  0
  9 11  1  0
 11 12  1  0
 12 13  1  0
 11 14  1  0
 14 15  1  0
 15 16  2  0
 15  2  1  0
 14  4  1  0
  3 17  1  0
  4 18  1  1
  5 19  1  6
  6 20  1  0
  7 21  1  1
  8 22  1  0
  9 23  1  1
 10 24  1  0
 11 25  1  6
 12 26  1  0
 12 27  1  0
 13 28  1  0
M  END
>  <meeko>  (1) 
{"is_sidechain": [false], "free_energy": -7.216, "intermolecular_energy": -8.481, "internal_energy": -0.195}

$$$$
1ps3_ligand
     RDKit          3D

 28 29  0  0  0  0  0  0  0  0999 V2000
   39.1120   82.9590  -25.3630 O   0  0  0  0  0  0  0  0  0  0  0  0
   40.0200   82.6780  -26.1120 C   0  0  0  0  0  0  0  0  0  0  0  0
   41.0110   81.7370  -25.9260 N   0  0  0  0  0  0  0  0  0  0  0  0
   41.6840   81.4820  -27.1630 C   0  0  2  0  0  0  0  0  0  0  0  0
   43.1880   81.1960  -27.0330 C   0  0  1  0  0  0  0  0  0  0  0  0
   43.3970   79.9150  -26.4170 O   0  0  0  0  0  0  0  0  0  0  0  0
   43.8550   81.2040  -28.4270 C   0  0  1  0  0  0  0  0  0  0  0  0
   43.4700   80.0060  -29.1180 O   0  0  0  0  0  0  0  0  0  0  0  0
   43.4980   82.4610  -29.2550 C   0  0  2  0  0  0  0  0  0  0  0  0
   44.1850   83.5820  -28.6810 O   0  0  0  0  0  0  0  0  0  0  0  0
   41.9800   82.7580  -29.3060 C   0  0  1  0  0  0  0  0  0  0  0  0
   41.2180   81.8740  -30.3110 C   0  0  0  0  0  0  0  0  0  0  0  0
   42.0120   81.5430  -31.4480 O   0  0  0  0  0  0  0  0  0  0  0  0
   41.4340   82.6540  -27.9560 N   0  0  0  0  0  0  0  0  0  0  0  0
   40.3060   83.3050  -27.5070 C   0  0  0  0  0  0  0  0  0  0  0  0
   39.6720   84.1690  -28.0720 O   0  0  0  0  0  0  0  0  0  0  0  0
   40.9020   81.0400  -25.2000 H   0  0  0  0  0  0  0  0  0  0  0  0
   41.3006   80.5568  -27.6179 H   0  0  0  0  0  0  0  0  0  0  0  0
   43.6384   81.9810  -26.4077 H   0  0  0  0  0  0  0  0  0  0  0  0
   44.2210   79.5610  -26.8100 H   0  0  0  0  0  0  0  0  0  0  0  0
   44.9463   81.2358  -28.2927 H   0  0  0  0  0  0  0  0  0  0  0  0
   43.6450   79.2580  -28.5140 H   0  0  0  0  0  0  0  0  0  0  0  0
   43.8101   82.2760  -30.2934 H   0  0  0  0  0  0  0  0  0  0  0  0
   44.2410   84.2930  -29.3470 H   0  0  0  0  0  0  0  0  0  0  0  0
   41.8427   83.7834  -29.6798 H   0  0  0  0  0  0  0  0  0  0  0  0
   40.9162   80.9440  -29.8069 H   0  0  0  0  0  0  0  0  0  0  0  0
   40.3435   82.4406  -30.6635 H   0  0  0  0  0  0  0  0  0  0  0  0
   41.6170   80.7770  -31.9110 H   0  0  0  0  0  0  0  0  0  0  0  0
  1  2  2  0
  2  3  1  0
  3  4  1  0
  4  5  1  0
  5  6  1  0
  5  7  1  0
  7  8  1  0
  7  9  1  0
  9 10  1  0
  9 11  1  0
 11 12  1  0
 12 13  1  0
 11 14  1  0
 14 15  1  0
 15 16  2  0
 15  2  1  0
 14  4  1  0
  3 17  1  0
  4 18  1  6
  5 19  1  1
  6 20  1  0
  7 21  1  1
  8 22  1  0
  9 23  1  6
 10 24  1  0
 11 25  1  6
 12 26  1  0
 12 27  1  0
 13 28  1  0
M  END
>  <meeko>  (2) 
{"is_sidechain": [false], "free_energy": -6.805, "intermolecular_energy": -7.934, "internal_energy": -0.259}

$$$$
1ps3_ligand
     RDKit          3D

 28 29  0  0  0  0  0  0  0  0999 V2000
   44.4740   77.5220  -27.6790 O   0  0  0  0  0  0  0  0  0  0  0  0
   43.7870   78.5180  -27.6670 C   0  0  0  0  0  0  0  0  0  0  0  0
   42.5090   78.6710  -28.1630 N   0  0  0  0  0  0  0  0  0  0  0  0
   41.9320   79.8830  -27.6660 C   0  0  2  0  0  0  0  0  0  0  0  0
   41.0070   80.6100  -28.6540 C   0  0  1  0  0  0  0  0  0  0  0  0
   39.7920   79.8640  -28.8360 O   0  0  0  0  0  0  0  0  0  0  0  0
   40.6610   82.0200  -28.1210 C   0  0  1  0  0  0  0  0  0  0  0  0
   39.7380   81.8760  -27.0310 O   0  0  0  0  0  0  0  0  0  0  0  0
   41.9120   82.8190  -27.6870 C   0  0  2  0  0  0  0  0  0  0  0  0
   42.6260   83.2050  -28.8700 O   0  0  0  0  0  0  0  0  0  0  0  0
   42.8560   82.0300  -26.7480 C   0  0  1  0  0  0  0  0  0  0  0  0
   42.3710   81.9870  -25.2880 C   0  0  0  0  0  0  0  0  0  0  0  0
   41.6920   83.1840  -24.9100 O   0  0  0  0  0  0  0  0  0  0  0  0
   43.0600   80.6940  -27.3000 N   0  0  0  0  0  0  0  0  0  0  0  0
   44.1650   79.9030  -27.0710 C   0  0  0  0  0  0  0  0  0  0  0  0
   45.1990   80.2140  -26.5210 O   0  0  0  0  0  0  0  0  0  0  0  0
   41.9630   77.8490  -28.3890 H   0  0  0  0  0  0  0  0  0  0  0  0
   41.2602   79.6641  -26.8229 H   0  0  0  0  0  0  0  0  0  0  0  0
   41.5296   80.7001  -29.6177 H   0  0  0  0  0  0  0  0  0  0  0  0
   39.7570   79.6410  -29.7890 H   0  0  0  0  0  0  0  0  0  0  0  0
   40.2042   82.6006  -28.9360 H   0  0  0  0  0  0  0  0  0  0  0  0
   39.5050   80.9290  -26.9760 H   0  0  0  0  0  0  0  0  0  0  0  0
   41.5678   83.6917  -27.1126 H   0  0  0  0  0  0  0  0  0  0  0  0
   42.9390   82.4000  -29.3250 H   0  0  0  0  0  0  0  0  0  0  0  0
   43.8183   82.5610  -26.7037 H   0  0  0  0  0  0  0  0  0  0  0  0
   41.6835   81.1368  -25.1680 H   0  0  0  0  0  0  0  0  0  0  0  0
   43.2547   81.8816  -24.6416 H   0  0  0  0  0  0  0  0  0  0  0  0
   41.6170   83.7760  -25.6850 H   0  0  0  0  0  0  0  0  0  0  0  0
  1  2  2  0
  2  3  1  0
  3  4  1  0
  4  5  1  0
  5  6  1  0
  5  7  1  0
  7  8  1  0
  7  9  1  0
  9 10  1  0
  9 11  1  0
 11 12  1  0
 12 13  1  0
 11 14  1  0
 14 15  1  0
 15 16  2  0
 15  2  1  0
 14  4  1  0
  3 17  1  0
  4 18  1  1
  5 19  1  6
  6 20  1  0
  7 21  1  6
  8 22  1  0
  9 23  1  1
 10 24  1  0
 11 25  1  1
 12 26  1  0
 12 27  1  0
 13 28  1  0
M  END
>  <meeko>  (3) 
{"is_sidechain": [false], "free_energy": -6.785, "intermolecular_energy": -7.916, "internal_energy": -0.254}

$$$$
1ps3_ligand
     RDKit          3D

 28 29  0  0  0  0  0  0  0  0999 V2000
   45.2740   82.6690  -25.1630 O   0  0  0  0  0  0  0  0  0  0  0  0
   44.4810   82.1600  -25.9230 C   0  0  0  0  0  0  0  0  0  0  0  0
   43.7420   81.0120  -25.7290 N   0  0  0  0  0  0  0  0  0  0  0  0
   42.6970   80.9310  -26.7040 C   0  0  2  0  0  0  0  0  0  0  0  0
   42.3690   79.5090  -27.1830 C   0  0  1  0  0  0  0  0  0  0  0  0
   41.7270   78.7680  -26.1320 O   0  0  0  0  0  0  0  0  0  0  0  0
   41.4310   79.5630  -28.4110 C   0  0  1  0  0  0  0  0  0  0  0  0
   40.1220   79.9440  -27.9630 O   0  0  0  0  0  0  0  0  0  0  0  0
   41.9420   80.5220  -29.5120 C   0  0  2  0  0  0  0  0  0  0  0  0
   43.0820   79.9150  -30.1370 O   0  0  0  0  0  0  0  0  0  0  0  0
   42.3290   81.9230  -28.9820 C   0  0  1  0  0  0  0  0  0  0  0  0
   41.1170   82.8410  -28.7370 C   0  0  0  0  0  0  0  0  0  0  0  0
   40.0000   82.4860  -29.5500 O   0  0  0  0  0  0  0  0  0  0  0  0
   43.1490   81.7630  -27.7850 N   0  0  0  0  0  0  0  0  0  0  0  0
   44.0720   82.6800  -27.3300 C   0  0  0  0  0  0  0  0  0  0  0  0
   44.4730   83.6730  -27.8950 O   0  0  0  0  0  0  0  0  0  0  0  0
   43.6620   80.6250  -24.7970 H   0  0  0  0  0  0  0  0  0  0  0  0
   41.7448   81.2636  -26.2651 H   0  0  0  0  0  0  0  0  0  0  0  0
   43.3092   79.0106  -27.4616 H   0  0  0  0  0  0  0  0  0  0  0  0
   40.8060   79.0970  -26.0980 H   0  0  0  0  0  0  0  0  0  0  0  0
   41.4019   78.5655  -28.8738 H   0  0  0  0  0  0  0  0  0  0  0  0
   39.5760   80.0830  -28.7600 H   0  0  0  0  0  0  0  0  0  0  0  0
   41.1192   80.6803  -30.2247 H   0  0  0  0  0  0  0  0  0  0  0  0
   42.9680   78.9460  -30.1280 H   0  0  0  0  0  0  0  0  0  0  0  0
   42.9112   82.4362  -29.7615 H   0  0  0  0  0  0  0  0  0  0  0  0
   40.8237   82.7660  -27.6795 H   0  0  0  0  0  0  0  0  0  0  0  0
   41.4125   83.8679  -28.9983 H   0  0  0  0  0  0  0  0  0  0  0  0
   40.0230   83.0020  -30.3810 H   0  0  0  0  0  0  0  0  0  0  0  0
  1  2  2  0
  2  3  1  0
  3  4  1  0
  4  5  1  0
  5  6  1  0
  5  7  1  0
  7  8  1  0
  7  9  1  0
  9 10  1  0
  9 11  1  0
 11 12  1  0
 12 13  1  0
 11 14  1  0
 14 15  1  0
 15 16  2  0
 15  2  1  0
 14  4  1  0
  3 17  1  0
  4 18  1  1
  5 19  1  6
  6 20  1  0
  7 21  1  6
  8 22  1  0
  9 23  1  6
 10 24  1  0
 11 25  1  6
 12 26  1  0
 12 27  1  0
 13 28  1  0
M  END
>  <meeko>  (4) 
{"is_sidechain": [false], "free_energy": -6.772, "intermolecular_energy": -7.878, "internal_energy": -0.277}

$$$$
1ps3_ligand
     RDKit          3D

 28 29  0  0  0  0  0  0  0  0999 V2000
   43.8850   76.9600  -27.7930 O   0  0  0  0  0  0  0  0  0  0  0  0
   43.5340   78.0190  -28.2600 C   0  0  0  0  0  0  0  0  0  0  0  0
   43.3580   78.3410  -29.5900 N   0  0  0  0  0  0  0  0  0  0  0  0
   42.6290   79.5680  -29.7050 C   0  0  2  0  0  0  0  0  0  0  0  0
   43.0460   80.4590  -30.8860 C   0  0  1  0  0  0  0  0  0  0  0  0
   42.6380   79.8600  -32.1260 O   0  0  0  0  0  0  0  0  0  0  0  0
   42.3940   81.8540  -30.7570 C   0  0  1  0  0  0  0  0  0  0  0  0
   40.9980   81.7290  -31.0670 O   0  0  0  0  0  0  0  0  0  0  0  0
   42.5980   82.4840  -29.3580 C   0  0  2  0  0  0  0  0  0  0  0  0
   43.9730   82.8770  -29.2440 O   0  0  0  0  0  0  0  0  0  0  0  0
   42.2340   81.5340  -28.1930 C   0  0  1  0  0  0  0  0  0  0  0  0
   40.7190   81.4360  -27.9330 C   0  0  0  0  0  0  0  0  0  0  0  0
   40.0220   82.6030  -28.3670 O   0  0  0  0  0  0  0  0  0  0  0  0
   42.8340   80.2280  -28.4450 N   0  0  0  0  0  0  0  0  0  0  0  0
   43.1700   79.3100  -27.4730 C   0  0  0  0  0  0  0  0  0  0  0  0
   43.1750   79.4690  -26.2720 O   0  0  0  0  0  0  0  0  0  0  0  0
   43.3080   77.6000  -30.2770 H   0  0  0  0  0  0  0  0  0  0  0  0
   41.5709   79.3594  -29.9214 H   0  0  0  0  0  0  0  0  0  0  0  0
   44.1409   80.5643  -30.8731 H   0  0  0  0  0  0  0  0  0  0  0  0
   41.6630   79.9370  -32.1520 H   0  0  0  0  0  0  0  0  0  0  0  0
   42.8850   82.5373  -31.4656 H   0  0  0  0  0  0  0  0  0  0  0  0
   40.9270   81.1200  -31.8270 H   0  0  0  0  0  0  0  0  0  0  0  0
   41.9173   83.3442  -29.2761 H   0  0  0  0  0  0  0  0  0  0  0  0
   44.0360   83.8430  -29.3670 H   0  0  0  0  0  0  0  0  0  0  0  0
   42.6471   81.9562  -27.2650 H   0  0  0  0  0  0  0  0  0  0  0  0
   40.3222   80.5644  -28.4741 H   0  0  0  0  0  0  0  0  0  0  0  0
   40.5679   81.3358  -26.8480 H   0  0  0  0  0  0  0  0  0  0  0  0
   40.3950   83.3910  -27.9230 H   0  0  0  0  0  0  0  0  0  0  0  0
  1  2  2  0
  2  3  1  0
  3  4  1  0
  4  5  1  0
  5  6  1  0
  5  7  1  0
  7  8  1  0
  7  9  1  0
  9 10  1  0
  9 11  1  0
 11 12  1  0
 12 13  1  0
 11 14  1  0
 14 15  1  0
 15 16  2  0
 15  2  1  0
 14  4  1  0
  3 17  1  0
  4 18  1  6
  5 19  1  6
  6 20  1  0
  7 21  1  6
  8 22  1  0
  9 23  1  6
 10 24  1  0
 11 25  1  1
 12 26  1  0
 12 27  1  0
 13 28  1  0
M  END
>  <meeko>  (5) 
{"is_sidechain": [false], "free_energy": -6.771, "intermolecular_energy": -7.877, "internal_energy": -0.276}

$$$$
1ps3_ligand
     RDKit          3D

 28 29  0  0  0  0  0  0  0  0999 V2000
   43.7450   82.4200  -31.4720 O   0  0  0  0  0  0  0  0  0  0  0  0
   43.6080   82.2820  -30.2770 C   0  0  0  0  0  0  0  0  0  0  0  0
   44.1840   83.0260  -29.2690 N   0  0  0  0  0  0  0  0  0  0  0  0
   43.5220   82.7630  -28.0270 C   0  0  2  0  0  0  0  0  0  0  0  0
   44.4360   82.7780  -26.7920 C   0  0  1  0  0  0  0  0  0  0  0  0
   44.8710   84.1190  -26.5140 O   0  0  0  0  0  0  0  0  0  0  0  0
   43.6800   82.2240  -25.5620 C   0  0  1  0  0  0  0  0  0  0  0  0
   42.7290   83.2110  -25.1360 O   0  0  0  0  0  0  0  0  0  0  0  0
   42.9860   80.8710  -25.8460 C   0  0  2  0  0  0  0  0  0  0  0  0
   44.0010   79.8630  -25.9470 O   0  0  0  0  0  0  0  0  0  0  0  0
   42.1300   80.8730  -27.1350 C   0  0  1  0  0  0  0  0  0  0  0  0
   40.7560   81.5460  -26.9560 C   0  0  0  0  0  0  0  0  0  0  0  0
   39.7460   80.9280  -27.7530 O   0  0  0  0  0  0  0  0  0  0  0  0
   42.9040   81.4790  -28.2140 N   0  0  0  0  0  0  0  0  0  0  0  0
   42.7260   81.2240  -29.5560 C   0  0  0  0  0  0  0  0  0  0  0  0
   42.0320   80.3710  -30.0640 O   0  0  0  0  0  0  0  0  0  0  0  0
   44.6130   83.9150  -29.4910 H   0  0  0  0  0  0  0  0  0  0  0  0
   42.8030   83.5653  -27.8049 H   0  0  0  0  0  0  0  0  0  0  0  0
   45.3111   82.1447  -26.9994 H   0  0  0  0  0  0  0  0  0  0  0  0
   45.8490   84.0860  -26.5080 H   0  0  0  0  0  0  0  0  0  0  0  0
   44.4089   82.0234  -24.7630 H   0  0  0  0  0  0  0  0  0  0  0  0
   43.0830   83.6160  -24.3200 H   0  0  0  0  0  0  0  0  0  0  0  0
   42.2912   80.6717  -25.0168 H   0  0  0  0  0  0  0  0  0  0  0  0
   43.6720   79.1390  -26.5130 H   0  0  0  0  0  0  0  0  0  0  0  0
   41.8952   79.8297  -27.3926 H   0  0  0  0  0  0  0  0  0  0  0  0
   40.4633   81.4782  -25.8978 H   0  0  0  0  0  0  0  0  0  0  0  0
   40.8479   82.5934  -27.2792 H   0  0  0  0  0  0  0  0  0  0  0  0
   39.1820   81.6180  -28.1570 H   0  0  0  0  0  0  0  0  0  0  0  0
  1  2  2  0
  2  3  1  0
  3  4  1  0
  4  5  1  0
  5  6  1  0
  5  7  1  0
  7  8  1  0
  7  9  1  0
  9 10  1  0
  9 11  1  0
 11 12  1  0
 12 13  1  0
 11 14  1  0
 14 15  1  0
 15 16  2  0
 15  2  1  0
 14  4  1  0
  3 17  1  0
  4 18  1  1
  5 19  1  6
  6 20  1  0
  7 21  1  1
  8 22  1  0
  9 23  1  1
 10 24  1  0
 11 25  1  6
 12 26  1  0
 12 27  1  0
 13 28  1  0
M  END
>  <meeko>  (6) 
{"is_sidechain": [false], "free_energy": -6.753, "intermolecular_energy": -7.961, "internal_energy": -0.171}

$$$$
1ps3_ligand
     RDKit          3D

 28 29  0  0  0  0  0  0  0  0999 V2000
   44.1340   77.2830  -28.2170 O   0  0  0  0  0  0  0  0  0  0  0  0
   43.6060   78.3670  -28.1130 C   0  0  0  0  0  0  0  0  0  0  0  0
   43.8540   79.3420  -27.1700 N   0  0  0  0  0  0  0  0  0  0  0  0
   43.2710   80.5830  -27.5830 C   0  0  2  0  0  0  0  0  0  0  0  0
   42.7160   81.4470  -26.4400 C   0  0  1  0  0  0  0  0  0  0  0  0
   43.7930   81.9780  -25.6520 O   0  0  0  0  0  0  0  0  0  0  0  0
   41.8820   82.6160  -27.0130 C   0  0  1  0  0  0  0  0  0  0  0  0
   42.7840   83.5740  -27.5860 O   0  0  0  0  0  0  0  0  0  0  0  0
   40.8330   82.1510  -28.0520 C   0  0  2  0  0  0  0  0  0  0  0  0
   39.7880   81.4640  -27.3500 O   0  0  0  0  0  0  0  0  0  0  0  0
   41.4150   81.2260  -29.1470 C   0  0  1  0  0  0  0  0  0  0  0  0
   42.1760   81.9860  -30.2490 C   0  0  0  0  0  0  0  0  0  0  0  0
   42.0560   81.3530  -31.5220 O   0  0  0  0  0  0  0  0  0  0  0  0
   42.2410   80.2050  -28.5110 N   0  0  0  0  0  0  0  0  0  0  0  0
   42.5050   78.9590  -29.0370 C   0  0  0  0  0  0  0  0  0  0  0  0
   41.9970   78.4400  -30.0070 O   0  0  0  0  0  0  0  0  0  0  0  0
   44.6910   79.2840  -26.6040 H   0  0  0  0  0  0  0  0  0  0  0  0
   44.0398   81.2332  -28.0259 H   0  0  0  0  0  0  0  0  0  0  0  0
   42.0757   80.8158  -25.8062 H   0  0  0  0  0  0  0  0  0  0  0  0
   43.6620   81.6240  -24.7490 H   0  0  0  0  0  0  0  0  0  0  0  0
   41.3076   83.0717  -26.1930 H   0  0  0  0  0  0  0  0  0  0  0  0
   42.2740   84.0950  -28.2360 H   0  0  0  0  0  0  0  0  0  0  0  0
   40.4588   83.0445  -28.5731 H   0  0  0  0  0  0  0  0  0  0  0  0
   39.9240   81.5780  -26.3910 H   0  0  0  0  0  0  0  0  0  0  0  0
   40.5761   80.7456  -29.6719 H   0  0  0  0  0  0  0  0  0  0  0  0
   41.7701   83.0058  -30.3209 H   0  0  0  0  0  0  0  0  0  0  0  0
   43.2417   81.9974  -29.9768 H   0  0  0  0  0  0  0  0  0  0  0  0
   42.5610   81.8610  -32.1880 H   0  0  0  0  0  0  0  0  0  0  0  0
  1  2  2  0
  2  3  1  0
  3  4  1  0
  4  5  1  0
  5  6  1  0
  5  7  1  0
  7  8  1  0
  7  9  1  0
  9 10  1  0
  9 11  1  0
 11 12  1  0
 12 13  1  0
 11 14  1  0
 14 15  1  0
 15 16  2  0
 15  2  1  0
 14  4  1  0
  3 17  1  0
  4 18  1  6
  5 19  1  1
  6 20  1  0
  7 21  1  1
  8 22  1  0
  9 23  1  6
 10 24  1  0
 11 25  1  6
 12 26  1  0
 12 27  1  0
 13 28  1  0
M  END
>  <meeko>  (7) 
{"is_sidechain": [false], "free_energy": -6.752, "intermolecular_energy": -7.954, "internal_energy": -0.176}

$$$$
1ps3_ligand
     RDKit          3D

 28 29  0  0  0  0  0  0  0  0999 V2000
   39.3830   79.0740  -28.8470 O   0  0  0  0  0  0  0  0  0  0  0  0
   40.2810   79.8140  -28.5150 C   0  0  0  0  0  0  0  0  0  0  0  0
   40.1820   81.0210  -27.8560 N   0  0  0  0  0  0  0  0  0  0  0  0
   41.4670   81.4170  -27.3620 C   0  0  2  0  0  0  0  0  0  0  0  0
   41.7310   82.9300  -27.3890 C   0  0  1  0  0  0  0  0  0  0  0  0
   40.9210   83.5920  -26.4050 O   0  0  0  0  0  0  0  0  0  0  0  0
   43.2220   83.2160  -27.0940 C   0  0  1  0  0  0  0  0  0  0  0  0
   43.4580   82.9830  -25.6980 O   0  0  0  0  0  0  0  0  0  0  0  0
   44.1780   82.3690  -27.9680 C   0  0  2  0  0  0  0  0  0  0  0  0
   44.1220   82.8760  -29.3090 O   0  0  0  0  0  0  0  0  0  0  0  0
   43.8380   80.8590  -27.9720 C   0  0  1  0  0  0  0  0  0  0  0  0
   44.3260   80.1200  -26.7130 C   0  0  0  0  0  0  0  0  0  0  0  0
   44.6220   78.7480  -26.9730 O   0  0  0  0  0  0  0  0  0  0  0  0
   42.4030   80.7000  -28.1840 N   0  0  0  0  0  0  0  0  0  0  0  0
   41.8030   79.5900  -28.7360 C   0  0  0  0  0  0  0  0  0  0  0  0
   42.3400   78.6440  -29.2710 O   0  0  0  0  0  0  0  0  0  0  0  0
   39.3130   81.2670  -27.3980 H   0  0  0  0  0  0  0  0  0  0  0  0
   41.5517   81.1768  -26.2919 H   0  0  0  0  0  0  0  0  0  0  0  0
   41.4755   83.3096  -28.3893 H   0  0  0  0  0  0  0  0  0  0  0  0
   41.4770   84.3110  -26.0400 H   0  0  0  0  0  0  0  0  0  0  0  0
   43.4352   84.2646  -27.3489 H   0  0  0  0  0  0  0  0  0  0  0  0
   44.3600   83.3030  -25.5030 H   0  0  0  0  0  0  0  0  0  0  0  0
   45.1872   82.4553  -27.5390 H   0  0  0  0  0  0  0  0  0  0  0  0
   44.0990   83.8510  -29.2760 H   0  0  0  0  0  0  0  0  0  0  0  0
   44.3857   80.3851  -28.7999 H   0  0  0  0  0  0  0  0  0  0  0  0
   45.2360   80.6145  -26.3425 H   0  0  0  0  0  0  0  0  0  0  0  0
   43.5186   80.1554  -25.9668 H   0  0  0  0  0  0  0  0  0  0  0  0
   44.6770   78.2600  -26.1280 H   0  0  0  0  0  0  0  0  0  0  0  0
  1  2  2  0
  2  3  1  0
  3  4  1  0
  4  5  1  0
  5  6  1  0
  5  7  1  0
  7  8  1  0
  7  9  1  0
  9 10  1  0
  9 11  1  0
 11 12  1  0
 12 13  1  0
 11 14  1  0
 14 15  1  0
 15 16  2  0
 15  2  1  0
 14  4  1  0
  3 17  1  0
  4 18  1  1
  5 19  1  6
  6 20  1  0
  7 21  1  1
  8 22  1  0
  9 23  1  1
 10 24  1  0
 11 25  1  6
 12 26  1  0
 12 27  1  0
 13 28  1  0
M  END
>  <meeko>  (8) 
{"is_sidechain": [false], "free_energy": -6.702, "intermolecular_energy": -7.882, "internal_energy": -0.191}

$$$$
1ps3_ligand
     RDKit          3D

 28 29  0  0  0  0  0  0  0  0999 V2000
   45.2520   81.9110  -25.3690 O   0  0  0  0  0  0  0  0  0  0  0  0
   44.2680   81.9330  -26.0750 C   0  0  0  0  0  0  0  0  0  0  0  0
   43.1930   82.7920  -26.0000 N   0  0  0  0  0  0  0  0  0  0  0  0
   42.4110   82.7040  -27.1970 C   0  0  2  0  0  0  0  0  0  0  0  0
   40.8970   82.8660  -26.9920 C   0  0  1  0  0  0  0  0  0  0  0  0
   40.5860   84.2250  -26.6430 O   0  0  0  0  0  0  0  0  0  0  0  0
   40.1410   82.4890  -28.2870 C   0  0  1  0  0  0  0  0  0  0  0  0
   40.3400   83.5380  -29.2470 O   0  0  0  0  0  0  0  0  0  0  0  0
   40.5810   81.1220  -28.8610 C   0  0  2  0  0  0  0  0  0  0  0  0
   40.0670   80.0930  -28.0040 O   0  0  0  0  0  0  0  0  0  0  0  0
   42.1160   80.9680  -28.9870 C   0  0  1  0  0  0  0  0  0  0  0  0
   42.7030   81.6800  -30.2210 C   0  0  0  0  0  0  0  0  0  0  0  0
   41.7650   81.7600  -31.2930 O   0  0  0  0  0  0  0  0  0  0  0  0
   42.7380   81.4170  -27.7450 N   0  0  0  0  0  0  0  0  0  0  0  0
   43.9610   80.9920  -27.2740 C   0  0  0  0  0  0  0  0  0  0  0  0
   44.6490   80.0900  -27.7010 O   0  0  0  0  0  0  0  0  0  0  0  0
   43.2710   83.6390  -25.4500 H   0  0  0  0  0  0  0  0  0  0  0  0
   42.6538   83.5394  -27.8702 H   0  0  0  0  0  0  0  0  0  0  0  0
   40.5832   82.1980  -26.1763 H   0  0  0  0  0  0  0  0  0  0  0  0
   39.6880   84.2020  -26.2560 H   0  0  0  0  0  0  0  0  0  0  0  0
   39.0721   82.3829  -28.0500 H   0  0  0  0  0  0  0  0  0  0  0  0
   40.7820   83.1390  -30.0210 H   0  0  0  0  0  0  0  0  0  0  0  0
   40.1795   81.0448  -29.8822 H   0  0  0  0  0  0  0  0  0  0  0  0
   39.6710   80.5090  -27.2150 H   0  0  0  0  0  0  0  0  0  0  0  0
   42.3422   79.9036  -29.1479 H   0  0  0  0  0  0  0  0  0  0  0  0
   43.0007   82.6992  -29.9338 H   0  0  0  0  0  0  0  0  0  0  0  0
   43.5663   81.0946  -30.5702 H   0  0  0  0  0  0  0  0  0  0  0  0
   42.0370   82.4650  -31.9140 H   0  0  0  0  0  0  0  0  0  0  0  0
  1  2  2  0
  2  3  1  0
  3  4  1  0
  4  5  1  0
  5  6  1  0
  5  7  1  0
  7  8  1  0
  7  9  1  0
  9 10  1  0
  9 11  1  0
 11 12  1  0
 12 13  1  0
 11 14  1  0
 14 15  1  0
 15 16  2  0
 15  2  1  0
 14  4  1  0
  3 17  1  0
  4 18  1  6
  5 19  1  1
  6 20  1  0
  7 21  1  1
  8 22  1  0
  9 23  1  6
 10 24  1  0
 11 25  1  6
 12 26  1  0
 12 27  1  0
 13 28  1  0
M  END
>  <meeko>  (9) 
{"is_sidechain": [false], "free_energy": -6.603, "intermolecular_energy": -7.68, "internal_energy": -0.276}

$$$$
