3acw_ligand
     RDKit          3D

 43 46  0  0  0  0  0  0  0  0999 V2000
   56.6170   12.1400   51.0220 O   0  0  0  0  0  0  0  0  0  0  0  0
   55.8860   12.5710   52.1840 C   0  0  2  0  0  0  0  0  0  0  0  0
   56.2550   14.0300   52.4230 C   0  0  0  0  0  0  0  0  0  0  0  0
   55.8470   15.0040   51.4920 C   0  0  0  0  0  0  0  0  0  0  0  0
   56.1540   16.3570   51.6710 C   0  0  0  0  0  0  0  0  0  0  0  0
   56.8680   16.7940   52.7930 C   0  0  0  0  0  0  0  0  0  0  0  0
   57.1910   18.2170   52.9850 C   0  0  0  0  0  0  0  0  0  0  0  0
   57.0050   19.1480   51.9490 C   0  0  0  0  0  0  0  0  0  0  0  0
   57.3120   20.4990   52.1300 C   0  0  0  0  0  0  0  0  0  0  0  0
   57.8090   20.9430   53.3520 C   0  0  0  0  0  0  0  0  0  0  0  0
   57.9990   20.0390   54.3930 C   0  0  0  0  0  0  0  0  0  0  0  0
   57.6940   18.6880   54.2100 C   0  0  0  0  0  0  0  0  0  0  0  0
   57.2550   15.8290   53.7330 C   0  0  0  0  0  0  0  0  0  0  0  0
   56.9480   14.4730   53.5570 C   0  0  0  0  0  0  0  0  0  0  0  0
   56.3300   11.6650   53.3850 C   0  0  0  0  0  0  0  0  0  0  0  0
   55.2750   10.5780   53.6180 N   0  0  2  0  0  0  0  0  0  0  0  0
   54.9930    9.8330   52.3270 C   0  0  0  0  0  0  0  0  0  0  0  0
   54.2720   10.7860   51.3760 C   0  0  0  0  0  0  0  0  0  0  0  0
   54.3810   12.2410   51.8980 C   0  0  1  0  0  0  0  0  0  0  0  0
   53.5610   12.2980   53.2070 C   0  0  0  0  0  0  0  0  0  0  0  0
   54.0130   11.1990   54.1730 C   0  0  0  0  0  0  0  0  0  0  0  0
   57.2010   12.8710   50.7390 H   0  0  0  0  0  0  0  0  0  0  0  0
   55.2747   14.6946   50.6050 H   0  0  0  0  0  0  0  0  0  0  0  0
   55.8290   17.0897   50.9176 H   0  0  0  0  0  0  0  0  0  0  0  0
   56.6113   18.8077   50.9799 H   0  0  0  0  0  0  0  0  0  0  0  0
   57.1608   21.2122   51.3063 H   0  0  0  0  0  0  0  0  0  0  0  0
   58.0512   22.0065   53.4947 H   0  0  0  0  0  0  0  0  0  0  0  0
   58.3895   20.3884   55.3602 H   0  0  0  0  0  0  0  0  0  0  0  0
   57.8501   17.9812   55.0383 H   0  0  0  0  0  0  0  0  0  0  0  0
   57.8118   16.1428   54.6283 H   0  0  0  0  0  0  0  0  0  0  0  0
   57.2562   13.7447   54.3216 H   0  0  0  0  0  0  0  0  0  0  0  0
   57.2968   11.1946   53.1524 H   0  0  0  0  0  0  0  0  0  0  0  0
   56.4317   12.2795   54.2916 H   0  0  0  0  0  0  0  0  0  0  0  0
   55.6500    9.9080   54.3030 H   0  0  0  0  0  0  0  0  0  0  0  0
   55.9388    9.4999   51.8747 H   0  0  0  0  0  0  0  0  0  0  0  0
   54.3690    8.9493   52.5259 H   0  0  0  0  0  0  0  0  0  0  0  0
   54.7315   10.7217   50.3786 H   0  0  0  0  0  0  0  0  0  0  0  0
   53.2108   10.5025   51.3176 H   0  0  0  0  0  0  0  0  0  0  0  0
   54.0017   12.9705   51.1673 H   0  0  0  0  0  0  0  0  0  0  0  0
   53.7060   13.2794   53.6822 H   0  0  0  0  0  0  0  0  0  0  0  0
   52.4984   12.1452   52.9673 H   0  0  0  0  0  0  0  0  0  0  0  0
   54.2149   11.6327   55.1635 H   0  0  0  0  0  0  0  0  0  0  0  0
   53.2270   10.4368   54.2788 H   0  0  0  0  0  0  0  0  0  0  0  0
  2  1  1  6
  2  3  1  0
  3  4  2  0
  4  5  1  0
  5  6  2  0
  6  7  1  0
  7  8  2  0
  8  9  1  0
  9 10  2  0
 10 11  1  0
 11 12  2  0
  6 13  1  0
 13 14  2  0
  2 15  1  0
 15 16  1  0
 16 17  1  0
 17 18  1  0
 18 19  1  0
 19 20  1  0
 20 21  1  0
 19  2  1  0
 14  3  1  0
 21 16  1  0
 12  7  1  0
  1 22  1  0
  4 23  1  0
  5 24  1  0
  8 25  1  0
  9 26  1  0
 10 27  1  0
 11 28  1  0
 12 29  1  0
 13 30  1  0
 14 31  1  0
 15 32  1  0
 15 33  1  0
 16 34  1  6
 17 35  1  0
 17 36  1  0
 18 37  1  0
 18 38  1  0
 19 39  1  1
 20 40  1  0
 20 41  1  0
 21 42  1  0
 21 43  1  0
M  CHG  1  16   1
M  END
>  <meeko>  (1) 
{"is_sidechain": [false], "free_energy": -10.303, "intermolecular_energy": -11.808, "internal_energy": -0.768}

$$$$
3acw_ligand
     RDKit          3D

 43 46  0  0  0  0  0  0  0  0999 V2000
   56.6510   12.1230   51.0530 O   0  0  0  0  0  0  0  0  0  0  0  0
   55.9060   12.5690   52.2000 C   0  0  2  0  0  0  0  0  0  0  0  0
   56.2770   14.0280   52.4290 C   0  0  0  0  0  0  0  0  0  0  0  0
   55.8910   14.9940   51.4810 C   0  0  0  0  0  0  0  0  0  0  0  0
   56.2020   16.3480   51.6510 C   0  0  0  0  0  0  0  0  0  0  0  0
   56.8980   16.7930   52.7810 C   0  0  0  0  0  0  0  0  0  0  0  0
   57.2240   18.2170   52.9630 C   0  0  0  0  0  0  0  0  0  0  0  0
   57.7530   18.6880   54.1760 C   0  0  0  0  0  0  0  0  0  0  0  0
   58.0620   20.0410   54.3490 C   0  0  0  0  0  0  0  0  0  0  0  0
   57.8490   20.9430   53.3120 C   0  0  0  0  0  0  0  0  0  0  0  0
   57.3280   20.4970   52.1010 C   0  0  0  0  0  0  0  0  0  0  0  0
   57.0170   19.1460   51.9290 C   0  0  0  0  0  0  0  0  0  0  0  0
   57.2630   15.8360   53.7380 C   0  0  0  0  0  0  0  0  0  0  0  0
   56.9520   14.4800   53.5710 C   0  0  0  0  0  0  0  0  0  0  0  0
   56.3290   11.6730   53.4150 C   0  0  0  0  0  0  0  0  0  0  0  0
   55.2660   10.5920   53.6440 N   0  0  2  0  0  0  0  0  0  0  0  0
   54.9990    9.8350   52.3570 C   0  0  0  0  0  0  0  0  0  0  0  0
   54.2950   10.7820   51.3860 C   0  0  0  0  0  0  0  0  0  0  0  0
   54.4030   12.2420   51.8960 C   0  0  1  0  0  0  0  0  0  0  0  0
   53.5660   12.3160   53.1930 C   0  0  0  0  0  0  0  0  0  0  0  0
   54.0000   11.2240   54.1750 C   0  0  0  0  0  0  0  0  0  0  0  0
   56.1990   11.3390   50.6800 H   0  0  0  0  0  0  0  0  0  0  0  0
   55.3329   14.6781   50.5873 H   0  0  0  0  0  0  0  0  0  0  0  0
   55.8945   17.0742   50.8842 H   0  0  0  0  0  0  0  0  0  0  0  0
   57.9268   17.9824   55.0018 H   0  0  0  0  0  0  0  0  0  0  0  0
   58.4741   20.3922   55.3065 H   0  0  0  0  0  0  0  0  0  0  0  0
   58.0919   22.0071   53.4488 H   0  0  0  0  0  0  0  0  0  0  0  0
   57.1610   21.2086   51.2789 H   0  0  0  0  0  0  0  0  0  0  0  0
   56.6035   18.8038   50.9688 H   0  0  0  0  0  0  0  0  0  0  0  0
   57.8054   16.1565   54.6397 H   0  0  0  0  0  0  0  0  0  0  0  0
   57.2424   13.7585   54.3489 H   0  0  0  0  0  0  0  0  0  0  0  0
   57.2969   11.1965   53.2004 H   0  0  0  0  0  0  0  0  0  0  0  0
   56.4204   12.2959   54.3171 H   0  0  0  0  0  0  0  0  0  0  0  0
   55.6290    9.9280   54.3410 H   0  0  0  0  0  0  0  0  0  0  0  0
   55.9496    9.4934   51.9214 H   0  0  0  0  0  0  0  0  0  0  0  0
   54.3686    8.9558   52.5560 H   0  0  0  0  0  0  0  0  0  0  0  0
   54.7682   10.7062   50.3959 H   0  0  0  0  0  0  0  0  0  0  0  0
   53.2335   10.5023   51.3150 H   0  0  0  0  0  0  0  0  0  0  0  0
   54.0364   12.9653   51.1528 H   0  0  0  0  0  0  0  0  0  0  0  0
   53.7096   13.3012   53.6607 H   0  0  0  0  0  0  0  0  0  0  0  0
   52.5057   12.1666   52.9410 H   0  0  0  0  0  0  0  0  0  0  0  0
   54.1903   11.6661   55.1641 H   0  0  0  0  0  0  0  0  0  0  0  0
   53.2091   10.4663   54.2766 H   0  0  0  0  0  0  0  0  0  0  0  0
  2  1  1  6
  2  3  1  0
  3  4  2  0
  4  5  1  0
  5  6  2  0
  6  7  1  0
  7  8  2  0
  8  9  1  0
  9 10  2  0
 10 11  1  0
 11 12  2  0
  6 13  1  0
 13 14  2  0
  2 15  1  0
 15 16  1  0
 16 17  1  0
 17 18  1  0
 18 19  1  0
 19 20  1  0
 20 21  1  0
 19  2  1  0
 14  3  1  0
 21 16  1  0
 12  7  1  0
  1 22  1  0
  4 23  1  0
  5 24  1  0
  8 25  1  0
  9 26  1  0
 10 27  1  0
 11 28  1  0
 12 29  1  0
 13 30  1  0
 14 31  1  0
 15 32  1  0
 15 33  1  0
 16 34  1  6
 17 35  1  0
 17 36  1  0
 18 37  1  0
 18 38  1  0
 19 39  1  1
 20 40  1  0
 20 41  1  0
 21 42  1  0
 21 43  1  0
M  CHG  1  16   1
M  END
>  <meeko>  (2) 
{"is_sidechain": [false], "free_energy": -10.282, "intermolecular_energy": -11.785, "internal_energy": -0.768}

$$$$
3acw_ligand
     RDKit          3D

 43 46  0  0  0  0  0  0  0  0999 V2000
   56.5640   11.9760   54.3750 O   0  0  0  0  0  0  0  0  0  0  0  0
   55.8740   12.5230   53.2370 C   0  0  2  0  0  0  0  0  0  0  0  0
   56.2050   14.0090   53.1910 C   0  0  0  0  0  0  0  0  0  0  0  0
   56.9400   14.5830   54.2460 C   0  0  0  0  0  0  0  0  0  0  0  0
   57.2750   15.9420   54.2460 C   0  0  0  0  0  0  0  0  0  0  0  0
   56.9050   16.7780   53.1860 C   0  0  0  0  0  0  0  0  0  0  0  0
   57.2580   18.2060   53.1810 C   0  0  0  0  0  0  0  0  0  0  0  0
   57.8650   18.8050   54.2980 C   0  0  0  0  0  0  0  0  0  0  0  0
   58.2000   20.1620   54.2950 C   0  0  0  0  0  0  0  0  0  0  0  0
   57.9360   20.9430   53.1740 C   0  0  0  0  0  0  0  0  0  0  0  0
   57.3370   20.3700   52.0550 C   0  0  0  0  0  0  0  0  0  0  0  0
   57.0010   19.0130   52.0600 C   0  0  0  0  0  0  0  0  0  0  0  0
   56.1940   16.2030   52.1230 C   0  0  0  0  0  0  0  0  0  0  0  0
   55.8570   14.8420   52.1200 C   0  0  0  0  0  0  0  0  0  0  0  0
   54.3400   12.2850   53.4560 C   0  0  0  0  0  0  0  0  0  0  0  0
   53.8920   11.0680   52.6400 N   0  0  2  0  0  0  0  0  0  0  0  0
   54.7730    9.8720   52.9500 C   0  0  0  0  0  0  0  0  0  0  0  0
   56.1650   10.1480   52.3860 C   0  0  0  0  0  0  0  0  0  0  0  0
   56.2990   11.6460   52.0100 C   0  0  1  0  0  0  0  0  0  0  0  0
   55.3390   11.8860   50.8220 C   0  0  0  0  0  0  0  0  0  0  0  0
   53.9280   11.4000   51.1650 C   0  0  0  0  0  0  0  0  0  0  0  0
   57.5120   11.8930   54.1480 H   0  0  0  0  0  0  0  0  0  0  0  0
   57.2576   13.9501   55.0878 H   0  0  0  0  0  0  0  0  0  0  0  0
   57.8385   16.3601   55.0932 H   0  0  0  0  0  0  0  0  0  0  0  0
   58.0799   18.1963   55.1887 H   0  0  0  0  0  0  0  0  0  0  0  0
   58.6729   20.6131   55.1798 H   0  0  0  0  0  0  0  0  0  0  0  0
   58.1999   22.0109   53.1717 H   0  0  0  0  0  0  0  0  0  0  0  0
   57.1283   20.9851   51.1673 H   0  0  0  0  0  0  0  0  0  0  0  0
   56.5276   18.5697   51.1715 H   0  0  0  0  0  0  0  0  0  0  0  0
   55.8941   16.8334   51.2729 H   0  0  0  0  0  0  0  0  0  0  0  0
   55.3106   14.4217   51.2628 H   0  0  0  0  0  0  0  0  0  0  0  0
   54.1456   12.1030   54.5233 H   0  0  0  0  0  0  0  0  0  0  0  0
   53.7800   13.1733   53.1284 H   0  0  0  0  0  0  0  0  0  0  0  0
   52.9270   10.8380   52.9100 H   0  0  0  0  0  0  0  0  0  0  0  0
   54.8341    9.7263   54.0386 H   0  0  0  0  0  0  0  0  0  0  0  0
   54.3524    8.9619   52.4974 H   0  0  0  0  0  0  0  0  0  0  0  0
   56.9215    9.8936   53.1430 H   0  0  0  0  0  0  0  0  0  0  0  0
   56.3169    9.5353   51.4852 H   0  0  0  0  0  0  0  0  0  0  0  0
   57.3315   11.9112   51.7386 H   0  0  0  0  0  0  0  0  0  0  0  0
   55.3060   12.9618   50.5951 H   0  0  0  0  0  0  0  0  0  0  0  0
   55.7058   11.3252   49.9497 H   0  0  0  0  0  0  0  0  0  0  0  0
   53.1967   12.1911   50.9428 H   0  0  0  0  0  0  0  0  0  0  0  0
   53.6748   10.5116   50.5678 H   0  0  0  0  0  0  0  0  0  0  0  0
  2  1  1  1
  2  3  1  0
  3  4  2  0
  4  5  1  0
  5  6  2  0
  6  7  1  0
  7  8  2  0
  8  9  1  0
  9 10  2  0
 10 11  1  0
 11 12  2  0
  6 13  1  0
 13 14  2  0
  2 15  1  0
 15 16  1  0
 16 17  1  0
 17 18  1  0
 18 19  1  0
 19 20  1  0
 20 21  1  0
 19  2  1  0
 14  3  1  0
 21 16  1  0
 12  7  1  0
  1 22  1  0
  4 23  1  0
  5 24  1  0
  8 25  1  0
  9 26  1  0
 10 27  1  0
 11 28  1  0
 12 29  1  0
 13 30  1  0
 14 31  1  0
 15 32  1  0
 15 33  1  0
 16 34  1  6
 17 35  1  0
 17 36  1  0
 18 37  1  0
 18 38  1  0
 19 39  1  1
 20 40  1  0
 20 41  1  0
 21 42  1  0
 21 43  1  0
M  CHG  1  16   1
M  END
>  <meeko>  (3) 
{"is_sidechain": [false], "free_energy": -9.736, "intermolecular_energy": -11.431, "internal_energy": -0.496}

$$$$
3acw_ligand
     RDKit          3D

 43 46  0  0  0  0  0  0  0  0999 V2000
   54.4350   12.4390   50.7150 O   0  0  0  0  0  0  0  0  0  0  0  0
   55.3980   12.4090   51.7840 C   0  0  2  0  0  0  0  0  0  0  0  0
   55.7670   13.8550   52.0890 C   0  0  0  0  0  0  0  0  0  0  0  0
   56.1210   14.2120   53.4040 C   0  0  0  0  0  0  0  0  0  0  0  0
   56.4750   15.5250   53.7320 C   0  0  0  0  0  0  0  0  0  0  0  0
   56.5050   16.5310   52.7590 C   0  0  0  0  0  0  0  0  0  0  0  0
   56.8800   17.9120   53.1010 C   0  0  0  0  0  0  0  0  0  0  0  0
   56.4610   18.9930   52.3080 C   0  0  0  0  0  0  0  0  0  0  0  0
   56.8170   20.3060   52.6330 C   0  0  0  0  0  0  0  0  0  0  0  0
   57.5980   20.5590   53.7570 C   0  0  0  0  0  0  0  0  0  0  0  0
   58.0220   19.5020   54.5580 C   0  0  0  0  0  0  0  0  0  0  0  0
   57.6670   18.1910   54.2320 C   0  0  0  0  0  0  0  0  0  0  0  0
   56.1760   16.1730   51.4440 C   0  0  0  0  0  0  0  0  0  0  0  0
   55.8210   14.8580   51.1120 C   0  0  0  0  0  0  0  0  0  0  0  0
   56.6400   11.5960   51.2770 C   0  0  0  0  0  0  0  0  0  0  0  0
   56.5740   10.1690   51.8310 N   0  0  2  0  0  0  0  0  0  0  0  0
   55.2290    9.5420   51.5140 C   0  0  0  0  0  0  0  0  0  0  0  0
   54.1630   10.2610   52.3390 C   0  0  0  0  0  0  0  0  0  0  0  0
   54.7440   11.5690   52.9340 C   0  0  1  0  0  0  0  0  0  0  0  0
   55.8160   11.1430   53.9630 C   0  0  0  0  0  0  0  0  0  0  0  0
   56.8250   10.1860   53.3220 C   0  0  0  0  0  0  0  0  0  0  0  0
   53.8640   11.6500   50.7950 H   0  0  0  0  0  0  0  0  0  0  0  0
   56.1192   13.4424   54.1900 H   0  0  0  0  0  0  0  0  0  0  0  0
   56.7342   15.7712   54.7723 H   0  0  0  0  0  0  0  0  0  0  0  0
   55.8433   18.8040   51.4176 H   0  0  0  0  0  0  0  0  0  0  0  0
   56.4794   21.1396   51.9996 H   0  0  0  0  0  0  0  0  0  0  0  0
   57.8795   21.5914   54.0118 H   0  0  0  0  0  0  0  0  0  0  0  0
   58.6371   19.6995   55.4483 H   0  0  0  0  0  0  0  0  0  0  0  0
   58.0088   17.3633   54.8707 H   0  0  0  0  0  0  0  0  0  0  0  0
   56.1969   16.9402   50.6560 H   0  0  0  0  0  0  0  0  0  0  0  0
   55.5810   14.6096   50.0676 H   0  0  0  0  0  0  0  0  0  0  0  0
   56.6336   11.5636   50.1775 H   0  0  0  0  0  0  0  0  0  0  0  0
   57.5640   12.0824   51.6230 H   0  0  0  0  0  0  0  0  0  0  0  0
   57.3070    9.6120   51.3730 H   0  0  0  0  0  0  0  0  0  0  0  0
   55.0090    9.6539   50.4420 H   0  0  0  0  0  0  0  0  0  0  0  0
   55.2414    8.4698   51.7594 H   0  0  0  0  0  0  0  0  0  0  0  0
   53.3058   10.5039   51.6938 H   0  0  0  0  0  0  0  0  0  0  0  0
   53.8388    9.6044   53.1598 H   0  0  0  0  0  0  0  0  0  0  0  0
   53.9673   12.1847   53.4111 H   0  0  0  0  0  0  0  0  0  0  0  0
   56.3449   12.0367   54.3257 H   0  0  0  0  0  0  0  0  0  0  0  0
   55.3209   10.6292   54.8002 H   0  0  0  0  0  0  0  0  0  0  0  0
   57.8489   10.5336   53.5239 H   0  0  0  0  0  0  0  0  0  0  0  0
   56.7098    9.1749   53.7395 H   0  0  0  0  0  0  0  0  0  0  0  0
  2  1  1  6
  2  3  1  0
  3  4  2  0
  4  5  1  0
  5  6  2  0
  6  7  1  0
  7  8  2  0
  8  9  1  0
  9 10  2  0
 10 11  1  0
 11 12  2  0
  6 13  1  0
 13 14  2  0
  2 15  1  0
 15 16  1  0
 16 17  1  0
 17 18  1  0
 18 19  1  0
 19 20  1  0
 20 21  1  0
 19  2  1  0
 14  3  1  0
 21 16  1  0
 12  7  1  0
  1 22  1  0
  4 23  1  0
  5 24  1  0
  8 25  1  0
  9 26  1  0
 10 27  1  0
 11 28  1  0
 12 29  1  0
 13 30  1  0
 14 31  1  0
 15 32  1  0
 15 33  1  0
 16 34  1  1
 17 35  1  0
 17 36  1  0
 18 37  1  0
 18 38  1  0
 19 39  1  6
 20 40  1  0
 20 41  1  0
 21 42  1  0
 21 43  1  0
M  CHG  1  16   1
M  END
>  <meeko>  (4) 
{"is_sidechain": [false], "free_energy": -8.68, "intermolecular_energy": -10.363, "internal_energy": -0.354}

$$$$
3acw_ligand
     RDKit          3D

 43 46  0  0  0  0  0  0  0  0999 V2000
   54.5580   13.6900   50.8100 O   0  0  0  0  0  0  0  0  0  0  0  0
   55.5180   13.3340   51.8210 C   0  0  2  0  0  0  0  0  0  0  0  0
   56.1750   14.6280   52.2840 C   0  0  0  0  0  0  0  0  0  0  0  0
   55.5470   15.8570   52.0020 C   0  0  0  0  0  0  0  0  0  0  0  0
   56.1070   17.0720   52.4120 C   0  0  0  0  0  0  0  0  0  0  0  0
   57.3070   17.1080   53.1320 C   0  0  0  0  0  0  0  0  0  0  0  0
   57.8970   18.3850   53.5670 C   0  0  0  0  0  0  0  0  0  0  0  0
   59.2230   18.4510   54.0240 C   0  0  0  0  0  0  0  0  0  0  0  0
   59.7830   19.6630   54.4380 C   0  0  0  0  0  0  0  0  0  0  0  0
   59.0260   20.8300   54.4000 C   0  0  0  0  0  0  0  0  0  0  0  0
   57.7100   20.7880   53.9480 C   0  0  0  0  0  0  0  0  0  0  0  0
   57.1500   19.5750   53.5370 C   0  0  0  0  0  0  0  0  0  0  0  0
   57.9210   15.8850   53.4340 C   0  0  0  0  0  0  0  0  0  0  0  0
   57.3630   14.6660   53.0250 C   0  0  0  0  0  0  0  0  0  0  0  0
   56.5610   12.3660   51.1620 C   0  0  0  0  0  0  0  0  0  0  0  0
   56.2230   10.9200   51.5400 N   0  0  2  0  0  0  0  0  0  0  0  0
   54.7740   10.6150   51.2110 C   0  0  0  0  0  0  0  0  0  0  0  0
   53.8910   11.4150   52.1660 C   0  0  0  0  0  0  0  0  0  0  0  0
   54.7330   12.4960   52.8890 C   0  0  1  0  0  0  0  0  0  0  0  0
   55.7200   11.7400   53.8070 C   0  0  0  0  0  0  0  0  0  0  0  0
   56.5050   10.6950   53.0090 C   0  0  0  0  0  0  0  0  0  0  0  0
   54.6420   13.0540   50.0710 H   0  0  0  0  0  0  0  0  0  0  0  0
   54.5967   15.8616   51.4480 H   0  0  0  0  0  0  0  0  0  0  0  0
   55.5960   18.0142   52.1645 H   0  0  0  0  0  0  0  0  0  0  0  0
   59.8306   17.5346   54.0567 H   0  0  0  0  0  0  0  0  0  0  0  0
   60.8233   19.6943   54.7942 H   0  0  0  0  0  0  0  0  0  0  0  0
   59.4665   21.7836   54.7264 H   0  0  0  0  0  0  0  0  0  0  0  0
   57.1106   21.7097   53.9143 H   0  0  0  0  0  0  0  0  0  0  0  0
   56.1083   19.5515   53.1845 H   0  0  0  0  0  0  0  0  0  0  0  0
   58.8615   15.8816   54.0045 H   0  0  0  0  0  0  0  0  0  0  0  0
   57.8660   13.7244   53.2901 H   0  0  0  0  0  0  0  0  0  0  0  0
   56.5251   12.4774   50.0682 H   0  0  0  0  0  0  0  0  0  0  0  0
   57.5706   12.6135   51.5219 H   0  0  0  0  0  0  0  0  0  0  0  0
   56.8200   10.2950   50.9830 H   0  0  0  0  0  0  0  0  0  0  0  0
   54.5585   10.9059   50.1723 H   0  0  0  0  0  0  0  0  0  0  0  0
   54.5769    9.5385   51.3220 H   0  0  0  0  0  0  0  0  0  0  0  0
   53.0860   11.9017   51.5959 H   0  0  0  0  0  0  0  0  0  0  0  0
   53.4600   10.7337   52.9144 H   0  0  0  0  0  0  0  0  0  0  0  0
   54.1045   13.1844   53.4731 H   0  0  0  0  0  0  0  0  0  0  0  0
   56.4238   12.4592   54.2514 H   0  0  0  0  0  0  0  0  0  0  0  0
   55.1497   11.2287   54.5965 H   0  0  0  0  0  0  0  0  0  0  0  0
   57.5817   10.8079   53.2040 H   0  0  0  0  0  0  0  0  0  0  0  0
   56.2010    9.6803   53.3054 H   0  0  0  0  0  0  0  0  0  0  0  0
  2  1  1  6
  2  3  1  0
  3  4  2  0
  4  5  1  0
  5  6  2  0
  6  7  1  0
  7  8  2  0
  8  9  1  0
  9 10  2  0
 10 11  1  0
 11 12  2  0
  6 13  1  0
 13 14  2  0
  2 15  1  0
 15 16  1  0
 16 17  1  0
 17 18  1  0
 18 19  1  0
 19 20  1  0
 20 21  1  0
 19  2  1  0
 14  3  1  0
 21 16  1  0
 12  7  1  0
  1 22  1  0
  4 23  1  0
  5 24  1  0
  8 25  1  0
  9 26  1  0
 10 27  1  0
 11 28  1  0
 12 29  1  0
 13 30  1  0
 14 31  1  0
 15 32  1  0
 15 33  1  0
 16 34  1  1
 17 35  1  0
 17 36  1  0
 18 37  1  0
 18 38  1  0
 19 39  1  6
 20 40  1  0
 20 41  1  0
 21 42  1  0
 21 43  1  0
M  CHG  1  16   1
M  END
>  <meeko>  (5) 
{"is_sidechain": [false], "free_energy": -8.155, "intermolecular_energy": -9.471, "internal_energy": -0.643}

$$$$
3acw_ligand
     RDKit          3D

 43 46  0  0  0  0  0  0  0  0999 V2000
   59.3130   18.0460   54.1260 O   0  0  0  0  0  0  0  0  0  0  0  0
   57.9740   18.2400   53.6380 C   0  0  2  0  0  0  0  0  0  0  0  0
   57.2770   16.8870   53.7090 C   0  0  0  0  0  0  0  0  0  0  0  0
   56.5800   16.4120   52.5810 C   0  0  0  0  0  0  0  0  0  0  0  0
   55.9310   15.1720   52.5940 C   0  0  0  0  0  0  0  0  0  0  0  0
   55.9630   14.3510   53.7270 C   0  0  0  0  0  0  0  0  0  0  0  0
   55.2830   13.0460   53.7430 C   0  0  0  0  0  0  0  0  0  0  0  0
   53.9450   12.9320   54.1560 C   0  0  0  0  0  0  0  0  0  0  0  0
   53.2990   11.6930   54.1710 C   0  0  0  0  0  0  0  0  0  0  0  0
   53.9800   10.5470   53.7730 C   0  0  0  0  0  0  0  0  0  0  0  0
   55.3060   10.6370   53.3590 C   0  0  0  0  0  0  0  0  0  0  0  0
   55.9520   11.8760   53.3450 C   0  0  0  0  0  0  0  0  0  0  0  0
   56.6750   14.8120   54.8430 C   0  0  0  0  0  0  0  0  0  0  0  0
   57.3270   16.0530   54.8330 C   0  0  0  0  0  0  0  0  0  0  0  0
   58.0790   18.7520   52.1590 C   0  0  0  0  0  0  0  0  0  0  0  0
   57.8810   20.2710   52.1330 N   0  0  2  0  0  0  0  0  0  0  0  0
   58.8280   20.9430   53.1090 C   0  0  0  0  0  0  0  0  0  0  0  0
   58.3850   20.5820   54.5260 C   0  0  0  0  0  0  0  0  0  0  0  0
   57.3690   19.4130   54.4830 C   0  0  1  0  0  0  0  0  0  0  0  0
   56.0960   19.9630   53.8010 C   0  0  0  0  0  0  0  0  0  0  0  0
   56.4420   20.6060   52.4550 C   0  0  0  0  0  0  0  0  0  0  0  0
   59.4150   17.1060   54.3760 H   0  0  0  0  0  0  0  0  0  0  0  0
   56.5450   17.0285   51.6707 H   0  0  0  0  0  0  0  0  0  0  0  0
   55.3867   14.8371   51.6987 H   0  0  0  0  0  0  0  0  0  0  0  0
   53.3974   13.8320   54.4725 H   0  0  0  0  0  0  0  0  0  0  0  0
   52.2510   11.6237   54.4978 H   0  0  0  0  0  0  0  0  0  0  0  0
   53.4716    9.5716   53.7854 H   0  0  0  0  0  0  0  0  0  0  0  0
   55.8457    9.7322   53.0427 H   0  0  0  0  0  0  0  0  0  0  0  0
   57.0003   11.9364   53.0174 H   0  0  0  0  0  0  0  0  0  0  0  0
   56.7232   14.1863   55.7464 H   0  0  0  0  0  0  0  0  0  0  0  0
   57.8871   16.3770   55.7226 H   0  0  0  0  0  0  0  0  0  0  0  0
   59.0712   18.5039   51.7540 H   0  0  0  0  0  0  0  0  0  0  0  0
   57.3035   18.2691   51.5463 H   0  0  0  0  0  0  0  0  0  0  0  0
   58.1010   20.6070   51.1860 H   0  0  0  0  0  0  0  0  0  0  0  0
   59.8546   20.5871   52.9373 H   0  0  0  0  0  0  0  0  0  0  0  0
   58.8073   22.0340   52.9698 H   0  0  0  0  0  0  0  0  0  0  0  0
   59.2628   20.2799   55.1161 H   0  0  0  0  0  0  0  0  0  0  0  0
   57.9073   21.4582   54.9888 H   0  0  0  0  0  0  0  0  0  0  0  0
   57.1389   19.0310   55.4886 H   0  0  0  0  0  0  0  0  0  0  0  0
   55.3884   19.1371   53.6361 H   0  0  0  0  0  0  0  0  0  0  0  0
   55.6449   20.7253   54.4532 H   0  0  0  0  0  0  0  0  0  0  0  0
   55.7816   20.2080   51.6705 H   0  0  0  0  0  0  0  0  0  0  0  0
   56.3058   21.6963   52.5062 H   0  0  0  0  0  0  0  0  0  0  0  0
  2  1  1  1
  2  3  1  0
  3  4  2  0
  4  5  1  0
  5  6  2  0
  6  7  1  0
  7  8  2  0
  8  9  1  0
  9 10  2  0
 10 11  1  0
 11 12  2  0
  6 13  1  0
 13 14  2  0
  2 15  1  0
 15 16  1  0
 16 17  1  0
 17 18  1  0
 18 19  1  0
 19 20  1  0
 20 21  1  0
 19  2  1  0
 14  3  1  0
 21 16  1  0
 12  7  1  0
  1 22  1  0
  4 23  1  0
  5 24  1  0
  8 25  1  0
  9 26  1  0
 10 27  1  0
 11 28  1  0
 12 29  1  0
 13 30  1  0
 14 31  1  0
 15 32  1  0
 15 33  1  0
 16 34  1  1
 17 35  1  0
 17 36  1  0
 18 37  1  0
 18 38  1  0
 19 39  1  6
 20 40  1  0
 20 41  1  0
 21 42  1  0
 21 43  1  0
M  CHG  1  16   1
M  END
>  <meeko>  (6) 
{"is_sidechain": [false], "free_energy": -8.045, "intermolecular_energy": -9.254, "internal_energy": -0.734}

$$$$
3acw_ligand
     RDKit          3D

 43 46  0  0  0  0  0  0  0  0999 V2000
   54.8320   12.2780   53.5440 O   0  0  0  0  0  0  0  0  0  0  0  0
   55.9460   12.5180   52.6660 C   0  0  2  0  0  0  0  0  0  0  0  0
   56.3170   13.9880   52.8120 C   0  0  0  0  0  0  0  0  0  0  0  0
   55.9480   14.8940   51.7990 C   0  0  0  0  0  0  0  0  0  0  0  0
   56.2590   16.2560   51.8910 C   0  0  0  0  0  0  0  0  0  0  0  0
   56.9360   16.7690   53.0030 C   0  0  0  0  0  0  0  0  0  0  0  0
   57.2620   18.2010   53.1030 C   0  0  0  0  0  0  0  0  0  0  0  0
   57.8050   18.7390   54.2820 C   0  0  0  0  0  0  0  0  0  0  0  0
   58.1140   20.0990   54.3780 C   0  0  0  0  0  0  0  0  0  0  0  0
   57.8860   20.9440   53.2950 C   0  0  0  0  0  0  0  0  0  0  0  0
   57.3510   20.4310   52.1160 C   0  0  0  0  0  0  0  0  0  0  0  0
   57.0410   19.0720   52.0220 C   0  0  0  0  0  0  0  0  0  0  0  0
   57.2830   15.8730   54.0230 C   0  0  0  0  0  0  0  0  0  0  0  0
   56.9730   14.5090   53.9340 C   0  0  0  0  0  0  0  0  0  0  0  0
   55.4770   12.1890   51.2060 C   0  0  0  0  0  0  0  0  0  0  0  0
   55.9800   10.7950   50.8130 N   0  0  2  0  0  0  0  0  0  0  0  0
   55.5740    9.7740   51.8590 C   0  0  0  0  0  0  0  0  0  0  0  0
   56.3670   10.0580   53.1330 C   0  0  0  0  0  0  0  0  0  0  0  0
   57.0330   11.4540   53.0440 C   0  0  1  0  0  0  0  0  0  0  0  0
   58.1010   11.3600   51.9300 C   0  0  0  0  0  0  0  0  0  0  0  0
   57.4810   10.8240   50.6360 C   0  0  0  0  0  0  0  0  0  0  0  0
   54.1070   11.8850   53.0180 H   0  0  0  0  0  0  0  0  0  0  0  0
   55.4042   14.5240   50.9173 H   0  0  0  0  0  0  0  0  0  0  0  0
   55.9663   16.9340   51.0757 H   0  0  0  0  0  0  0  0  0  0  0  0
   57.9898   18.0797   55.1429 H   0  0  0  0  0  0  0  0  0  0  0  0
   58.5376   20.5019   55.3098 H   0  0  0  0  0  0  0  0  0  0  0  0
   58.1279   22.0144   53.3705 H   0  0  0  0  0  0  0  0  0  0  0  0
   57.1724   21.0962   51.2583 H   0  0  0  0  0  0  0  0  0  0  0  0
   56.6171   18.6771   51.0869 H   0  0  0  0  0  0  0  0  0  0  0  0
   57.8100   16.2482   54.9127 H   0  0  0  0  0  0  0  0  0  0  0  0
   57.2497   13.8366   54.7594 H   0  0  0  0  0  0  0  0  0  0  0  0
   54.3782   12.2094   51.1599 H   0  0  0  0  0  0  0  0  0  0  0  0
   55.8856   12.9372   50.5108 H   0  0  0  0  0  0  0  0  0  0  0  0
   55.5410   10.5360   49.9190 H   0  0  0  0  0  0  0  0  0  0  0  0
   54.4966    9.8586   52.0639 H   0  0  0  0  0  0  0  0  0  0  0  0
   55.7836    8.7559   51.4990 H   0  0  0  0  0  0  0  0  0  0  0  0
   55.6877   10.0332   53.9978 H   0  0  0  0  0  0  0  0  0  0  0  0
   57.1483    9.2925   53.2495 H   0  0  0  0  0  0  0  0  0  0  0  0
   57.4899   11.7529   53.9989 H   0  0  0  0  0  0  0  0  0  0  0  0
   58.5189   12.3604   51.7439 H   0  0  0  0  0  0  0  0  0  0  0  0
   58.8950   10.6718   52.2556 H   0  0  0  0  0  0  0  0  0  0  0  0
   57.7449   11.4824   49.7952 H   0  0  0  0  0  0  0  0  0  0  0  0
   57.8596    9.8138   50.4213 H   0  0  0  0  0  0  0  0  0  0  0  0
  2  1  1  1
  2  3  1  0
  3  4  2  0
  4  5  1  0
  5  6  2  0
  6  7  1  0
  7  8  2  0
  8  9  1  0
  9 10  2  0
 10 11  1  0
 11 12  2  0
  6 13  1  0
 13 14  2  0
  2 15  1  0
 15 16  1  0
 16 17  1  0
 17 18  1  0
 18 19  1  0
 19 20  1  0
 20 21  1  0
 19  2  1  0
 14  3  1  0
 21 16  1  0
 12  7  1  0
  1 22  1  0
  4 23  1  0
  5 24  1  0
  8 25  1  0
  9 26  1  0
 10 27  1  0
 11 28  1  0
 12 29  1  0
 13 30  1  0
 14 31  1  0
 15 32  1  0
 15 33  1  0
 16 34  1  1
 17 35  1  0
 17 36  1  0
 18 37  1  0
 18 38  1  0
 19 39  1  6
 20 40  1  0
 20 41  1  0
 21 42  1  0
 21 43  1  0
M  CHG  1  16   1
M  END
>  <meeko>  (7) 
{"is_sidechain": [false], "free_energy": -7.899, "intermolecular_energy": -9.067, "internal_energy": -0.755}

$$$$
3acw_ligand
     RDKit          3D

 43 46  0  0  0  0  0  0  0  0999 V2000
   55.4410   18.4030   52.6620 O   0  0  0  0  0  0  0  0  0  0  0  0
   56.6670   17.7620   53.0550 C   0  0  2  0  0  0  0  0  0  0  0  0
   56.4520   16.2620   52.8990 C   0  0  0  0  0  0  0  0  0  0  0  0
   55.8790   15.7690   51.7120 C   0  0  0  0  0  0  0  0  0  0  0  0
   55.6690   14.3990   51.5180 C   0  0  0  0  0  0  0  0  0  0  0  0
   56.0350   13.4660   52.4960 C   0  0  0  0  0  0  0  0  0  0  0  0
   55.8170   12.0240   52.2940 C   0  0  0  0  0  0  0  0  0  0  0  0
   56.6860   11.0750   52.8550 C   0  0  0  0  0  0  0  0  0  0  0  0
   56.4800    9.7060   52.6630 C   0  0  0  0  0  0  0  0  0  0  0  0
   55.3990    9.2630   51.9070 C   0  0  0  0  0  0  0  0  0  0  0  0
   54.5240   10.1870   51.3420 C   0  0  0  0  0  0  0  0  0  0  0  0
   54.7320   11.5560   51.5330 C   0  0  0  0  0  0  0  0  0  0  0  0
   56.6270   13.9530   53.6690 C   0  0  0  0  0  0  0  0  0  0  0  0
   56.8400   15.3240   53.8660 C   0  0  0  0  0  0  0  0  0  0  0  0
   56.9440   18.1480   54.5490 C   0  0  0  0  0  0  0  0  0  0  0  0
   57.9830   19.2730   54.5990 N   0  0  2  0  0  0  0  0  0  0  0  0
   57.5540   20.4270   53.7120 C   0  0  0  0  0  0  0  0  0  0  0  0
   57.6430   19.9660   52.2580 C   0  0  0  0  0  0  0  0  0  0  0  0
   57.7990   18.4260   52.1970 C   0  0  1  0  0  0  0  0  0  0  0  0
   59.1860   18.1020   52.7970 C   0  0  0  0  0  0  0  0  0  0  0  0
   59.3350   18.7410   54.1810 C   0  0  0  0  0  0  0  0  0  0  0  0
   54.7090   18.0040   53.1730 H   0  0  0  0  0  0  0  0  0  0  0  0
   55.5900   16.4754   50.9199 H   0  0  0  0  0  0  0  0  0  0  0  0
   55.2089   14.0494   50.5820 H   0  0  0  0  0  0  0  0  0  0  0  0
   57.5430   11.4143   53.4554 H   0  0  0  0  0  0  0  0  0  0  0  0
   57.1731    8.9781   53.1099 H   0  0  0  0  0  0  0  0  0  0  0  0
   55.2362    8.1856   51.7562 H   0  0  0  0  0  0  0  0  0  0  0  0
   53.6682    9.8393   50.7447 H   0  0  0  0  0  0  0  0  0  0  0  0
   54.0360   12.2779   51.0809 H   0  0  0  0  0  0  0  0  0  0  0  0
   56.9313   13.2434   54.4525 H   0  0  0  0  0  0  0  0  0  0  0  0
   57.3191   15.6696   54.7939 H   0  0  0  0  0  0  0  0  0  0  0  0
   56.0101   18.4897   55.0191 H   0  0  0  0  0  0  0  0  0  0  0  0
   57.3261   17.2702   55.0908 H   0  0  0  0  0  0  0  0  0  0  0  0
   58.0410   19.6150   55.5680 H   0  0  0  0  0  0  0  0  0  0  0  0
   56.5192   20.7150   53.9492 H   0  0  0  0  0  0  0  0  0  0  0  0
   58.2062   21.2974   53.8766 H   0  0  0  0  0  0  0  0  0  0  0  0
   56.7262   20.2603   51.7262 H   0  0  0  0  0  0  0  0  0  0  0  0
   58.5175   20.4357   51.7840 H   0  0  0  0  0  0  0  0  0  0  0  0
   57.7201   18.0450   51.1681 H   0  0  0  0  0  0  0  0  0  0  0  0
   59.2949   17.0112   52.8884 H   0  0  0  0  0  0  0  0  0  0  0  0
   59.9640   18.5068   52.1329 H   0  0  0  0  0  0  0  0  0  0  0  0
   59.6795   17.9876   54.9047 H   0  0  0  0  0  0  0  0  0  0  0  0
   60.0724   19.5565   54.1475 H   0  0  0  0  0  0  0  0  0  0  0  0
  2  1  1  6
  2  3  1  0
  3  4  2  0
  4  5  1  0
  5  6  2  0
  6  7  1  0
  7  8  2  0
  8  9  1  0
  9 10  2  0
 10 11  1  0
 11 12  2  0
  6 13  1  0
 13 14  2  0
  2 15  1  0
 15 16  1  0
 16 17  1  0
 17 18  1  0
 18 19  1  0
 19 20  1  0
 20 21  1  0
 19  2  1  0
 14  3  1  0
 21 16  1  0
 12  7  1  0
  1 22  1  0
  4 23  1  0
  5 24  1  0
  8 25  1  0
  9 26  1  0
 10 27  1  0
 11 28  1  0
 12 29  1  0
 13 30  1  0
 14 31  1  0
 15 32  1  0
 15 33  1  0
 16 34  1  6
 17 35  1  0
 17 36  1  0
 18 37  1  0
 18 38  1  0
 19 39  1  1
 20 40  1  0
 20 41  1  0
 21 42  1  0
 21 43  1  0
M  CHG  1  16   1
M  END
>  <meeko>  (8) 
{"is_sidechain": [false], "free_energy": -7.628, "intermolecular_energy": -8.753, "internal_energy": -0.759}

$$$$
