4pcs_ligand
     RDKit          3D

 32 33  0  0  0  0  0  0  0  0999 V2000
   27.5750    5.1840   55.7620 C   0  0  0  0  0  0  0  0  0  0  0  0
   29.0210    5.0660   56.2030 C   0  0  2  0  0  0  0  0  0  0  0  0
   29.5870    6.4400   56.4450 N   0  0  0  0  0  0  0  0  0  0  0  0
   31.0860    6.3120   56.3470 C   0  0  1  0  0  0  0  0  0  0  0  0
   31.6350    6.4550   57.6950 C   0  0  0  0  0  0  0  0  0  0  0  0
   32.0780    6.5740   58.8040 C   0  0  0  0  0  0  0  0  0  0  0  0
   32.6070    6.7120   60.1260 C   0  0  0  0  0  0  0  0  0  0  0  0
   32.8310    5.5770   60.9100 C   0  0  0  0  0  0  0  0  0  0  0  0
   33.3500    5.7110   62.1990 C   0  0  0  0  0  0  0  0  0  0  0  0
   33.6470    6.9760   62.7040 C   0  0  0  0  0  0  0  0  0  0  0  0
   33.4240    8.1100   61.9230 C   0  0  0  0  0  0  0  0  0  0  0  0
   32.9030    7.9790   60.6340 C   0  0  0  0  0  0  0  0  0  0  0  0
   31.3480    4.9040   55.7530 C   0  0  2  0  0  0  0  0  0  0  0  0
   32.3270    4.9020   54.7160 O   0  0  0  0  0  0  0  0  0  0  0  0
   29.9910    4.5290   55.1510 C   0  0  2  0  0  0  0  0  0  0  0  0
   29.8150    5.2460   53.9220 O   0  0  0  0  0  0  0  0  0  0  0  0
   26.9247    5.2371   56.6476 H   0  0  0  0  0  0  0  0  0  0  0  0
   27.4487    6.0954   55.1592 H   0  0  0  0  0  0  0  0  0  0  0  0
   27.3026    4.3051   55.1592 H   0  0  0  0  0  0  0  0  0  0  0  0
   28.9607    4.3900   57.0687 H   0  0  0  0  0  0  0  0  0  0  0  0
   29.2870    7.0420   55.6640 H   0  0  0  0  0  0  0  0  0  0  0  0
   29.2710    6.8720   57.3210 H   0  0  0  0  0  0  0  0  0  0  0  0
   31.5594    7.0753   55.7119 H   0  0  0  0  0  0  0  0  0  0  0  0
   32.5985    4.5784   60.5116 H   0  0  0  0  0  0  0  0  0  0  0  0
   33.5247    4.8177   62.8167 H   0  0  0  0  0  0  0  0  0  0  0  0
   34.0575    7.0800   63.7192 H   0  0  0  0  0  0  0  0  0  0  0  0
   33.6586    9.1077   62.3225 H   0  0  0  0  0  0  0  0  0  0  0  0
   32.7257    8.8735   60.0188 H   0  0  0  0  0  0  0  0  0  0  0  0
   31.7317    4.2153   56.5201 H   0  0  0  0  0  0  0  0  0  0  0  0
   31.9730    4.4150   53.9460 H   0  0  0  0  0  0  0  0  0  0  0  0
   29.8652    3.4584   54.9320 H   0  0  0  0  0  0  0  0  0  0  0  0
   29.8250    4.5680   53.2100 H   0  0  0  0  0  0  0  0  0  0  0  0
  1  2  1  0
  2  3  1  0
  3  4  1  0
  4  5  1  0
  5  6  3  0
  6  7  1  0
  7  8  2  0
  8  9  1  0
  9 10  2  0
 10 11  1  0
 11 12  2  0
  4 13  1  0
 13 14  1  0
 13 15  1  0
 15 16  1  0
 15  2  1  0
 12  7  1  0
  1 17  1  0
  1 18  1  0
  1 19  1  0
  2 20  1  1
  3 21  1  0
  3 22  1  0
  4 23  1  6
  8 24  1  0
  9 25  1  0
 10 26  1  0
 11 27  1  0
 12 28  1  0
 13 29  1  1
 14 30  1  0
 15 31  1  6
 16 32  1  0
M  CHG  1   3   1
M  END
>  <meeko>  (1) 
{"is_sidechain": [false], "free_energy": -6.969, "intermolecular_energy": -7.784, "internal_energy": -0.157}

$$$$
4pcs_ligand
     RDKit          3D

 32 33  0  0  0  0  0  0  0  0999 V2000
   33.0550    4.1550   58.5080 C   0  0  0  0  0  0  0  0  0  0  0  0
   32.7000    5.5670   58.0840 C   0  0  2  0  0  0  0  0  0  0  0  0
   32.0750    6.2980   59.2430 N   0  0  0  0  0  0  0  0  0  0  0  0
   31.2810    7.4370   58.6570 C   0  0  1  0  0  0  0  0  0  0  0  0
   31.9840    8.6790   58.9720 C   0  0  0  0  0  0  0  0  0  0  0  0
   32.5670    9.6950   59.2360 C   0  0  0  0  0  0  0  0  0  0  0  0
   33.2660   10.9050   59.5470 C   0  0  0  0  0  0  0  0  0  0  0  0
   34.6250   11.0230   59.2450 C   0  0  0  0  0  0  0  0  0  0  0  0
   35.3060   12.2040   59.5460 C   0  0  0  0  0  0  0  0  0  0  0  0
   34.6300   13.2660   60.1460 C   0  0  0  0  0  0  0  0  0  0  0  0
   33.2740   13.1490   60.4490 C   0  0  0  0  0  0  0  0  0  0  0  0
   32.5900   11.9680   60.1500 C   0  0  0  0  0  0  0  0  0  0  0  0
   31.2240    7.1660   57.1310 C   0  0  2  0  0  0  0  0  0  0  0  0
   29.9240    7.3500   56.5740 O   0  0  0  0  0  0  0  0  0  0  0  0
   31.5960    5.6840   57.0330 C   0  0  2  0  0  0  0  0  0  0  0  0
   30.4670    4.8950   57.4300 O   0  0  0  0  0  0  0  0  0  0  0  0
   33.0701    4.0948   59.6062 H   0  0  0  0  0  0  0  0  0  0  0  0
   32.3052    3.4540   58.1127 H   0  0  0  0  0  0  0  0  0  0  0  0
   34.0472    3.8920   58.1127 H   0  0  0  0  0  0  0  0  0  0  0  0
   33.6547    5.9574   57.7016 H   0  0  0  0  0  0  0  0  0  0  0  0
   31.3970    5.6580   59.6860 H   0  0  0  0  0  0  0  0  0  0  0  0
   32.7480    6.5950   59.9600 H   0  0  0  0  0  0  0  0  0  0  0  0
   30.2595    7.5219   59.0562 H   0  0  0  0  0  0  0  0  0  0  0  0
   35.1580   10.1860   58.7704 H   0  0  0  0  0  0  0  0  0  0  0  0
   36.3763   12.2969   59.3098 H   0  0  0  0  0  0  0  0  0  0  0  0
   35.1671   14.1969   60.3805 H   0  0  0  0  0  0  0  0  0  0  0  0
   32.7425   13.9870   60.9237 H   0  0  0  0  0  0  0  0  0  0  0  0
   31.5203   11.8755   60.3892 H   0  0  0  0  0  0  0  0  0  0  0  0
   31.8805    7.8562   56.5809 H   0  0  0  0  0  0  0  0  0  0  0  0
   29.7810    8.3030   56.4090 H   0  0  0  0  0  0  0  0  0  0  0  0
   31.8972    5.3511   56.0288 H   0  0  0  0  0  0  0  0  0  0  0  0
   30.8120    4.2320   58.0680 H   0  0  0  0  0  0  0  0  0  0  0  0
  1  2  1  0
  2  3  1  0
  3  4  1  0
  4  5  1  0
  5  6  3  0
  6  7  1  0
  7  8  2  0
  8  9  1  0
  9 10  2  0
 10 11  1  0
 11 12  2  0
  4 13  1  0
 13 14  1  0
 13 15  1  0
 15 16  1  0
 15  2  1  0
 12  7  1  0
  1 17  1  0
  1 18  1  0
  1 19  1  0
  2 20  1  6
  3 21  1  0
  3 22  1  0
  4 23  1  1
  8 24  1  0
  9 25  1  0
 10 26  1  0
 11 27  1  0
 12 28  1  0
 13 29  1  6
 14 30  1  0
 15 31  1  6
 16 32  1  0
M  CHG  1   3   1
M  END
>  <meeko>  (2) 
{"is_sidechain": [false], "free_energy": -6.617, "intermolecular_energy": -7.391, "internal_energy": -0.156}

$$$$
4pcs_ligand
     RDKit          3D

 32 33  0  0  0  0  0  0  0  0999 V2000
   29.4610    4.7290   55.4420 C   0  0  0  0  0  0  0  0  0  0  0  0
   30.1340    5.4090   56.6190 C   0  0  2  0  0  0  0  0  0  0  0  0
   30.3530    6.8650   56.3020 N   0  0  0  0  0  0  0  0  0  0  0  0
   31.4530    7.3450   57.2130 C   0  0  1  0  0  0  0  0  0  0  0  0
   30.8520    8.2250   58.2130 C   0  0  0  0  0  0  0  0  0  0  0  0
   30.3510    8.9480   59.0300 C   0  0  0  0  0  0  0  0  0  0  0  0
   29.7530    9.8060   60.0070 C   0  0  0  0  0  0  0  0  0  0  0  0
   28.9480    9.2650   61.0120 C   0  0  0  0  0  0  0  0  0  0  0  0
   28.3660   10.1010   61.9670 C   0  0  0  0  0  0  0  0  0  0  0  0
   28.5900   11.4770   61.9190 C   0  0  0  0  0  0  0  0  0  0  0  0
   29.3930   12.0190   60.9160 C   0  0  0  0  0  0  0  0  0  0  0  0
   29.9750   11.1850   59.9580 C   0  0  0  0  0  0  0  0  0  0  0  0
   32.0600    6.0650   57.8460 C   0  0  2  0  0  0  0  0  0  0  0  0
   33.4860    6.0590   57.8490 O   0  0  0  0  0  0  0  0  0  0  0  0
   31.5630    4.9550   56.9170 C   0  0  2  0  0  0  0  0  0  0  0  0
   32.3380    4.9800   55.7100 O   0  0  0  0  0  0  0  0  0  0  0  0
   28.7322    3.9926   55.8116 H   0  0  0  0  0  0  0  0  0  0  0  0
   28.9430    5.4824   54.8304 H   0  0  0  0  0  0  0  0  0  0  0  0
   30.2197    4.2188   54.8304 H   0  0  0  0  0  0  0  0  0  0  0  0
   29.4605    5.1747   57.4566 H   0  0  0  0  0  0  0  0  0  0  0  0
   30.7170    6.9220   55.3380 H   0  0  0  0  0  0  0  0  0  0  0  0
   29.5010    7.4350   56.3550 H   0  0  0  0  0  0  0  0  0  0  0  0
   32.2421    7.9144   56.7000 H   0  0  0  0  0  0  0  0  0  0  0  0
   28.7724    8.1798   61.0512 H   0  0  0  0  0  0  0  0  0  0  0  0
   27.7308    9.6745   62.7573 H   0  0  0  0  0  0  0  0  0  0  0  0
   28.1329   12.1349   62.6728 H   0  0  0  0  0  0  0  0  0  0  0  0
   29.5684   13.1043   60.8790 H   0  0  0  0  0  0  0  0  0  0  0  0
   30.6072   11.6132   59.1662 H   0  0  0  0  0  0  0  0  0  0  0  0
   31.7642    5.9656   58.9008 H   0  0  0  0  0  0  0  0  0  0  0  0
   33.8080    6.9780   57.9340 H   0  0  0  0  0  0  0  0  0  0  0  0
   31.6311    3.9402   57.3360 H   0  0  0  0  0  0  0  0  0  0  0  0
   31.8390    4.4390   55.0580 H   0  0  0  0  0  0  0  0  0  0  0  0
  1  2  1  0
  2  3  1  0
  3  4  1  0
  4  5  1  0
  5  6  3  0
  6  7  1  0
  7  8  2  0
  8  9  1  0
  9 10  2  0
 10 11  1  0
 11 12  2  0
  4 13  1  0
 13 14  1  0
 13 15  1  0
 15 16  1  0
 15  2  1  0
 12  7  1  0
  1 17  1  0
  1 18  1  0
  1 19  1  0
  2 20  1  1
  3 21  1  0
  3 22  1  0
  4 23  1  6
  8 24  1  0
  9 25  1  0
 10 26  1  0
 11 27  1  0
 12 28  1  0
 13 29  1  1
 14 30  1  0
 15 31  1  1
 16 32  1  0
M  CHG  1   3   1
M  END
>  <meeko>  (3) 
{"is_sidechain": [false], "free_energy": -6.298, "intermolecular_energy": -7.034, "internal_energy": -0.157}

$$$$
4pcs_ligand
     RDKit          3D

 32 33  0  0  0  0  0  0  0  0999 V2000
   35.6230    4.4170   59.2720 C   0  0  0  0  0  0  0  0  0  0  0  0
   34.4400    5.2910   58.9030 C   0  0  2  0  0  0  0  0  0  0  0  0
   33.7020    5.6910   60.1520 N   0  0  0  0  0  0  0  0  0  0  0  0
   32.3060    6.0710   59.7250 C   0  0  1  0  0  0  0  0  0  0  0  0
   32.1810    7.5220   59.8530 C   0  0  0  0  0  0  0  0  0  0  0  0
   32.0850    8.7140   59.9620 C   0  0  0  0  0  0  0  0  0  0  0  0
   31.9650   10.1340   60.0940 C   0  0  0  0  0  0  0  0  0  0  0  0
   30.7150   10.7100   60.3300 C   0  0  0  0  0  0  0  0  0  0  0  0
   30.5990   12.0950   60.4630 C   0  0  0  0  0  0  0  0  0  0  0  0
   31.7300   12.9030   60.3600 C   0  0  0  0  0  0  0  0  0  0  0  0
   32.9790   12.3290   60.1240 C   0  0  0  0  0  0  0  0  0  0  0  0
   33.0980   10.9440   59.9900 C   0  0  0  0  0  0  0  0  0  0  0  0
   32.1760    5.5980   58.2540 C   0  0  2  0  0  0  0  0  0  0  0  0
   30.9490    4.9210   57.9860 O   0  0  0  0  0  0  0  0  0  0  0  0
   33.3290    4.6020   58.1120 C   0  0  2  0  0  0  0  0  0  0  0  0
   32.9650    3.3750   58.7600 O   0  0  0  0  0  0  0  0  0  0  0  0
   35.7061    4.3556   60.3671 H   0  0  0  0  0  0  0  0  0  0  0  0
   35.4768    3.4083   58.8583 H   0  0  0  0  0  0  0  0  0  0  0  0
   36.5442    4.8531   58.8583 H   0  0  0  0  0  0  0  0  0  0  0  0
   34.9030    6.0971   58.3148 H   0  0  0  0  0  0  0  0  0  0  0  0
   33.6150    4.8520   60.7440 H   0  0  0  0  0  0  0  0  0  0  0  0
   34.1740    6.4200   60.7000 H   0  0  0  0  0  0  0  0  0  0  0  0
   31.5114    5.6133   60.3325 H   0  0  0  0  0  0  0  0  0  0  0  0
   29.8220   10.0728   60.4111 H   0  0  0  0  0  0  0  0  0  0  0  0
   29.6144   12.5488   60.6492 H   0  0  0  0  0  0  0  0  0  0  0  0
   31.6375   13.9941   60.4649 H   0  0  0  0  0  0  0  0  0  0  0  0
   33.8710   12.9676   60.0434 H   0  0  0  0  0  0  0  0  0  0  0  0
   34.0830   10.4916   59.8028 H   0  0  0  0  0  0  0  0  0  0  0  0
   32.1996    6.4508   57.5596 H   0  0  0  0  0  0  0  0  0  0  0  0
   30.2060    5.5310   58.1610 H   0  0  0  0  0  0  0  0  0  0  0  0
   33.6027    4.3612   57.0742 H   0  0  0  0  0  0  0  0  0  0  0  0
   32.5690    2.8080   58.0610 H   0  0  0  0  0  0  0  0  0  0  0  0
  1  2  1  0
  2  3  1  0
  3  4  1  0
  4  5  1  0
  5  6  3  0
  6  7  1  0
  7  8  2  0
  8  9  1  0
  9 10  2  0
 10 11  1  0
 11 12  2  0
  4 13  1  0
 13 14  1  0
 13 15  1  0
 15 16  1  0
 15  2  1  0
 12  7  1  0
  1 17  1  0
  1 18  1  0
  1 19  1  0
  2 20  1  6
  3 21  1  0
  3 22  1  0
  4 23  1  1
  8 24  1  0
  9 25  1  0
 10 26  1  0
 11 27  1  0
 12 28  1  0
 13 29  1  6
 14 30  1  0
 15 31  1  6
 16 32  1  0
M  CHG  1   3   1
M  END
>  <meeko>  (4) 
{"is_sidechain": [false], "free_energy": -6.222, "intermolecular_energy": -6.954, "internal_energy": -0.152}

$$$$
4pcs_ligand
     RDKit          3D

 32 33  0  0  0  0  0  0  0  0999 V2000
   31.1160    5.1100   56.1070 C   0  0  0  0  0  0  0  0  0  0  0  0
   31.5510    5.7740   57.3990 C   0  0  2  0  0  0  0  0  0  0  0  0
   32.6130    6.8000   57.1040 N   0  0  0  0  0  0  0  0  0  0  0  0
   33.3650    7.0250   58.3910 C   0  0  1  0  0  0  0  0  0  0  0  0
   33.0060    8.3520   58.8910 C   0  0  0  0  0  0  0  0  0  0  0  0
   32.7080    9.4430   59.2940 C   0  0  0  0  0  0  0  0  0  0  0  0
   32.3570   10.7450   59.7720 C   0  0  0  0  0  0  0  0  0  0  0  0
   33.3310   11.7430   59.8550 C   0  0  0  0  0  0  0  0  0  0  0  0
   32.9880   13.0150   60.3190 C   0  0  0  0  0  0  0  0  0  0  0  0
   31.6740   13.2890   60.6970 C   0  0  0  0  0  0  0  0  0  0  0  0
   30.7020   12.2930   60.6150 C   0  0  0  0  0  0  0  0  0  0  0  0
   31.0420   11.0200   60.1530 C   0  0  0  0  0  0  0  0  0  0  0  0
   32.9050    5.8940   59.3470 C   0  0  2  0  0  0  0  0  0  0  0  0
   33.9830    5.2730   60.0450 O   0  0  0  0  0  0  0  0  0  0  0  0
   32.2820    4.8720   58.3930 C   0  0  2  0  0  0  0  0  0  0  0  0
   33.3330    4.1650   57.7200 O   0  0  0  0  0  0  0  0  0  0  0  0
   30.5266    4.2103   56.3375 H   0  0  0  0  0  0  0  0  0  0  0  0
   30.5016    5.8112   55.5231 H   0  0  0  0  0  0  0  0  0  0  0  0
   32.0042    4.8268   55.5231 H   0  0  0  0  0  0  0  0  0  0  0  0
   30.6029    6.1406   57.8194 H   0  0  0  0  0  0  0  0  0  0  0  0
   33.2780    6.3770   56.4390 H   0  0  0  0  0  0  0  0  0  0  0  0
   32.2510    7.6650   56.6860 H   0  0  0  0  0  0  0  0  0  0  0  0
   34.4591    6.9950   58.2811 H   0  0  0  0  0  0  0  0  0  0  0  0
   34.3671   11.5273   59.5552 H   0  0  0  0  0  0  0  0  0  0  0  0
   33.7547   13.8009   60.3863 H   0  0  0  0  0  0  0  0  0  0  0  0
   31.4042   14.2917   61.0601 H   0  0  0  0  0  0  0  0  0  0  0  0
   29.6661   12.5102   60.9146 H   0  0  0  0  0  0  0  0  0  0  0  0
   30.2747   10.2344   60.0892 H   0  0  0  0  0  0  0  0  0  0  0  0
   32.2341    6.2825   60.1273 H   0  0  0  0  0  0  0  0  0  0  0  0
   34.1210    5.7370   60.8940 H   0  0  0  0  0  0  0  0  0  0  0  0
   31.6361    4.1250   58.8776 H   0  0  0  0  0  0  0  0  0  0  0  0
   33.1260    4.2260   56.7610 H   0  0  0  0  0  0  0  0  0  0  0  0
  1  2  1  0
  2  3  1  0
  3  4  1  0
  4  5  1  0
  5  6  3  0
  6  7  1  0
  7  8  2  0
  8  9  1  0
  9 10  2  0
 10 11  1  0
 11 12  2  0
  4 13  1  0
 13 14  1  0
 13 15  1  0
 15 16  1  0
 15  2  1  0
 12  7  1  0
  1 17  1  0
  1 18  1  0
  1 19  1  0
  2 20  1  1
  3 21  1  0
  3 22  1  0
  4 23  1  6
  8 24  1  0
  9 25  1  0
 10 26  1  0
 11 27  1  0
 12 28  1  0
 13 29  1  1
 14 30  1  0
 15 31  1  1
 16 32  1  0
M  CHG  1   3   1
M  END
>  <meeko>  (5) 
{"is_sidechain": [false], "free_energy": -6.137, "intermolecular_energy": -6.855, "internal_energy": -0.156}

$$$$
4pcs_ligand
     RDKit          3D

 32 33  0  0  0  0  0  0  0  0999 V2000
   26.6680   11.1800   63.5640 C   0  0  0  0  0  0  0  0  0  0  0  0
   27.3960   11.4250   62.2570 C   0  0  2  0  0  0  0  0  0  0  0  0
   28.4170   12.5160   62.4470 N   0  0  0  0  0  0  0  0  0  0  0  0
   28.7090   13.0760   61.0780 C   0  0  1  0  0  0  0  0  0  0  0  0
   30.0540   12.6470   60.6990 C   0  0  0  0  0  0  0  0  0  0  0  0
   31.1600   12.2920   60.3950 C   0  0  0  0  0  0  0  0  0  0  0  0
   32.4770   11.8650   60.0310 C   0  0  0  0  0  0  0  0  0  0  0  0
   32.6920   10.5510   59.6070 C   0  0  0  0  0  0  0  0  0  0  0  0
   33.9750   10.1350   59.2490 C   0  0  0  0  0  0  0  0  0  0  0  0
   35.0420   11.0300   59.3120 C   0  0  0  0  0  0  0  0  0  0  0  0
   34.8290   12.3420   59.7360 C   0  0  0  0  0  0  0  0  0  0  0  0
   33.5470   12.7610   60.0960 C   0  0  0  0  0  0  0  0  0  0  0  0
   27.6200   12.4880   60.1440 C   0  0  2  0  0  0  0  0  0  0  0  0
   27.0430   13.4560   59.2710 O   0  0  0  0  0  0  0  0  0  0  0  0
   26.5490   12.0090   61.1260 C   0  0  2  0  0  0  0  0  0  0  0  0
   25.8200   13.1470   61.6080 O   0  0  0  0  0  0  0  0  0  0  0  0
   27.3393   11.4059   64.4056 H   0  0  0  0  0  0  0  0  0  0  0  0
   25.7817   11.8294   63.6174 H   0  0  0  0  0  0  0  0  0  0  0  0
   26.3547   10.1269   63.6174 H   0  0  0  0  0  0  0  0  0  0  0  0
   27.7730   10.4256   61.9941 H   0  0  0  0  0  0  0  0  0  0  0  0
   27.9690   13.2710   62.9890 H   0  0  0  0  0  0  0  0  0  0  0  0
   29.2580   12.2160   62.9530 H   0  0  0  0  0  0  0  0  0  0  0  0
   28.6836   14.1746   61.0292 H   0  0  0  0  0  0  0  0  0  0  0  0
   31.8502    9.8448   59.5554 H   0  0  0  0  0  0  0  0  0  0  0  0
   34.1446    9.1001   58.9169 H   0  0  0  0  0  0  0  0  0  0  0  0
   36.0525   10.7016   59.0272 H   0  0  0  0  0  0  0  0  0  0  0  0
   35.6720   13.0469   59.7867 H   0  0  0  0  0  0  0  0  0  0  0  0
   33.3794   13.7954   60.4305 H   0  0  0  0  0  0  0  0  0  0  0  0
   28.0389   11.7122   59.4863 H   0  0  0  0  0  0  0  0  0  0  0  0
   27.0760   14.3330   59.7020 H   0  0  0  0  0  0  0  0  0  0  0  0
   25.8206   11.3018   60.7024 H   0  0  0  0  0  0  0  0  0  0  0  0
   26.2350   13.3880   62.4660 H   0  0  0  0  0  0  0  0  0  0  0  0
  1  2  1  0
  2  3  1  0
  3  4  1  0
  4  5  1  0
  5  6  3  0
  6  7  1  0
  7  8  2  0
  8  9  1  0
  9 10  2  0
 10 11  1  0
 11 12  2  0
  4 13  1  0
 13 14  1  0
 13 15  1  0
 15 16  1  0
 15  2  1  0
 12  7  1  0
  1 17  1  0
  1 18  1  0
  1 19  1  0
  2 20  1  6
  3 21  1  0
  3 22  1  0
  4 23  1  1
  8 24  1  0
  9 25  1  0
 10 26  1  0
 11 27  1  0
 12 28  1  0
 13 29  1  6
 14 30  1  0
 15 31  1  6
 16 32  1  0
M  CHG  1   3   1
M  END
>  <meeko>  (6) 
{"is_sidechain": [false], "free_energy": -5.887, "intermolecular_energy": -6.575, "internal_energy": -0.157}

$$$$
4pcs_ligand
     RDKit          3D

 32 33  0  0  0  0  0  0  0  0999 V2000
   30.4300    5.8340   61.7920 C   0  0  0  0  0  0  0  0  0  0  0  0
   31.6300    6.2810   60.9800 C   0  0  2  0  0  0  0  0  0  0  0  0
   31.2010    7.3180   59.9760 N   0  0  0  0  0  0  0  0  0  0  0  0
   32.2460    7.3250   58.8900 C   0  0  1  0  0  0  0  0  0  0  0  0
   33.0090    8.5660   59.0150 C   0  0  0  0  0  0  0  0  0  0  0  0
   33.6310    9.5870   59.1220 C   0  0  0  0  0  0  0  0  0  0  0  0
   34.3680   10.8070   59.2550 C   0  0  0  0  0  0  0  0  0  0  0  0
   33.7910   11.9040   59.8980 C   0  0  0  0  0  0  0  0  0  0  0  0
   34.5120   13.0930   60.0300 C   0  0  0  0  0  0  0  0  0  0  0  0
   35.8060   13.1850   59.5210 C   0  0  0  0  0  0  0  0  0  0  0  0
   36.3830   12.0900   58.8780 C   0  0  0  0  0  0  0  0  0  0  0  0
   35.6650   10.9000   58.7430 C   0  0  0  0  0  0  0  0  0  0  0  0
   33.1210    6.0700   59.1430 C   0  0  2  0  0  0  0  0  0  0  0  0
   33.3950    5.3260   57.9570 O   0  0  0  0  0  0  0  0  0  0  0  0
   32.2430    5.2210   60.0650 C   0  0  2  0  0  0  0  0  0  0  0  0
   31.2100    4.6040   59.2840 O   0  0  0  0  0  0  0  0  0  0  0  0
   30.6603    5.9198   62.8642 H   0  0  0  0  0  0  0  0  0  0  0  0
   29.5661    6.4706   61.5504 H   0  0  0  0  0  0  0  0  0  0  0  0
   30.1931    4.7873   61.5504 H   0  0  0  0  0  0  0  0  0  0  0  0
   32.3453    6.5983   61.7531 H   0  0  0  0  0  0  0  0  0  0  0  0
   30.3240    6.9880   59.5450 H   0  0  0  0  0  0  0  0  0  0  0  0
   31.0270    8.2450   60.3830 H   0  0  0  0  0  0  0  0  0  0  0  0
   31.8331    7.2884   57.8711 H   0  0  0  0  0  0  0  0  0  0  0  0
   32.7697   11.8319   60.3002 H   0  0  0  0  0  0  0  0  0  0  0  0
   34.0579   13.9576   60.5362 H   0  0  0  0  0  0  0  0  0  0  0  0
   36.3728   14.1218   59.6264 H   0  0  0  0  0  0  0  0  0  0  0  0
   37.4046   12.1639   58.4769 H   0  0  0  0  0  0  0  0  0  0  0  0
   36.1196   10.0371   58.2344 H   0  0  0  0  0  0  0  0  0  0  0  0
   34.1043    6.3476   59.5505 H   0  0  0  0  0  0  0  0  0  0  0  0
   32.6370    4.7390   57.7680 H   0  0  0  0  0  0  0  0  0  0  0  0
   32.7774    4.4223   60.6003 H   0  0  0  0  0  0  0  0  0  0  0  0
   30.4450    5.2210   59.3140 H   0  0  0  0  0  0  0  0  0  0  0  0
  1  2  1  0
  2  3  1  0
  3  4  1  0
  4  5  1  0
  5  6  3  0
  6  7  1  0
  7  8  2  0
  8  9  1  0
  9 10  2  0
 10 11  1  0
 11 12  2  0
  4 13  1  0
 13 14  1  0
 13 15  1  0
 15 16  1  0
 15  2  1  0
 12  7  1  0
  1 17  1  0
  1 18  1  0
  1 19  1  0
  2 20  1  1
  3 21  1  0
  3 22  1  0
  4 23  1  6
  8 24  1  0
  9 25  1  0
 10 26  1  0
 11 27  1  0
 12 28  1  0
 13 29  1  1
 14 30  1  0
 15 31  1  1
 16 32  1  0
M  CHG  1   3   1
M  END
>  <meeko>  (7) 
{"is_sidechain": [false], "free_energy": -5.861, "intermolecular_energy": -6.553, "internal_energy": -0.15}

$$$$
4pcs_ligand
     RDKit          3D

 32 33  0  0  0  0  0  0  0  0999 V2000
   31.3780    5.0990   57.2380 C   0  0  0  0  0  0  0  0  0  0  0  0
   32.2130    5.6670   58.3690 C   0  0  2  0  0  0  0  0  0  0  0  0
   33.6150    5.1240   58.2820 N   0  0  0  0  0  0  0  0  0  0  0  0
   34.2190    5.2670   59.6560 C   0  0  1  0  0  0  0  0  0  0  0  0
   35.2210    6.3300   59.5940 C   0  0  0  0  0  0  0  0  0  0  0  0
   36.0430    7.2030   59.5340 C   0  0  0  0  0  0  0  0  0  0  0  0
   37.0200    8.2470   59.4650 C   0  0  0  0  0  0  0  0  0  0  0  0
   36.6110    9.5810   59.3950 C   0  0  0  0  0  0  0  0  0  0  0  0
   37.5640   10.5990   59.3300 C   0  0  0  0  0  0  0  0  0  0  0  0
   38.9230   10.2860   59.3370 C   0  0  0  0  0  0  0  0  0  0  0  0
   39.3320    8.9550   59.4070 C   0  0  0  0  0  0  0  0  0  0  0  0
   38.3810    7.9330   59.4710 C   0  0  0  0  0  0  0  0  0  0  0  0
   33.0390    5.6270   60.5960 C   0  0  2  0  0  0  0  0  0  0  0  0
   33.0420    4.8850   61.8140 O   0  0  0  0  0  0  0  0  0  0  0  0
   31.8120    5.2230   59.7750 C   0  0  2  0  0  0  0  0  0  0  0  0
   31.6810    3.7950   59.8100 O   0  0  0  0  0  0  0  0  0  0  0  0
   30.5364    4.5265   57.6552 H   0  0  0  0  0  0  0  0  0  0  0  0
   30.9907    5.9218   56.6191 H   0  0  0  0  0  0  0  0  0  0  0  0
   32.0010    4.4366   56.6191 H   0  0  0  0  0  0  0  0  0  0  0  0
   32.0883    6.7529   58.2457 H   0  0  0  0  0  0  0  0  0  0  0  0
   33.5460    4.1130   58.0900 H   0  0  0  0  0  0  0  0  0  0  0  0
   34.1820    5.5520   57.5400 H   0  0  0  0  0  0  0  0  0  0  0  0
   34.7196    4.3583   60.0215 H   0  0  0  0  0  0  0  0  0  0  0  0
   35.5393    9.8289   59.3911 H   0  0  0  0  0  0  0  0  0  0  0  0
   37.2426   11.6495   59.2732 H   0  0  0  0  0  0  0  0  0  0  0  0
   39.6725   11.0896   59.2873 H   0  0  0  0  0  0  0  0  0  0  0  0
   40.4041    8.7091   59.4119 H   0  0  0  0  0  0  0  0  0  0  0  0
   38.7038    6.8829   59.5260 H   0  0  0  0  0  0  0  0  0  0  0  0
   33.0793    6.6845   60.8961 H   0  0  0  0  0  0  0  0  0  0  0  0
   33.5100    5.4010   62.4990 H   0  0  0  0  0  0  0  0  0  0  0  0
   30.8625    5.6535   60.1258 H   0  0  0  0  0  0  0  0  0  0  0  0
   32.0550    3.4690   58.9610 H   0  0  0  0  0  0  0  0  0  0  0  0
  1  2  1  0
  2  3  1  0
  3  4  1  0
  4  5  1  0
  5  6  3  0
  6  7  1  0
  7  8  2  0
  8  9  1  0
  9 10  2  0
 10 11  1  0
 11 12  2  0
  4 13  1  0
 13 14  1  0
 13 15  1  0
 15 16  1  0
 15  2  1  0
 12  7  1  0
  1 17  1  0
  1 18  1  0
  1 19  1  0
  2 20  1  1
  3 21  1  0
  3 22  1  0
  4 23  1  1
  8 24  1  0
  9 25  1  0
 10 26  1  0
 11 27  1  0
 12 28  1  0
 13 29  1  1
 14 30  1  0
 15 31  1  1
 16 32  1  0
M  CHG  1   3   1
M  END
>  <meeko>  (8) 
{"is_sidechain": [false], "free_energy": -5.794, "intermolecular_energy": -6.471, "internal_energy": -0.157}

$$$$
4pcs_ligand
     RDKit          3D

 32 33  0  0  0  0  0  0  0  0999 V2000
   31.1920    4.4760   55.0760 C   0  0  0  0  0  0  0  0  0  0  0  0
   31.6840    5.6010   55.9670 C   0  0  2  0  0  0  0  0  0  0  0  0
   31.7970    5.1070   57.3840 N   0  0  0  0  0  0  0  0  0  0  0  0
   31.7560    6.3260   58.2700 C   0  0  1  0  0  0  0  0  0  0  0  0
   33.0970    6.5240   58.8200 C   0  0  0  0  0  0  0  0  0  0  0  0
   34.2000    6.6780   59.2680 C   0  0  0  0  0  0  0  0  0  0  0  0
   35.5140    6.8570   59.8050 C   0  0  0  0  0  0  0  0  0  0  0  0
   35.9270    6.1020   60.9050 C   0  0  0  0  0  0  0  0  0  0  0  0
   37.2110    6.2750   61.4270 C   0  0  0  0  0  0  0  0  0  0  0  0
   38.0800    7.1990   60.8500 C   0  0  0  0  0  0  0  0  0  0  0  0
   37.6690    7.9540   59.7520 C   0  0  0  0  0  0  0  0  0  0  0  0
   36.3850    7.7850   59.2280 C   0  0  0  0  0  0  0  0  0  0  0  0
   31.3210    7.4970   57.3510 C   0  0  2  0  0  0  0  0  0  0  0  0
   30.3180    8.3270   57.9320 O   0  0  0  0  0  0  0  0  0  0  0  0
   30.7230    6.7760   56.1400 C   0  0  2  0  0  0  0  0  0  0  0  0
   29.4210    6.2870   56.4880 O   0  0  0  0  0  0  0  0  0  0  0  0
   30.8290    3.6460   55.7000 H   0  0  0  0  0  0  0  0  0  0  0  0
   30.3722    4.8430   54.4410 H   0  0  0  0  0  0  0  0  0  0  0  0
   32.0180    4.1232   54.4410 H   0  0  0  0  0  0  0  0  0  0  0  0
   32.6135    5.9193   55.4722 H   0  0  0  0  0  0  0  0  0  0  0  0
   30.9490    4.5590   57.5910 H   0  0  0  0  0  0  0  0  0  0  0  0
   32.6130    4.5070   57.5530 H   0  0  0  0  0  0  0  0  0  0  0  0
   31.0582    6.2399   59.1160 H   0  0  0  0  0  0  0  0  0  0  0  0
   35.2417    5.3717   61.3599 H   0  0  0  0  0  0  0  0  0  0  0  0
   37.5364    5.6815   62.2941 H   0  0  0  0  0  0  0  0  0  0  0  0
   39.0914    7.3330   61.2612 H   0  0  0  0  0  0  0  0  0  0  0  0
   38.3563    8.6832   59.2981 H   0  0  0  0  0  0  0  0  0  0  0  0
   36.0602    8.3814   58.3627 H   0  0  0  0  0  0  0  0  0  0  0  0
   32.1666    8.1661   57.1336 H   0  0  0  0  0  0  0  0  0  0  0  0
   30.7420    9.1290   58.2980 H   0  0  0  0  0  0  0  0  0  0  0  0
   30.6141    7.4004   55.2409 H   0  0  0  0  0  0  0  0  0  0  0  0
   28.8430    7.0800   56.5530 H   0  0  0  0  0  0  0  0  0  0  0  0
  1  2  1  0
  2  3  1  0
  3  4  1  0
  4  5  1  0
  5  6  3  0
  6  7  1  0
  7  8  2  0
  8  9  1  0
  9 10  2  0
 10 11  1  0
 11 12  2  0
  4 13  1  0
 13 14  1  0
 13 15  1  0
 15 16  1  0
 15  2  1  0
 12  7  1  0
  1 17  1  0
  1 18  1  0
  1 19  1  0
  2 20  1  6
  3 21  1  0
  3 22  1  0
  4 23  1  1
  8 24  1  0
  9 25  1  0
 10 26  1  0
 11 27  1  0
 12 28  1  0
 13 29  1  6
 14 30  1  0
 15 31  1  6
 16 32  1  0
M  CHG  1   3   1
M  END
>  <meeko>  (9) 
{"is_sidechain": [false], "free_energy": -5.577, "intermolecular_energy": -6.229, "internal_energy": -0.157}

$$$$
