3n7a_ligand
     RDKit          3D

 21 21  0  0  0  0  0  0  0  0999 V2000
   45.4970    7.9750   27.3190 O   0  0  0  0  0  0  0  0  0  0  0  0
   45.5170    6.7100   27.3770 C   0  0  0  0  0  0  0  0  0  0  0  0
   46.3140    5.9300   27.9880 O   0  0  0  0  0  0  0  0  0  0  0  0
   44.3680    5.9510   26.6010 C   0  0  2  0  0  0  0  0  0  0  0  0
   43.6460    5.1290   27.5520 O   0  0  0  0  0  0  0  0  0  0  0  0
   44.9920    5.0130   25.6060 C   0  0  0  0  0  0  0  0  0  0  0  0
   44.9990    5.2390   24.2840 C   0  0  0  0  0  0  0  0  0  0  0  0
   44.4350    6.4720   23.6490 C   0  0  1  0  0  0  0  0  0  0  0  0
   43.4390    6.0240   22.7220 O   0  0  0  0  0  0  0  0  0  0  0  0
   43.8300    7.5140   24.6270 C   0  0  2  0  0  0  0  0  0  0  0  0
   44.7320    8.6110   24.8140 O   0  0  0  0  0  0  0  0  0  0  0  0
   43.3660    6.9180   25.9610 C   0  0  0  0  0  0  0  0  0  0  0  0
   42.9110    4.7740   26.9920 H   0  0  0  0  0  0  0  0  0  0  0  0
   45.4671    4.0945   25.9811 H   0  0  0  0  0  0  0  0  0  0  0  0
   45.4442    4.4754   23.6293 H   0  0  0  0  0  0  0  0  0  0  0  0
   45.2639    7.0159   23.1725 H   0  0  0  0  0  0  0  0  0  0  0  0
   42.6260    6.4980   22.9610 H   0  0  0  0  0  0  0  0  0  0  0  0
   42.9120    7.8910   24.1525 H   0  0  0  0  0  0  0  0  0  0  0  0
   44.4130    9.1260   25.6050 H   0  0  0  0  0  0  0  0  0  0  0  0
   43.1874    7.7447   26.6643 H   0  0  0  0  0  0  0  0  0  0  0  0
   42.4577    6.3354   25.7473 H   0  0  0  0  0  0  0  0  0  0  0  0
  1  2  2  0
  2  3  1  0
  2  4  1  0
  4  5  1  1
  4  6  1  0
  6  7  2  0
  7  8  1  0
  8  9  1  0
  8 10  1  0
 10 11  1  0
 10 12  1  0
 12  4  1  0
  5 13  1  0
  6 14  1  0
  7 15  1  0
  8 16  1  6
  9 17  1  0
 10 18  1  6
 11 19  1  0
 12 20  1  0
 12 21  1  0
M  CHG  1   3  -1
M  END
>  <meeko>  (1) 
{"is_sidechain": [false], "free_energy": -7.306, "intermolecular_energy": -8.373, "internal_energy": -0.124}

$$$$
3n7a_ligand
     RDKit          3D

 21 21  0  0  0  0  0  0  0  0999 V2000
   44.6010    8.3620   24.9010 O   0  0  0  0  0  0  0  0  0  0  0  0
   43.4650    7.8790   25.1820 C   0  0  0  0  0  0  0  0  0  0  0  0
   42.3690    7.9340   24.5400 O   0  0  0  0  0  0  0  0  0  0  0  0
   43.3640    7.0490   26.5240 C   0  0  2  0  0  0  0  0  0  0  0  0
   42.0930    7.3540   27.1510 O   0  0  0  0  0  0  0  0  0  0  0  0
   44.4350    7.5200   27.4680 C   0  0  0  0  0  0  0  0  0  0  0  0
   45.5400    6.8110   27.7420 C   0  0  0  0  0  0  0  0  0  0  0  0
   45.8620    5.4960   27.1060 C   0  0  1  0  0  0  0  0  0  0  0  0
   46.0040    4.5560   28.1780 O   0  0  0  0  0  0  0  0  0  0  0  0
   44.8270    4.9790   26.0710 C   0  0  2  0  0  0  0  0  0  0  0  0
   45.3010    5.1910   24.7370 O   0  0  0  0  0  0  0  0  0  0  0  0
   43.4140    5.5380   26.2740 C   0  0  0  0  0  0  0  0  0  0  0  0
   41.4700    7.2810   26.3860 H   0  0  0  0  0  0  0  0  0  0  0  0
   44.3058    8.4958   27.9590 H   0  0  0  0  0  0  0  0  0  0  0  0
   46.2498    7.2198   28.4762 H   0  0  0  0  0  0  0  0  0  0  0  0
   46.7791    5.6248   26.5125 H   0  0  0  0  0  0  0  0  0  0  0  0
   45.1450    4.1080   28.2490 H   0  0  0  0  0  0  0  0  0  0  0  0
   44.7295    3.8966   26.2409 H   0  0  0  0  0  0  0  0  0  0  0  0
   46.0270    4.5280   24.5710 H   0  0  0  0  0  0  0  0  0  0  0  0
   42.8236    5.3182   25.3722 H   0  0  0  0  0  0  0  0  0  0  0  0
   43.0109    5.0557   27.1767 H   0  0  0  0  0  0  0  0  0  0  0  0
  1  2  2  0
  2  3  1  0
  2  4  1  0
  4  5  1  1
  4  6  1  0
  6  7  2  0
  7  8  1  0
  8  9  1  0
  8 10  1  0
 10 11  1  0
 10 12  1  0
 12  4  1  0
  5 13  1  0
  6 14  1  0
  7 15  1  0
  8 16  1  6
  9 17  1  0
 10 18  1  1
 11 19  1  0
 12 20  1  0
 12 21  1  0
M  CHG  1   3  -1
M  END
>  <meeko>  (2) 
{"is_sidechain": [false], "free_energy": -6.191, "intermolecular_energy": -6.996, "internal_energy": -0.224}

$$$$
3n7a_ligand
     RDKit          3D

 21 21  0  0  0  0  0  0  0  0999 V2000
   42.1830    7.5220   26.5330 O   0  0  0  0  0  0  0  0  0  0  0  0
   42.7380    7.6320   25.4000 C   0  0  0  0  0  0  0  0  0  0  0  0
   42.2400    7.9230   24.2680 O   0  0  0  0  0  0  0  0  0  0  0  0
   44.3020    7.4020   25.3580 C   0  0  2  0  0  0  0  0  0  0  0  0
   44.9330    8.6510   24.9780 O   0  0  0  0  0  0  0  0  0  0  0  0
   44.6180    6.4120   24.2710 C   0  0  0  0  0  0  0  0  0  0  0  0
   44.9790    5.1430   24.5130 C   0  0  0  0  0  0  0  0  0  0  0  0
   45.0610    4.5500   25.8840 C   0  0  1  0  0  0  0  0  0  0  0  0
   46.4070    4.0820   26.0370 O   0  0  0  0  0  0  0  0  0  0  0  0
   44.6860    5.5010   27.0510 C   0  0  2  0  0  0  0  0  0  0  0  0
   43.3680    5.2110   27.5320 O   0  0  0  0  0  0  0  0  0  0  0  0
   44.8630    6.9880   26.7220 C   0  0  0  0  0  0  0  0  0  0  0  0
   45.6620    8.3360   24.3890 H   0  0  0  0  0  0  0  0  0  0  0  0
   44.5497    6.7452   23.2249 H   0  0  0  0  0  0  0  0  0  0  0  0
   45.2289    4.5020   23.6547 H   0  0  0  0  0  0  0  0  0  0  0  0
   44.3086    3.7504   25.9513 H   0  0  0  0  0  0  0  0  0  0  0  0
   46.8760    4.7850   26.5160 H   0  0  0  0  0  0  0  0  0  0  0  0
   45.4062    5.3033   27.8586 H   0  0  0  0  0  0  0  0  0  0  0  0
   42.7250    5.5060   26.8310 H   0  0  0  0  0  0  0  0  0  0  0  0
   44.3512    7.5760   27.4981 H   0  0  0  0  0  0  0  0  0  0  0  0
   45.9461    7.1768   26.6880 H   0  0  0  0  0  0  0  0  0  0  0  0
  1  2  2  0
  2  3  1  0
  2  4  1  0
  4  5  1  6
  4  6  1  0
  6  7  2  0
  7  8  1  0
  8  9  1  0
  8 10  1  0
 10 11  1  0
 10 12  1  0
 12  4  1  0
  5 13  1  0
  6 14  1  0
  7 15  1  0
  8 16  1  6
  9 17  1  0
 10 18  1  1
 11 19  1  0
 12 20  1  0
 12 21  1  0
M  CHG  1   3  -1
M  END
>  <meeko>  (3) 
{"is_sidechain": [false], "free_energy": -5.821, "intermolecular_energy": -6.604, "internal_energy": -0.192}

$$$$
3n7a_ligand
     RDKit          3D

 21 21  0  0  0  0  0  0  0  0999 V2000
   45.0850    4.4520   25.8260 O   0  0  0  0  0  0  0  0  0  0  0  0
   45.6320    4.9660   26.8460 C   0  0  0  0  0  0  0  0  0  0  0  0
   46.5530    4.5150   27.5970 O   0  0  0  0  0  0  0  0  0  0  0  0
   45.1320    6.4070   27.2620 C   0  0  2  0  0  0  0  0  0  0  0  0
   45.7810    6.7690   28.5080 O   0  0  0  0  0  0  0  0  0  0  0  0
   43.6570    6.3460   27.5470 C   0  0  0  0  0  0  0  0  0  0  0  0
   42.7260    6.8480   26.7220 C   0  0  0  0  0  0  0  0  0  0  0  0
   43.0390    7.4810   25.4030 C   0  0  1  0  0  0  0  0  0  0  0  0
   42.5060    8.8100   25.4600 O   0  0  0  0  0  0  0  0  0  0  0  0
   44.5420    7.5200   25.0170 C   0  0  2  0  0  0  0  0  0  0  0  0
   44.8400    6.5050   24.0520 O   0  0  0  0  0  0  0  0  0  0  0  0
   45.4930    7.4680   26.2190 C   0  0  0  0  0  0  0  0  0  0  0  0
   45.0940    6.5120   29.1720 H   0  0  0  0  0  0  0  0  0  0  0  0
   43.3246    5.8655   28.4790 H   0  0  0  0  0  0  0  0  0  0  0  0
   41.6724    6.7910   27.0330 H   0  0  0  0  0  0  0  0  0  0  0  0
   42.5858    6.8611   24.6154 H   0  0  0  0  0  0  0  0  0  0  0  0
   41.5560    8.7180   25.2760 H   0  0  0  0  0  0  0  0  0  0  0  0
   44.7213    8.5034   24.5579 H   0  0  0  0  0  0  0  0  0  0  0  0
   45.3580    6.9360   23.3180 H   0  0  0  0  0  0  0  0  0  0  0  0
   46.5064    7.2554   25.8477 H   0  0  0  0  0  0  0  0  0  0  0  0
   45.4183    8.4432   26.7225 H   0  0  0  0  0  0  0  0  0  0  0  0
  1  2  2  0
  2  3  1  0
  2  4  1  0
  4  5  1  1
  4  6  1  0
  6  7  2  0
  7  8  1  0
  8  9  1  0
  8 10  1  0
 10 11  1  0
 10 12  1  0
 12  4  1  0
  5 13  1  0
  6 14  1  0
  7 15  1  0
  8 16  1  6
  9 17  1  0
 10 18  1  6
 11 19  1  0
 12 20  1  0
 12 21  1  0
M  CHG  1   3  -1
M  END
>  <meeko>  (4) 
{"is_sidechain": [false], "free_energy": -4.702, "intermolecular_energy": -5.348, "internal_energy": -0.165}

$$$$
3n7a_ligand
     RDKit          3D

 21 21  0  0  0  0  0  0  0  0999 V2000
   44.5720    5.4130   24.6120 O   0  0  0  0  0  0  0  0  0  0  0  0
   45.0460    5.0010   25.7120 C   0  0  0  0  0  0  0  0  0  0  0  0
   45.8030    4.0100   25.9570 O   0  0  0  0  0  0  0  0  0  0  0  0
   44.6800    5.8450   26.9970 C   0  0  2  0  0  0  0  0  0  0  0  0
   45.1100    5.1000   28.1650 O   0  0  0  0  0  0  0  0  0  0  0  0
   43.1840    5.9650   27.0900 C   0  0  0  0  0  0  0  0  0  0  0  0
   42.5170    7.0960   26.8160 C   0  0  0  0  0  0  0  0  0  0  0  0
   43.1750    8.3530   26.3380 C   0  0  1  0  0  0  0  0  0  0  0  0
   42.8320    9.3690   27.2890 O   0  0  0  0  0  0  0  0  0  0  0  0
   44.7150    8.2800   26.1600 C   0  0  2  0  0  0  0  0  0  0  0  0
   45.0550    8.1510   24.7750 O   0  0  0  0  0  0  0  0  0  0  0  0
   45.3890    7.2030   27.0190 C   0  0  0  0  0  0  0  0  0  0  0  0
   45.0760    5.7950   28.8680 H   0  0  0  0  0  0  0  0  0  0  0  0
   42.6074    5.0804   27.3984 H   0  0  0  0  0  0  0  0  0  0  0  0
   41.4252    7.1002   26.9500 H   0  0  0  0  0  0  0  0  0  0  0  0
   42.8081    8.5610   25.3221 H   0  0  0  0  0  0  0  0  0  0  0  0
   41.8970    9.5740   27.1270 H   0  0  0  0  0  0  0  0  0  0  0  0
   45.1182    9.2327   26.5338 H   0  0  0  0  0  0  0  0  0  0  0  0
   44.3040    7.6720   24.3290 H   0  0  0  0  0  0  0  0  0  0  0  0
   46.4160    7.0616   26.6512 H   0  0  0  0  0  0  0  0  0  0  0  0
   45.3531    7.5607   28.0586 H   0  0  0  0  0  0  0  0  0  0  0  0
  1  2  2  0
  2  3  1  0
  2  4  1  0
  4  5  1  1
  4  6  1  0
  6  7  2  0
  7  8  1  0
  8  9  1  0
  8 10  1  0
 10 11  1  0
 10 12  1  0
 12  4  1  0
  5 13  1  0
  6 14  1  0
  7 15  1  0
  8 16  1  6
  9 17  1  0
 10 18  1  1
 11 19  1  0
 12 20  1  0
 12 21  1  0
M  CHG  1   3  -1
M  END
>  <meeko>  (5) 
{"is_sidechain": [false], "free_energy": -4.596, "intermolecular_energy": -5.189, "internal_energy": -0.203}

$$$$
