1gpk_ligand
     RDKit          3D

 37 39  0  0  0  0  0  0  0  0999 V2000
    6.1410   69.7720   65.7290 C   0  0  0  0  0  0  0  0  0  0  0  0
    5.7150   69.3010   64.3670 C   0  0  0  0  0  0  0  0  0  0  0  0
    4.7900   68.3580   64.0780 C   0  0  0  0  0  0  0  0  0  0  0  0
    4.0120   67.5640   65.1270 C   0  0  2  0  0  0  0  0  0  0  0  0
    4.1200   66.0740   64.8590 C   0  0  0  0  0  0  0  0  0  0  0  0
    4.4740   65.5390   63.6750 C   0  0  0  0  0  0  0  0  0  0  0  0
    4.5970   64.0580   63.4640 C   0  0  0  0  0  0  0  0  0  0  0  0
    4.7590   66.4220   62.4780 C   0  0  0  0  0  0  0  0  0  0  0  0
    4.3270   67.9100   62.6800 C   0  0  2  0  0  0  0  0  0  0  0  0
    5.0110   68.7220   61.6240 N   0  0  0  0  0  0  0  0  0  0  0  0
    2.7910   68.0540   62.5670 C   0  0  0  0  0  0  0  0  0  0  0  0
    2.1380   68.0760   61.2590 C   0  0  0  0  0  0  0  0  0  0  0  0
    0.8130   68.2490   61.1420 C   0  0  0  0  0  0  0  0  0  0  0  0
   -0.0250   68.4050   62.3540 C   0  0  0  0  0  0  0  0  0  0  0  0
   -1.2300   68.5880   62.2760 O   0  0  0  0  0  0  0  0  0  0  0  0
    0.6490   68.3190   63.5450 N   0  0  0  0  0  0  0  0  0  0  0  0
    2.0080   68.1440   63.6700 C   0  0  0  0  0  0  0  0  0  0  0  0
    2.5440   68.0370   65.0840 C   0  0  0  0  0  0  0  0  0  0  0  0
    5.6144   69.1898   66.4996 H   0  0  0  0  0  0  0  0  0  0  0  0
    7.2263   69.6330   65.8422 H   0  0  0  0  0  0  0  0  0  0  0  0
    5.8941   70.8379   65.8422 H   0  0  0  0  0  0  0  0  0  0  0  0
    6.2115   69.7769   63.5085 H   0  0  0  0  0  0  0  0  0  0  0  0
    4.4298   67.7392   66.1294 H   0  0  0  0  0  0  0  0  0  0  0  0
    3.8942   65.3856   65.6867 H   0  0  0  0  0  0  0  0  0  0  0  0
    4.6391   63.5509   64.4393 H   0  0  0  0  0  0  0  0  0  0  0  0
    3.7260   63.6945   62.8991 H   0  0  0  0  0  0  0  0  0  0  0  0
    5.5161   63.8432   62.8991 H   0  0  0  0  0  0  0  0  0  0  0  0
    5.8404   66.3981   62.2781 H   0  0  0  0  0  0  0  0  0  0  0  0
    4.1689   66.0264   61.6382 H   0  0  0  0  0  0  0  0  0  0  0  0
    5.1220   68.1720   60.7660 H   0  0  0  0  0  0  0  0  0  0  0  0
    5.9430   68.9970   61.9590 H   0  0  0  0  0  0  0  0  0  0  0  0
    4.4910   69.5700   61.3850 H   0  0  0  0  0  0  0  0  0  0  0  0
    2.7463   67.9479   60.3515 H   0  0  0  0  0  0  0  0  0  0  0  0
    0.3481   68.2751   60.1454 H   0  0  0  0  0  0  0  0  0  0  0  0
    0.0580   68.3970   64.3680 H   0  0  0  0  0  0  0  0  0  0  0  0
    2.4781   69.0257   65.5616 H   0  0  0  0  0  0  0  0  0  0  0  0
    1.9369   67.2891   65.6151 H   0  0  0  0  0  0  0  0  0  0  0  0
  1  2  1  0
  2  3  2  0
  3  4  1  0
  4  5  1  0
  5  6  2  0
  6  7  1  0
  6  8  1  0
  8  9  1  0
  9 10  1  6
  9 11  1  0
 11 12  1  0
 12 13  2  0
 13 14  1  0
 14 15  2  0
 14 16  1  0
 16 17  1  0
 17 18  1  0
  9  3  1  0
 17 11  2  0
 18  4  1  0
  1 19  1  0
  1 20  1  0
  1 21  1  0
  2 22  1  0
  4 23  1  1
  5 24  1  0
  7 25  1  0
  7 26  1  0
  7 27  1  0
  8 28  1  0
  8 29  1  0
 10 30  1  0
 10 31  1  0
 10 32  1  0
 12 33  1  0
 13 34  1  0
 16 35  1  0
 18 36  1  0
 18 37  1  0
M  CHG  1  10   1
M  END
>  <meeko>  (1) 
{"is_sidechain": [false], "free_energy": -10.405, "intermolecular_energy": -10.709, "internal_energy": 0.0}

$$$$
1gpk_ligand
     RDKit          3D

 37 39  0  0  0  0  0  0  0  0999 V2000
    4.7040   63.6350   63.6320 C   0  0  0  0  0  0  0  0  0  0  0  0
    3.6850   64.6180   64.1360 C   0  0  0  0  0  0  0  0  0  0  0  0
    3.6390   65.9470   63.8960 C   0  0  0  0  0  0  0  0  0  0  0  0
    4.6680   66.7080   63.0610 C   0  0  2  0  0  0  0  0  0  0  0  0
    5.2000   67.9050   63.8270 C   0  0  0  0  0  0  0  0  0  0  0  0
    4.5820   68.4660   64.8840 C   0  0  0  0  0  0  0  0  0  0  0  0
    5.1610   69.6310   65.6320 C   0  0  0  0  0  0  0  0  0  0  0  0
    3.2460   67.9430   65.3700 C   0  0  0  0  0  0  0  0  0  0  0  0
    2.5680   66.9420   64.3800 C   0  0  2  0  0  0  0  0  0  0  0  0
    1.4970   66.2200   65.1380 N   0  0  0  0  0  0  0  0  0  0  0  0
    1.9650   67.6930   63.1690 C   0  0  0  0  0  0  0  0  0  0  0  0
    0.6870   68.3920   63.2860 C   0  0  0  0  0  0  0  0  0  0  0  0
    0.1280   69.0070   62.2330 C   0  0  0  0  0  0  0  0  0  0  0  0
    0.8140   69.0010   60.9200 C   0  0  0  0  0  0  0  0  0  0  0  0
    0.3170   69.5320   59.9380 O   0  0  0  0  0  0  0  0  0  0  0  0
    2.0330   68.3740   60.9000 N   0  0  0  0  0  0  0  0  0  0  0  0
    2.6100   67.7400   61.9770 C   0  0  0  0  0  0  0  0  0  0  0  0
    3.9830   67.1420   61.7470 C   0  0  0  0  0  0  0  0  0  0  0  0
    5.2029   63.1537   64.4861 H   0  0  0  0  0  0  0  0  0  0  0  0
    4.2039   62.8695   63.0205 H   0  0  0  0  0  0  0  0  0  0  0  0
    5.4510   64.1623   63.0205 H   0  0  0  0  0  0  0  0  0  0  0  0
    2.8862   64.2093   64.7723 H   0  0  0  0  0  0  0  0  0  0  0  0
    5.5309   66.0641   62.8356 H   0  0  0  0  0  0  0  0  0  0  0  0
    6.1534   68.3435   63.4972 H   0  0  0  0  0  0  0  0  0  0  0  0
    5.0724   69.4527   66.7138 H   0  0  0  0  0  0  0  0  0  0  0  0
    6.2218   69.7474   65.3652 H   0  0  0  0  0  0  0  0  0  0  0  0
    4.6132   70.5468   65.3652 H   0  0  0  0  0  0  0  0  0  0  0  0
    3.4020   67.4301   66.3305 H   0  0  0  0  0  0  0  0  0  0  0  0
    2.5748   68.8096   65.4624 H   0  0  0  0  0  0  0  0  0  0  0  0
    1.0700   65.4950   64.5510 H   0  0  0  0  0  0  0  0  0  0  0  0
    0.7680   66.8890   65.4140 H   0  0  0  0  0  0  0  0  0  0  0  0
    1.8540   65.7650   65.9820 H   0  0  0  0  0  0  0  0  0  0  0  0
    0.1725   68.4143   64.2580 H   0  0  0  0  0  0  0  0  0  0  0  0
   -0.8406   69.5162   62.3446 H   0  0  0  0  0  0  0  0  0  0  0  0
    2.5060   68.4040   60.0020 H   0  0  0  0  0  0  0  0  0  0  0  0
    3.8794   66.2615   61.0959 H   0  0  0  0  0  0  0  0  0  0  0  0
    4.6111   67.9170   61.2834 H   0  0  0  0  0  0  0  0  0  0  0  0
  1  2  1  0
  2  3  2  0
  3  4  1  0
  4  5  1  0
  5  6  2  0
  6  7  1  0
  6  8  1  0
  8  9  1  0
  9 10  1  1
  9 11  1  0
 11 12  1  0
 12 13  2  0
 13 14  1  0
 14 15  2  0
 14 16  1  0
 16 17  1  0
 17 18  1  0
  9  3  1  0
 17 11  2  0
 18  4  1  0
  1 19  1  0
  1 20  1  0
  1 21  1  0
  2 22  1  0
  4 23  1  6
  5 24  1  0
  7 25  1  0
  7 26  1  0
  7 27  1  0
  8 28  1  0
  8 29  1  0
 10 30  1  0
 10 31  1  0
 10 32  1  0
 12 33  1  0
 13 34  1  0
 16 35  1  0
 18 36  1  0
 18 37  1  0
M  CHG  1  10   1
M  END
>  <meeko>  (2) 
{"is_sidechain": [false], "free_energy": -10.403, "intermolecular_energy": -10.707, "internal_energy": 0.0}

$$$$
1gpk_ligand
     RDKit          3D

 37 39  0  0  0  0  0  0  0  0999 V2000
    0.3570   69.2760   61.9340 C   0  0  0  0  0  0  0  0  0  0  0  0
    1.6740   68.5690   61.7780 C   0  0  0  0  0  0  0  0  0  0  0  0
    2.5040   68.1560   62.7610 C   0  0  0  0  0  0  0  0  0  0  0  0
    2.2460   68.3670   64.2520 C   0  0  2  0  0  0  0  0  0  0  0  0
    3.4470   69.0150   64.9170 C   0  0  0  0  0  0  0  0  0  0  0  0
    4.6890   69.0210   64.3990 C   0  0  0  0  0  0  0  0  0  0  0  0
    5.8420   69.7010   65.0780 C   0  0  0  0  0  0  0  0  0  0  0  0
    4.9880   68.3210   63.0890 C   0  0  0  0  0  0  0  0  0  0  0  0
    3.8320   67.3940   62.5960 C   0  0  2  0  0  0  0  0  0  0  0  0
    4.0810   67.0980   61.1500 N   0  0  0  0  0  0  0  0  0  0  0  0
    3.7900   66.0850   63.4200 C   0  0  0  0  0  0  0  0  0  0  0  0
    4.7320   65.0010   63.1470 C   0  0  0  0  0  0  0  0  0  0  0  0
    4.6770   63.8420   63.8190 C   0  0  0  0  0  0  0  0  0  0  0  0
    3.6590   63.6440   64.8770 C   0  0  0  0  0  0  0  0  0  0  0  0
    3.5710   62.5900   65.4880 O   0  0  0  0  0  0  0  0  0  0  0  0
    2.8470   64.7230   65.1150 N   0  0  0  0  0  0  0  0  0  0  0  0
    2.8980   65.9140   64.4270 C   0  0  0  0  0  0  0  0  0  0  0  0
    1.9320   66.9920   64.8770 C   0  0  0  0  0  0  0  0  0  0  0  0
    0.1305   69.3976   63.0035 H   0  0  0  0  0  0  0  0  0  0  0  0
    0.4131   70.2653   61.4563 H   0  0  0  0  0  0  0  0  0  0  0  0
   -0.4365   68.6826   61.4563 H   0  0  0  0  0  0  0  0  0  0  0  0
    1.9990   68.3647   60.7471 H   0  0  0  0  0  0  0  0  0  0  0  0
    1.3936   69.0460   64.4016 H   0  0  0  0  0  0  0  0  0  0  0  0
    3.2918   69.5123   65.8858 H   0  0  0  0  0  0  0  0  0  0  0  0
    5.7195   69.6288   66.1688 H   0  0  0  0  0  0  0  0  0  0  0  0
    6.7820   69.2127   64.7814 H   0  0  0  0  0  0  0  0  0  0  0  0
    5.8695   70.7599   64.7814 H   0  0  0  0  0  0  0  0  0  0  0  0
    5.1719   69.0860   62.3203 H   0  0  0  0  0  0  0  0  0  0  0  0
    5.8649   67.6792   63.2596 H   0  0  0  0  0  0  0  0  0  0  0  0
    3.4660   66.3440   60.8280 H   0  0  0  0  0  0  0  0  0  0  0  0
    5.0570   66.7980   61.0290 H   0  0  0  0  0  0  0  0  0  0  0  0
    3.9170   67.9110   60.5510 H   0  0  0  0  0  0  0  0  0  0  0  0
    5.5023   65.1390   62.3739 H   0  0  0  0  0  0  0  0  0  0  0  0
    5.3889   63.0369   63.5844 H   0  0  0  0  0  0  0  0  0  0  0  0
    2.1740   64.5850   65.8630 H   0  0  0  0  0  0  0  0  0  0  0  0
    0.9133   66.6966   64.5853 H   0  0  0  0  0  0  0  0  0  0  0  0
    2.0282   67.0918   65.9682 H   0  0  0  0  0  0  0  0  0  0  0  0
  1  2  1  0
  2  3  2  0
  3  4  1  0
  4  5  1  0
  5  6  2  0
  6  7  1  0
  6  8  1  0
  8  9  1  0
  9 10  1  6
  9 11  1  0
 11 12  1  0
 12 13  2  0
 13 14  1  0
 14 15  2  0
 14 16  1  0
 16 17  1  0
 17 18  1  0
  9  3  1  0
 17 11  2  0
 18  4  1  0
  1 19  1  0
  1 20  1  0
  1 21  1  0
  2 22  1  0
  4 23  1  6
  5 24  1  0
  7 25  1  0
  7 26  1  0
  7 27  1  0
  8 28  1  0
  8 29  1  0
 10 30  1  0
 10 31  1  0
 10 32  1  0
 12 33  1  0
 13 34  1  0
 16 35  1  0
 18 36  1  0
 18 37  1  0
M  CHG  1  10   1
M  END
>  <meeko>  (3) 
{"is_sidechain": [false], "free_energy": -9.675, "intermolecular_energy": -9.958, "internal_energy": 0.0}

$$$$
1gpk_ligand
     RDKit          3D

 37 39  0  0  0  0  0  0  0  0999 V2000
    2.0770   69.6500   67.7020 C   0  0  0  0  0  0  0  0  0  0  0  0
    3.0340   69.3130   66.5930 C   0  0  0  0  0  0  0  0  0  0  0  0
    2.8950   68.3490   65.6560 C   0  0  0  0  0  0  0  0  0  0  0  0
    1.7110   67.3870   65.5770 C   0  0  2  0  0  0  0  0  0  0  0  0
    2.1920   65.9490   65.5100 C   0  0  0  0  0  0  0  0  0  0  0  0
    3.4370   65.5820   65.1500 C   0  0  0  0  0  0  0  0  0  0  0  0
    3.8780   64.1470   65.1270 C   0  0  0  0  0  0  0  0  0  0  0  0
    4.4630   66.6160   64.7350 C   0  0  0  0  0  0  0  0  0  0  0  0
    3.8590   68.0370   64.4960 C   0  0  2  0  0  0  0  0  0  0  0  0
    4.9960   69.0120   64.4920 N   0  0  0  0  0  0  0  0  0  0  0  0
    3.0940   68.0870   63.1520 C   0  0  0  0  0  0  0  0  0  0  0  0
    3.8160   68.2170   61.8880 C   0  0  0  0  0  0  0  0  0  0  0  0
    3.1650   68.3110   60.7180 C   0  0  0  0  0  0  0  0  0  0  0  0
    1.6850   68.2670   60.6870 C   0  0  0  0  0  0  0  0  0  0  0  0
    1.0670   68.3750   59.6390 O   0  0  0  0  0  0  0  0  0  0  0  0
    1.0800   68.0890   61.9040 N   0  0  0  0  0  0  0  0  0  0  0  0
    1.7420   67.9940   63.1070 C   0  0  0  0  0  0  0  0  0  0  0  0
    0.8800   67.7600   64.3310 C   0  0  0  0  0  0  0  0  0  0  0  0
    2.5653   69.4781   68.6726 H   0  0  0  0  0  0  0  0  0  0  0  0
    1.7810   70.7064   67.6225 H   0  0  0  0  0  0  0  0  0  0  0  0
    1.1844   69.0121   67.6225 H   0  0  0  0  0  0  0  0  0  0  0  0
    3.9504   69.9190   66.5378 H   0  0  0  0  0  0  0  0  0  0  0  0
    1.0868   67.4727   66.4787 H   0  0  0  0  0  0  0  0  0  0  0  0
    1.4774   65.1549   65.7725 H   0  0  0  0  0  0  0  0  0  0  0  0
    3.9904   63.7814   66.1584 H   0  0  0  0  0  0  0  0  0  0  0  0
    3.1248   63.5403   64.6029 H   0  0  0  0  0  0  0  0  0  0  0  0
    4.8419   64.0680   64.6029 H   0  0  0  0  0  0  0  0  0  0  0  0
    5.2223   66.6898   65.5275 H   0  0  0  0  0  0  0  0  0  0  0  0
    4.8884   66.2815   63.7773 H   0  0  0  0  0  0  0  0  0  0  0  0
    5.1700   69.3540   63.5420 H   0  0  0  0  0  0  0  0  0  0  0  0
    5.8440   68.5430   64.8320 H   0  0  0  0  0  0  0  0  0  0  0  0
    4.8160   69.8240   65.0870 H   0  0  0  0  0  0  0  0  0  0  0  0
    4.9158   68.2383   61.8956 H   0  0  0  0  0  0  0  0  0  0  0  0
    3.7312   68.4208   59.7813 H   0  0  0  0  0  0  0  0  0  0  0  0
    0.0670   68.0300   61.8640 H   0  0  0  0  0  0  0  0  0  0  0  0
    0.3155   68.6793   64.5458 H   0  0  0  0  0  0  0  0  0  0  0  0
    0.2099   66.9158   64.1113 H   0  0  0  0  0  0  0  0  0  0  0  0
  1  2  1  0
  2  3  2  0
  3  4  1  0
  4  5  1  0
  5  6  2  0
  6  7  1  0
  6  8  1  0
  8  9  1  0
  9 10  1  6
  9 11  1  0
 11 12  1  0
 12 13  2  0
 13 14  1  0
 14 15  2  0
 14 16  1  0
 16 17  1  0
 17 18  1  0
  9  3  1  0
 17 11  2  0
 18  4  1  0
  1 19  1  0
  1 20  1  0
  1 21  1  0
  2 22  1  0
  4 23  1  1
  5 24  1  0
  7 25  1  0
  7 26  1  0
  7 27  1  0
  8 28  1  0
  8 29  1  0
 10 30  1  0
 10 31  1  0
 10 32  1  0
 12 33  1  0
 13 34  1  0
 16 35  1  0
 18 36  1  0
 18 37  1  0
M  CHG  1  10   1
M  END
>  <meeko>  (4) 
{"is_sidechain": [false], "free_energy": -9.317, "intermolecular_energy": -9.589, "internal_energy": 0.0}

$$$$
1gpk_ligand
     RDKit          3D

 37 39  0  0  0  0  0  0  0  0999 V2000
    3.5860   63.3890   64.2080 C   0  0  0  0  0  0  0  0  0  0  0  0
    4.1140   64.5620   63.4310 C   0  0  0  0  0  0  0  0  0  0  0  0
    3.7500   65.8580   63.5540 C   0  0  0  0  0  0  0  0  0  0  0  0
    2.6830   66.3650   64.5230 C   0  0  2  0  0  0  0  0  0  0  0  0
    1.6570   67.2140   63.7930 C   0  0  0  0  0  0  0  0  0  0  0  0
    1.8630   67.7860   62.5920 C   0  0  0  0  0  0  0  0  0  0  0  0
    0.8070   68.5930   61.8930 C   0  0  0  0  0  0  0  0  0  0  0  0
    3.1940   67.6480   61.8820 C   0  0  0  0  0  0  0  0  0  0  0  0
    4.3260   67.0610   62.7840 C   0  0  2  0  0  0  0  0  0  0  0  0
    5.4320   66.6140   61.8790 N   0  0  0  0  0  0  0  0  0  0  0  0
    4.8370   68.1250   63.7840 C   0  0  0  0  0  0  0  0  0  0  0  0
    5.7660   69.1680   63.3530 C   0  0  0  0  0  0  0  0  0  0  0  0
    6.2560   70.0690   64.2170 C   0  0  0  0  0  0  0  0  0  0  0  0
    5.8450   70.0320   65.6400 C   0  0  0  0  0  0  0  0  0  0  0  0
    6.2940   70.8240   66.4540 O   0  0  0  0  0  0  0  0  0  0  0  0
    4.9310   69.0620   65.9590 N   0  0  0  0  0  0  0  0  0  0  0  0
    4.4260   68.1340   65.0760 C   0  0  0  0  0  0  0  0  0  0  0  0
    3.3940   67.1720   65.6290 C   0  0  0  0  0  0  0  0  0  0  0  0
    3.6773   63.5918   65.2853 H   0  0  0  0  0  0  0  0  0  0  0  0
    2.5281   63.2270   63.9537 H   0  0  0  0  0  0  0  0  0  0  0  0
    4.1661   62.4897   63.9537 H   0  0  0  0  0  0  0  0  0  0  0  0
    4.8837   64.3410   62.6769 H   0  0  0  0  0  0  0  0  0  0  0  0
    2.1387   65.5205   64.9709 H   0  0  0  0  0  0  0  0  0  0  0  0
    0.6820   67.3718   64.2772 H   0  0  0  0  0  0  0  0  0  0  0  0
    0.1656   69.0832   62.6402 H   0  0  0  0  0  0  0  0  0  0  0  0
    1.2863   69.3571   61.2634 H   0  0  0  0  0  0  0  0  0  0  0  0
    0.1956   67.9299   61.2634 H   0  0  0  0  0  0  0  0  0  0  0  0
    3.0590   66.9829   61.0163 H   0  0  0  0  0  0  0  0  0  0  0  0
    3.5087   68.6599   61.5871 H   0  0  0  0  0  0  0  0  0  0  0  0
    6.2580   67.2090   62.0030 H   0  0  0  0  0  0  0  0  0  0  0  0
    5.1200   66.6840   60.9030 H   0  0  0  0  0  0  0  0  0  0  0  0
    5.7170   65.6480   62.0580 H   0  0  0  0  0  0  0  0  0  0  0  0
    6.0698   69.2149   62.2968 H   0  0  0  0  0  0  0  0  0  0  0  0
    6.9635   70.8360   63.8690 H   0  0  0  0  0  0  0  0  0  0  0  0
    4.6340   69.0670   66.9300 H   0  0  0  0  0  0  0  0  0  0  0  0
    3.8965   66.4694   66.3101 H   0  0  0  0  0  0  0  0  0  0  0  0
    2.6300   67.7667   66.1511 H   0  0  0  0  0  0  0  0  0  0  0  0
  1  2  1  0
  2  3  2  0
  3  4  1  0
  4  5  1  0
  5  6  2  0
  6  7  1  0
  6  8  1  0
  8  9  1  0
  9 10  1  6
  9 11  1  0
 11 12  1  0
 12 13  2  0
 13 14  1  0
 14 15  2  0
 14 16  1  0
 16 17  1  0
 17 18  1  0
  9  3  1  0
 17 11  2  0
 18  4  1  0
  1 19  1  0
  1 20  1  0
  1 21  1  0
  2 22  1  0
  4 23  1  1
  5 24  1  0
  7 25  1  0
  7 26  1  0
  7 27  1  0
  8 28  1  0
  8 29  1  0
 10 30  1  0
 10 31  1  0
 10 32  1  0
 12 33  1  0
 13 34  1  0
 16 35  1  0
 18 36  1  0
 18 37  1  0
M  CHG  1  10   1
M  END
>  <meeko>  (5) 
{"is_sidechain": [false], "free_energy": -8.336, "intermolecular_energy": -8.58, "internal_energy": 0.0}

$$$$
