3gc5_ligand
     RDKit          3D

 38 40  0  0  0  0  0  0  0  0999 V2000
   18.2090   17.8780   14.8490 C   0  0  0  0  0  0  0  0  0  0  0  0
   18.9510   17.2010   15.9100 N   0  0  0  0  0  0  0  0  0  0  0  0
   18.4890   17.1310   17.1630 C   0  0  0  0  0  0  0  0  0  0  0  0
   17.2720   16.7150   17.5220 N   0  0  0  0  0  0  0  0  0  0  0  0
   17.1320   16.7340   18.9030 C   0  0  0  0  0  0  0  0  0  0  0  0
   16.0630   16.3730   19.7550 C   0  0  0  0  0  0  0  0  0  0  0  0
   14.7440   15.9260   19.1670 C   0  0  0  0  0  0  0  0  0  0  0  0
   14.8390   14.6120   18.3670 C   0  0  0  0  0  0  0  0  0  0  0  0
   14.4370   13.4390   19.1910 N   0  0  0  0  0  0  0  0  0  0  0  0
   16.3610   16.4740   21.1560 C   0  0  0  0  0  0  0  0  0  0  0  0
   15.3920   16.0600   22.1310 N   0  0  0  0  0  0  0  0  0  0  0  0
   15.6720   16.1320   23.4670 C   0  0  0  0  0  0  0  0  0  0  0  0
   14.7710   15.7120   24.3610 N   0  0  0  0  0  0  0  0  0  0  0  0
   16.8340   16.6180   23.8760 N   0  0  0  0  0  0  0  0  0  0  0  0
   17.8650   17.0590   23.0420 C   0  0  0  0  0  0  0  0  0  0  0  0
   18.8980   17.4940   23.5070 O   0  0  0  0  0  0  0  0  0  0  0  0
   17.6180   16.9630   21.5990 C   0  0  0  0  0  0  0  0  0  0  0  0
   18.6470   17.3500   20.7250 C   0  0  0  0  0  0  0  0  0  0  0  0
   18.3610   17.2040   19.3800 C   0  0  0  0  0  0  0  0  0  0  0  0
   19.1300   17.4520   18.2720 N   0  0  0  0  0  0  0  0  0  0  0  0
   17.4664   18.5555   15.2957 H   0  0  0  0  0  0  0  0  0  0  0  0
   18.9063   18.4576   14.2262 H   0  0  0  0  0  0  0  0  0  0  0  0
   17.6956   17.1306   14.2262 H   0  0  0  0  0  0  0  0  0  0  0  0
   19.8470   16.7880   15.6820 H   0  0  0  0  0  0  0  0  0  0  0  0
   16.6150   16.3680   16.8370 H   0  0  0  0  0  0  0  0  0  0  0  0
   14.0278   15.7815   19.9893 H   0  0  0  0  0  0  0  0  0  0  0  0
   14.4220   16.7089   18.4646 H   0  0  0  0  0  0  0  0  0  0  0  0
   14.1756   14.6779   17.4920 H   0  0  0  0  0  0  0  0  0  0  0  0
   15.8851   14.4726   18.0569 H   0  0  0  0  0  0  0  0  0  0  0  0
   15.0890   13.2180   19.9590 H   0  0  0  0  0  0  0  0  0  0  0  0
   14.4030   12.5800   18.6150 H   0  0  0  0  0  0  0  0  0  0  0  0
   13.4980   13.5140   19.6130 H   0  0  0  0  0  0  0  0  0  0  0  0
   14.5040   15.6420   21.8870 H   0  0  0  0  0  0  0  0  0  0  0  0
   14.0050   16.2760   24.7080 H   0  0  0  0  0  0  0  0  0  0  0  0
   14.7990   14.7630   24.7310 H   0  0  0  0  0  0  0  0  0  0  0  0
   17.0410   16.6840   24.8680 H   0  0  0  0  0  0  0  0  0  0  0  0
   19.6104   17.7408   21.0843 H   0  0  0  0  0  0  0  0  0  0  0  0
   20.0840   17.8040   18.2870 H   0  0  0  0  0  0  0  0  0  0  0  0
  1  2  1  0
  2  3  1  0
  3  4  1  0
  4  5  1  0
  5  6  2  0
  6  7  1  0
  7  8  1  0
  8  9  1  0
  6 10  1  0
 10 11  1  0
 11 12  2  0
 12 13  1  0
 12 14  1  0
 14 15  1  0
 15 16  2  0
 15 17  1  0
 17 18  1  0
 18 19  2  0
 19 20  1  0
 20  3  2  0
 19  5  1  0
 17 10  2  0
  1 21  1  0
  1 22  1  0
  1 23  1  0
  2 24  1  0
  4 25  1  0
  7 26  1  0
  7 27  1  0
  8 28  1  0
  8 29  1  0
  9 30  1  0
  9 31  1  0
  9 32  1  0
 11 33  1  0
 13 34  1  0
 13 35  1  0
 14 36  1  0
 18 37  1  0
 20 38  1  0
M  CHG  3   9   1  11   1  20   1
M  END
>  <meeko>  (1) 
{"is_sidechain": [false], "free_energy": -9.353, "intermolecular_energy": -11.541, "internal_energy": -0.112}

$$$$
3gc5_ligand
     RDKit          3D

 38 40  0  0  0  0  0  0  0  0999 V2000
   19.6780   16.4200   20.6830 C   0  0  0  0  0  0  0  0  0  0  0  0
   19.2160   17.0060   19.4270 N   0  0  0  0  0  0  0  0  0  0  0  0
   17.9990   16.7510   18.9340 C   0  0  0  0  0  0  0  0  0  0  0  0
   17.5290   17.1800   17.7600 N   0  0  0  0  0  0  0  0  0  0  0  0
   16.2440   16.7040   17.5400 C   0  0  0  0  0  0  0  0  0  0  0  0
   15.3460   16.8570   16.4580 C   0  0  0  0  0  0  0  0  0  0  0  0
   15.7150   17.7380   15.2870 C   0  0  0  0  0  0  0  0  0  0  0  0
   16.7030   17.0760   14.3060 C   0  0  0  0  0  0  0  0  0  0  0  0
   18.0940   17.5620   14.5180 N   0  0  0  0  0  0  0  0  0  0  0  0
   14.1190   16.1240   16.5970 C   0  0  0  0  0  0  0  0  0  0  0  0
   13.1540   16.1250   15.5340 N   0  0  0  0  0  0  0  0  0  0  0  0
   11.9920   15.4130   15.6470 C   0  0  0  0  0  0  0  0  0  0  0  0
   11.1180   15.3990   14.6350 N   0  0  0  0  0  0  0  0  0  0  0  0
   11.7320   14.7380   16.7560 N   0  0  0  0  0  0  0  0  0  0  0  0
   12.5750   14.6510   17.8670 C   0  0  0  0  0  0  0  0  0  0  0  0
   12.2520   14.0110   18.8450 O   0  0  0  0  0  0  0  0  0  0  0  0
   13.8500   15.3710   17.7710 C   0  0  0  0  0  0  0  0  0  0  0  0
   14.7500   15.2700   18.8450 C   0  0  0  0  0  0  0  0  0  0  0  0
   15.9440   15.9460   18.6780 C   0  0  0  0  0  0  0  0  0  0  0  0
   17.0400   16.0370   19.4960 N   0  0  0  0  0  0  0  0  0  0  0  0
   19.2419   16.9731   21.5279 H   0  0  0  0  0  0  0  0  0  0  0  0
   19.3646   15.3668   20.7334 H   0  0  0  0  0  0  0  0  0  0  0  0
   20.7753   16.4789   20.7334 H   0  0  0  0  0  0  0  0  0  0  0  0
   19.8480   17.6090   18.9160 H   0  0  0  0  0  0  0  0  0  0  0  0
   18.1110   17.7100   17.1260 H   0  0  0  0  0  0  0  0  0  0  0  0
   14.7958   17.9903   14.7380 H   0  0  0  0  0  0  0  0  0  0  0  0
   16.2141   18.6284   15.6969 H   0  0  0  0  0  0  0  0  0  0  0  0
   16.6788   15.9865   14.4558 H   0  0  0  0  0  0  0  0  0  0  0  0
   16.3991   17.3386   13.2819 H   0  0  0  0  0  0  0  0  0  0  0  0
   18.1600   18.5620   14.7650 H   0  0  0  0  0  0  0  0  0  0  0  0
   18.6540   17.4650   13.6530 H   0  0  0  0  0  0  0  0  0  0  0  0
   18.6230   17.0440   15.2370 H   0  0  0  0  0  0  0  0  0  0  0  0
   13.3080   16.5840   14.6470 H   0  0  0  0  0  0  0  0  0  0  0  0
   10.7210   16.2290   14.2120 H   0  0  0  0  0  0  0  0  0  0  0  0
   10.8190   14.5230   14.2100 H   0  0  0  0  0  0  0  0  0  0  0  0
   10.8640   14.2190   16.8480 H   0  0  0  0  0  0  0  0  0  0  0  0
   14.5209   14.6942   19.7538 H   0  0  0  0  0  0  0  0  0  0  0  0
   17.1320   15.5900   20.4050 H   0  0  0  0  0  0  0  0  0  0  0  0
  1  2  1  0
  2  3  1  0
  3  4  1  0
  4  5  1  0
  5  6  2  0
  6  7  1  0
  7  8  1  0
  8  9  1  0
  6 10  1  0
 10 11  1  0
 11 12  2  0
 12 13  1  0
 12 14  1  0
 14 15  1  0
 15 16  2  0
 15 17  1  0
 17 18  1  0
 18 19  2  0
 19 20  1  0
 20  3  2  0
 19  5  1  0
 17 10  2  0
  1 21  1  0
  1 22  1  0
  1 23  1  0
  2 24  1  0
  4 25  1  0
  7 26  1  0
  7 27  1  0
  8 28  1  0
  8 29  1  0
  9 30  1  0
  9 31  1  0
  9 32  1  0
 11 33  1  0
 13 34  1  0
 13 35  1  0
 14 36  1  0
 18 37  1  0
 20 38  1  0
M  CHG  3   9   1  11   1  20   1
M  END
>  <meeko>  (2) 
{"is_sidechain": [false], "free_energy": -7.111, "intermolecular_energy": -8.705, "internal_energy": -0.181}

$$$$
3gc5_ligand
     RDKit          3D

 38 40  0  0  0  0  0  0  0  0999 V2000
   11.0990   15.7900   14.9500 C   0  0  0  0  0  0  0  0  0  0  0  0
   12.4820   16.1190   14.6120 N   0  0  0  0  0  0  0  0  0  0  0  0
   13.4390   16.1890   15.5430 C   0  0  0  0  0  0  0  0  0  0  0  0
   14.7110   16.5350   15.3300 N   0  0  0  0  0  0  0  0  0  0  0  0
   15.4270   16.5400   16.5180 C   0  0  0  0  0  0  0  0  0  0  0  0
   16.7740   16.8530   16.8140 C   0  0  0  0  0  0  0  0  0  0  0  0
   17.7330   17.2020   15.6990 C   0  0  0  0  0  0  0  0  0  0  0  0
   17.2220   18.3240   14.7750 C   0  0  0  0  0  0  0  0  0  0  0  0
   18.1790   19.4620   14.7150 N   0  0  0  0  0  0  0  0  0  0  0  0
   17.1010   16.8030   18.2110 C   0  0  0  0  0  0  0  0  0  0  0  0
   18.4130   17.1780   18.6590 N   0  0  0  0  0  0  0  0  0  0  0  0
   18.7290   17.1550   19.9890 C   0  0  0  0  0  0  0  0  0  0  0  0
   19.9450   17.5380   20.3920 N   0  0  0  0  0  0  0  0  0  0  0  0
   17.8320   16.7530   20.8770 N   0  0  0  0  0  0  0  0  0  0  0  0
   16.5240   16.3580   20.5850 C   0  0  0  0  0  0  0  0  0  0  0  0
   15.7710   16.0000   21.4660 O   0  0  0  0  0  0  0  0  0  0  0  0
   16.1330   16.4050   19.1720 C   0  0  0  0  0  0  0  0  0  0  0  0
   14.8120   16.0640   18.8390 C   0  0  0  0  0  0  0  0  0  0  0  0
   14.5010   16.1590   17.4950 C   0  0  0  0  0  0  0  0  0  0  0  0
   13.3200   15.9350   16.8350 N   0  0  0  0  0  0  0  0  0  0  0  0
   10.9853   15.7630   16.0438 H   0  0  0  0  0  0  0  0  0  0  0  0
   10.4274   16.5534   14.5303 H   0  0  0  0  0  0  0  0  0  0  0  0
   10.8431   14.8059   14.5303 H   0  0  0  0  0  0  0  0  0  0  0  0
   12.7080   16.3130   13.6450 H   0  0  0  0  0  0  0  0  0  0  0  0
   15.0260   16.8240   14.4140 H   0  0  0  0  0  0  0  0  0  0  0  0
   18.6839   17.5263   16.1469 H   0  0  0  0  0  0  0  0  0  0  0  0
   17.8486   16.3008   15.0789 H   0  0  0  0  0  0  0  0  0  0  0  0
   17.0861   17.9180   13.7618 H   0  0  0  0  0  0  0  0  0  0  0  0
   16.2694   18.6963   15.1798 H   0  0  0  0  0  0  0  0  0  0  0  0
   18.8010   19.4510   13.8920 H   0  0  0  0  0  0  0  0  0  0  0  0
   18.8170   19.4490   15.5300 H   0  0  0  0  0  0  0  0  0  0  0  0
   17.7370   20.3950   14.7390 H   0  0  0  0  0  0  0  0  0  0  0  0
   19.1290   17.5330   18.0400 H   0  0  0  0  0  0  0  0  0  0  0  0
   20.3300   17.3430   21.3080 H   0  0  0  0  0  0  0  0  0  0  0  0
   20.5720   18.0410   19.7670 H   0  0  0  0  0  0  0  0  0  0  0  0
   18.0680   16.7230   21.8640 H   0  0  0  0  0  0  0  0  0  0  0  0
   14.0776   15.7444   19.5930 H   0  0  0  0  0  0  0  0  0  0  0  0
   12.4500   15.6440   17.2720 H   0  0  0  0  0  0  0  0  0  0  0  0
  1  2  1  0
  2  3  1  0
  3  4  1  0
  4  5  1  0
  5  6  2  0
  6  7  1  0
  7  8  1  0
  8  9  1  0
  6 10  1  0
 10 11  1  0
 11 12  2  0
 12 13  1  0
 12 14  1  0
 14 15  1  0
 15 16  2  0
 15 17  1  0
 17 18  1  0
 18 19  2  0
 19 20  1  0
 20  3  2  0
 19  5  1  0
 17 10  2  0
  1 21  1  0
  1 22  1  0
  1 23  1  0
  2 24  1  0
  4 25  1  0
  7 26  1  0
  7 27  1  0
  8 28  1  0
  8 29  1  0
  9 30  1  0
  9 31  1  0
  9 32  1  0
 11 33  1  0
 13 34  1  0
 13 35  1  0
 14 36  1  0
 18 37  1  0
 20 38  1  0
M  CHG  3   9   1  11   1  20   1
M  END
>  <meeko>  (3) 
{"is_sidechain": [false], "free_energy": -6.962, "intermolecular_energy": -8.775, "internal_energy": 0.073}

$$$$
3gc5_ligand
     RDKit          3D

 38 40  0  0  0  0  0  0  0  0999 V2000
   18.1600   17.0310   23.0640 C   0  0  0  0  0  0  0  0  0  0  0  0
   18.6950   16.4230   21.8480 N   0  0  0  0  0  0  0  0  0  0  0  0
   18.0430   16.4840   20.6820 C   0  0  0  0  0  0  0  0  0  0  0  0
   16.7670   16.1450   20.4840 N   0  0  0  0  0  0  0  0  0  0  0  0
   16.3980   16.3640   19.1650 C   0  0  0  0  0  0  0  0  0  0  0  0
   15.1740   16.1870   18.4780 C   0  0  0  0  0  0  0  0  0  0  0  0
   13.9830   15.5910   19.1940 C   0  0  0  0  0  0  0  0  0  0  0  0
   13.4660   14.2890   18.5520 C   0  0  0  0  0  0  0  0  0  0  0  0
   14.0720   13.0870   19.1890 N   0  0  0  0  0  0  0  0  0  0  0  0
   15.1960   16.6120   17.1070 C   0  0  0  0  0  0  0  0  0  0  0  0
   13.9970   16.5640   16.3170 N   0  0  0  0  0  0  0  0  0  0  0  0
   14.0010   16.9870   15.0170 C   0  0  0  0  0  0  0  0  0  0  0  0
   12.8700   16.9660   14.3060 N   0  0  0  0  0  0  0  0  0  0  0  0
   15.1250   17.4160   14.4620 N   0  0  0  0  0  0  0  0  0  0  0  0
   16.3610   17.5130   15.1080 C   0  0  0  0  0  0  0  0  0  0  0  0
   17.3410   17.9150   14.5170 O   0  0  0  0  0  0  0  0  0  0  0  0
   16.3900   17.1050   16.5170 C   0  0  0  0  0  0  0  0  0  0  0  0
   17.6000   17.2330   17.2170 C   0  0  0  0  0  0  0  0  0  0  0  0
   17.5520   16.8610   18.5480 C   0  0  0  0  0  0  0  0  0  0  0  0
   18.5210   16.8840   19.5170 N   0  0  0  0  0  0  0  0  0  0  0  0
   18.5959   16.5356   23.9441 H   0  0  0  0  0  0  0  0  0  0  0  0
   18.4149   18.1009   23.0817 H   0  0  0  0  0  0  0  0  0  0  0  0
   17.0664   16.9143   23.0817 H   0  0  0  0  0  0  0  0  0  0  0  0
   19.5780   15.9310   21.9040 H   0  0  0  0  0  0  0  0  0  0  0  0
   16.1780   15.8530   21.2520 H   0  0  0  0  0  0  0  0  0  0  0  0
   14.2738   15.3751   20.2326 H   0  0  0  0  0  0  0  0  0  0  0  0
   13.1679   16.3271   19.1325 H   0  0  0  0  0  0  0  0  0  0  0  0
   12.3732   14.2425   18.6688 H   0  0  0  0  0  0  0  0  0  0  0  0
   13.7469   14.2940   17.4885 H   0  0  0  0  0  0  0  0  0  0  0  0
   15.1030   13.0950   19.2130 H   0  0  0  0  0  0  0  0  0  0  0  0
   13.8250   12.2300   18.6640 H   0  0  0  0  0  0  0  0  0  0  0  0
   13.7540   12.9080   20.1550 H   0  0  0  0  0  0  0  0  0  0  0  0
   13.0990   16.2880   16.6900 H   0  0  0  0  0  0  0  0  0  0  0  0
   12.2890   17.7780   14.1330 H   0  0  0  0  0  0  0  0  0  0  0  0
   12.5390   16.1080   13.8680 H   0  0  0  0  0  0  0  0  0  0  0  0
   15.1340   17.7190   13.4930 H   0  0  0  0  0  0  0  0  0  0  0  0
   18.5202   17.6026   16.7410 H   0  0  0  0  0  0  0  0  0  0  0  0
   19.4790   17.1980   19.3810 H   0  0  0  0  0  0  0  0  0  0  0  0
  1  2  1  0
  2  3  1  0
  3  4  1  0
  4  5  1  0
  5  6  2  0
  6  7  1  0
  7  8  1  0
  8  9  1  0
  6 10  1  0
 10 11  1  0
 11 12  2  0
 12 13  1  0
 12 14  1  0
 14 15  1  0
 15 16  2  0
 15 17  1  0
 17 18  1  0
 18 19  2  0
 19 20  1  0
 20  3  2  0
 19  5  1  0
 17 10  2  0
  1 21  1  0
  1 22  1  0
  1 23  1  0
  2 24  1  0
  4 25  1  0
  7 26  1  0
  7 27  1  0
  8 28  1  0
  8 29  1  0
  9 30  1  0
  9 31  1  0
  9 32  1  0
 11 33  1  0
 13 34  1  0
 13 35  1  0
 14 36  1  0
 18 37  1  0
 20 38  1  0
M  CHG  3   9   1  11   1  20   1
M  END
>  <meeko>  (4) 
{"is_sidechain": [false], "free_energy": -6.957, "intermolecular_energy": -8.66, "internal_energy": -0.035}

$$$$
3gc5_ligand
     RDKit          3D

 38 40  0  0  0  0  0  0  0  0999 V2000
   11.0530   14.9450   15.4570 C   0  0  0  0  0  0  0  0  0  0  0  0
   11.4970   14.9450   16.8480 N   0  0  0  0  0  0  0  0  0  0  0  0
   12.7120   15.3790   17.2020 C   0  0  0  0  0  0  0  0  0  0  0  0
   13.2480   15.2870   18.4220 N   0  0  0  0  0  0  0  0  0  0  0  0
   14.5350   15.8030   18.4350 C   0  0  0  0  0  0  0  0  0  0  0  0
   15.5050   15.9110   19.4580 C   0  0  0  0  0  0  0  0  0  0  0  0
   15.1720   15.4750   20.8670 C   0  0  0  0  0  0  0  0  0  0  0  0
   15.7080   16.4310   21.9500 C   0  0  0  0  0  0  0  0  0  0  0  0
   15.1780   16.0840   23.2970 N   0  0  0  0  0  0  0  0  0  0  0  0
   16.7640   16.4510   19.0270 C   0  0  0  0  0  0  0  0  0  0  0  0
   17.8640   16.5390   19.9470 N   0  0  0  0  0  0  0  0  0  0  0  0
   19.0740   17.0310   19.5420 C   0  0  0  0  0  0  0  0  0  0  0  0
   20.0960   17.0760   20.4020 N   0  0  0  0  0  0  0  0  0  0  0  0
   19.2320   17.4630   18.3000 N   0  0  0  0  0  0  0  0  0  0  0  0
   18.2530   17.4400   17.3040 C   0  0  0  0  0  0  0  0  0  0  0  0
   18.4870   17.8620   16.1910 O   0  0  0  0  0  0  0  0  0  0  0  0
   16.9500   16.8840   17.6880 C   0  0  0  0  0  0  0  0  0  0  0  0
   15.9520   16.7970   16.7030 C   0  0  0  0  0  0  0  0  0  0  0  0
   14.7610   16.2350   17.1230 C   0  0  0  0  0  0  0  0  0  0  0  0
   13.6060   15.9740   16.4320 N   0  0  0  0  0  0  0  0  0  0  0  0
   10.9415   13.9079   15.1077 H   0  0  0  0  0  0  0  0  0  0  0  0
   10.0859   15.4635   15.3808 H   0  0  0  0  0  0  0  0  0  0  0  0
   11.7971   15.4635   14.8346 H   0  0  0  0  0  0  0  0  0  0  0  0
   10.8660   14.5900   17.5550 H   0  0  0  0  0  0  0  0  0  0  0  0
   12.7600   14.8180   19.1720 H   0  0  0  0  0  0  0  0  0  0  0  0
   14.0778   15.4176   20.9641 H   0  0  0  0  0  0  0  0  0  0  0  0
   15.6572   14.5008   21.0270 H   0  0  0  0  0  0  0  0  0  0  0  0
   16.8060   16.3673   21.9709 H   0  0  0  0  0  0  0  0  0  0  0  0
   15.3788   17.4510   21.7026 H   0  0  0  0  0  0  0  0  0  0  0  0
   14.1960   15.7670   23.2980 H   0  0  0  0  0  0  0  0  0  0  0  0
   15.1920   16.9090   23.9220 H   0  0  0  0  0  0  0  0  0  0  0  0
   15.7210   15.3630   23.7980 H   0  0  0  0  0  0  0  0  0  0  0  0
   17.8230   16.1890   20.8940 H   0  0  0  0  0  0  0  0  0  0  0  0
   20.6660   16.2780   20.6540 H   0  0  0  0  0  0  0  0  0  0  0  0
   20.3760   17.9520   20.8410 H   0  0  0  0  0  0  0  0  0  0  0  0
   20.1260   17.8410   18.0000 H   0  0  0  0  0  0  0  0  0  0  0  0
   16.1070   17.1503   15.6729 H   0  0  0  0  0  0  0  0  0  0  0  0
   13.4540   16.1730   15.4470 H   0  0  0  0  0  0  0  0  0  0  0  0
  1  2  1  0
  2  3  1  0
  3  4  1  0
  4  5  1  0
  5  6  2  0
  6  7  1  0
  7  8  1  0
  8  9  1  0
  6 10  1  0
 10 11  1  0
 11 12  2  0
 12 13  1  0
 12 14  1  0
 14 15  1  0
 15 16  2  0
 15 17  1  0
 17 18  1  0
 18 19  2  0
 19 20  1  0
 20  3  2  0
 19  5  1  0
 17 10  2  0
  1 21  1  0
  1 22  1  0
  1 23  1  0
  2 24  1  0
  4 25  1  0
  7 26  1  0
  7 27  1  0
  8 28  1  0
  8 29  1  0
  9 30  1  0
  9 31  1  0
  9 32  1  0
 11 33  1  0
 13 34  1  0
 13 35  1  0
 14 36  1  0
 18 37  1  0
 20 38  1  0
M  CHG  3   9   1  11   1  20   1
M  END
>  <meeko>  (5) 
{"is_sidechain": [false], "free_energy": -6.389, "intermolecular_energy": -8.296, "internal_energy": 0.301}

$$$$
