1nc3_ligand
     RDKit          3D

 32 34  0  0  0  0  0  0  0  0999 V2000
   52.5160   40.6610   17.7140 N   0  0  0  0  0  0  0  0  0  0  0  0
   53.2320   40.4530   18.8820 C   0  0  0  0  0  0  0  0  0  0  0  0
   52.6550   40.7800   20.0490 N   0  0  0  0  0  0  0  0  0  0  0  0
   53.3570   40.5980   21.1860 C   0  0  0  0  0  0  0  0  0  0  0  0
   54.6040   40.1200   21.3180 N   0  0  0  0  0  0  0  0  0  0  0  0
   55.1630   39.7790   20.1360 C   0  0  0  0  0  0  0  0  0  0  0  0
   56.4310   39.2360   19.8030 C   0  0  0  0  0  0  0  0  0  0  0  0
   57.5600   38.8800   20.7230 C   0  0  2  0  0  0  0  0  0  0  0  0
   57.6850   37.4580   20.9350 O   0  0  0  0  0  0  0  0  0  0  0  0
   57.8270   37.2120   22.3570 C   0  0  2  0  0  0  0  0  0  0  0  0
   56.5180   36.5920   22.8570 C   0  0  0  0  0  0  0  0  0  0  0  0
   55.7210   36.1760   21.7490 O   0  0  0  0  0  0  0  0  0  0  0  0
   58.1180   38.5590   23.0060 C   0  0  1  0  0  0  0  0  0  0  0  0
   59.5210   38.8510   22.9490 O   0  0  0  0  0  0  0  0  0  0  0  0
   57.3700   39.5220   22.1030 C   0  0  1  0  0  0  0  0  0  0  0  0
   57.9100   40.8420   22.2050 O   0  0  0  0  0  0  0  0  0  0  0  0
   56.5780   39.1000   18.4700 N   0  0  0  0  0  0  0  0  0  0  0  0
   55.3760   39.4760   17.9830 N   0  0  0  0  0  0  0  0  0  0  0  0
   54.5120   39.9380   18.9280 C   0  0  0  0  0  0  0  0  0  0  0  0
   53.0650   40.9590   16.9200 H   0  0  0  0  0  0  0  0  0  0  0  0
   51.7230   41.2660   17.9150 H   0  0  0  0  0  0  0  0  0  0  0  0
   52.8449   40.8752   22.1192 H   0  0  0  0  0  0  0  0  0  0  0  0
   58.4661   39.2576   20.2266 H   0  0  0  0  0  0  0  0  0  0  0  0
   58.6429   36.5160   22.6017 H   0  0  0  0  0  0  0  0  0  0  0  0
   56.7455   35.7212   23.4895 H   0  0  0  0  0  0  0  0  0  0  0  0
   55.9629   37.3415   23.4401 H   0  0  0  0  0  0  0  0  0  0  0  0
   54.7990   36.1830   22.0830 H   0  0  0  0  0  0  0  0  0  0  0  0
   57.8243   38.6049   24.0651 H   0  0  0  0  0  0  0  0  0  0  0  0
   59.9150   38.1190   22.4300 H   0  0  0  0  0  0  0  0  0  0  0  0
   56.3076   39.6609   22.3522 H   0  0  0  0  0  0  0  0  0  0  0  0
   57.5170   41.3550   21.4690 H   0  0  0  0  0  0  0  0  0  0  0  0
   55.2100   39.3960   16.9860 H   0  0  0  0  0  0  0  0  0  0  0  0
  1  2  1  0
  2  3  2  0
  3  4  1  0
  4  5  2  0
  5  6  1  0
  6  7  1  0
  7  8  1  0
  8  9  1  0
  9 10  1  0
 10 11  1  0
 11 12  1  0
 10 13  1  0
 13 14  1  0
 13 15  1  0
 15 16  1  0
  7 17  2  0
 17 18  1  0
 18 19  1  0
 19  2  1  0
 19  6  2  0
 15  8  1  0
  1 20  1  0
  1 21  1  0
  4 22  1  0
  8 23  1  6
 10 24  1  6
 11 25  1  0
 11 26  1  0
 12 27  1  0
 13 28  1  1
 14 29  1  0
 15 30  1  1
 16 31  1  0
 18 32  1  0
M  END
>  <meeko>  (1) 
{"is_sidechain": [false], "free_energy": -8.971, "intermolecular_energy": -11.068, "internal_energy": -0.011}

$$$$
1nc3_ligand
     RDKit          3D

 32 34  0  0  0  0  0  0  0  0999 V2000
   52.7260   40.7200   17.2100 N   0  0  0  0  0  0  0  0  0  0  0  0
   53.0770   40.6850   18.5500 C   0  0  0  0  0  0  0  0  0  0  0  0
   52.2570   41.2710   19.4370 N   0  0  0  0  0  0  0  0  0  0  0  0
   52.6060   41.2560   20.7400 C   0  0  0  0  0  0  0  0  0  0  0  0
   53.7050   40.7220   21.2940 N   0  0  0  0  0  0  0  0  0  0  0  0
   54.5100   40.1220   20.3900 C   0  0  0  0  0  0  0  0  0  0  0  0
   55.7430   39.4330   20.5210 C   0  0  0  0  0  0  0  0  0  0  0  0
   56.5360   39.1770   21.7670 C   0  0  2  0  0  0  0  0  0  0  0  0
   57.7960   39.8810   21.7880 O   0  0  0  0  0  0  0  0  0  0  0  0
   58.8390   38.9540   22.1810 C   0  0  2  0  0  0  0  0  0  0  0  0
   59.6840   38.6480   20.9390 C   0  0  0  0  0  0  0  0  0  0  0  0
   60.8610   39.4540   20.9390 O   0  0  0  0  0  0  0  0  0  0  0  0
   58.1400   37.7160   22.7290 C   0  0  1  0  0  0  0  0  0  0  0  0
   57.8180   37.8930   24.1150 O   0  0  0  0  0  0  0  0  0  0  0  0
   56.8560   37.6840   21.9180 C   0  0  1  0  0  0  0  0  0  0  0  0
   55.8420   36.9420   22.5990 O   0  0  0  0  0  0  0  0  0  0  0  0
   56.2190   39.0360   19.3240 N   0  0  0  0  0  0  0  0  0  0  0  0
   55.2450   39.4000   18.4640 N   0  0  0  0  0  0  0  0  0  0  0  0
   54.2250   40.0960   19.0380 C   0  0  0  0  0  0  0  0  0  0  0  0
   51.7990   40.3760   17.0000 H   0  0  0  0  0  0  0  0  0  0  0  0
   53.4610   40.2780   16.6630 H   0  0  0  0  0  0  0  0  0  0  0  0
   51.9032   41.7412   21.4333 H   0  0  0  0  0  0  0  0  0  0  0  0
   55.9025   39.5377   22.5907 H   0  0  0  0  0  0  0  0  0  0  0  0
   59.5112   39.3535   22.9546 H   0  0  0  0  0  0  0  0  0  0  0  0
   59.9699   37.5858   20.9456 H   0  0  0  0  0  0  0  0  0  0  0  0
   59.0943   38.8701   20.0374 H   0  0  0  0  0  0  0  0  0  0  0  0
   60.5820   40.3100   20.5520 H   0  0  0  0  0  0  0  0  0  0  0  0
   58.7496   36.8033   22.6561 H   0  0  0  0  0  0  0  0  0  0  0  0
   56.8770   38.1640   24.1280 H   0  0  0  0  0  0  0  0  0  0  0  0
   56.9337   37.1772   20.9448 H   0  0  0  0  0  0  0  0  0  0  0  0
   56.3100   36.3550   23.2290 H   0  0  0  0  0  0  0  0  0  0  0  0
   55.3400   39.1450   17.4870 H   0  0  0  0  0  0  0  0  0  0  0  0
  1  2  1  0
  2  3  2  0
  3  4  1  0
  4  5  2  0
  5  6  1  0
  6  7  1  0
  7  8  1  0
  8  9  1  0
  9 10  1  0
 10 11  1  0
 11 12  1  0
 10 13  1  0
 13 14  1  0
 13 15  1  0
 15 16  1  0
  7 17  2  0
 17 18  1  0
 18 19  1  0
 19  2  1  0
 19  6  2  0
 15  8  1  0
  1 20  1  0
  1 21  1  0
  4 22  1  0
  8 23  1  1
 10 24  1  1
 11 25  1  0
 11 26  1  0
 12 27  1  0
 13 28  1  1
 14 29  1  0
 15 30  1  6
 16 31  1  0
 18 32  1  0
M  END
>  <meeko>  (2) 
{"is_sidechain": [false], "free_energy": -7.903, "intermolecular_energy": -9.39, "internal_energy": -0.371}

$$$$
