1oyt_ligand
     RDKit          3D

 55 59  0  0  0  0  0  0  0  0999 V2000
   11.6530  -10.0510   24.4670 N   0  0  0  0  0  0  0  0  0  0  0  0
   11.6120  -11.0350   23.5960 C   0  0  0  0  0  0  0  0  0  0  0  0
   10.7010  -11.9810   23.6880 N   0  0  0  0  0  0  0  0  0  0  0  0
   12.5970  -11.0810   22.4960 C   0  0  0  0  0  0  0  0  0  0  0  0
   12.6940  -12.2060   21.6690 C   0  0  0  0  0  0  0  0  0  0  0  0
   13.6100  -12.2430   20.6090 C   0  0  0  0  0  0  0  0  0  0  0  0
   14.4640  -11.1580   20.3380 C   0  0  0  0  0  0  0  0  0  0  0  0
   15.3930  -11.2540   19.1290 C   0  0  1  0  0  0  0  0  0  0  0  0
   16.7850  -11.8470   19.3450 C   0  0  1  0  0  0  0  0  0  0  0  0
   17.2150  -11.9040   20.7810 C   0  0  0  0  0  0  0  0  0  0  0  0
   17.5020  -10.9190   21.4410 O   0  0  0  0  0  0  0  0  0  0  0  0
   17.1050  -13.1940   21.2130 N   0  0  0  0  0  0  0  0  0  0  0  0
   17.3390  -13.6060   22.5840 C   0  0  0  0  0  0  0  0  0  0  0  0
   18.8190  -13.6460   22.8770 C   0  0  0  0  0  0  0  0  0  0  0  0
   19.2810  -13.6370   24.2030 C   0  0  0  0  0  0  0  0  0  0  0  0
   20.6510  -13.6390   24.4710 C   0  0  0  0  0  0  0  0  0  0  0  0
   21.5580  -13.6440   23.4170 C   0  0  0  0  0  0  0  0  0  0  0  0
   22.8700  -13.6410   23.6770 F   0  0  0  0  0  0  0  0  0  0  0  0
   21.1200  -13.6450   22.0990 C   0  0  0  0  0  0  0  0  0  0  0  0
   19.7520  -13.6420   21.8260 C   0  0  0  0  0  0  0  0  0  0  0  0
   16.5910  -14.0170   20.2550 C   0  0  0  0  0  0  0  0  0  0  0  0
   16.0790  -15.1110   20.4040 O   0  0  0  0  0  0  0  0  0  0  0  0
   16.6990  -13.3070   18.9370 C   0  0  1  0  0  0  0  0  0  0  0  0
   15.4720  -13.4880   18.0580 C   0  0  2  0  0  0  0  0  0  0  0  0
   15.7910  -13.7960   16.6000 C   0  0  0  0  0  0  0  0  0  0  0  0
   16.0840  -12.4420   15.9870 C   0  0  0  0  0  0  0  0  0  0  0  0
   15.0170  -11.5520   16.5910 C   0  0  0  0  0  0  0  0  0  0  0  0
   14.8120  -12.0990   18.0000 N   0  0  2  0  0  0  0  0  0  0  0  0
   14.3710  -10.0360   21.1740 C   0  0  0  0  0  0  0  0  0  0  0  0
   13.4520  -10.0000   22.2370 C   0  0  0  0  0  0  0  0  0  0  0  0
   10.9980   -9.9790   25.2350 H   0  0  0  0  0  0  0  0  0  0  0  0
   12.3750   -9.3410   24.4170 H   0  0  0  0  0  0  0  0  0  0  0  0
   10.0040  -11.9990   24.4220 H   0  0  0  0  0  0  0  0  0  0  0  0
   10.6570  -12.7290   23.0020 H   0  0  0  0  0  0  0  0  0  0  0  0
   12.0424  -13.0728   21.8535 H   0  0  0  0  0  0  0  0  0  0  0  0
   13.6625  -13.1402   19.9747 H   0  0  0  0  0  0  0  0  0  0  0  0
   15.4883  -10.1835   18.8946 H   0  0  0  0  0  0  0  0  0  0  0  0
   17.4873  -11.2161   18.7804 H   0  0  0  0  0  0  0  0  0  0  0  0
   16.8541  -12.8910   23.2649 H   0  0  0  0  0  0  0  0  0  0  0  0
   16.9194  -14.6122   22.7303 H   0  0  0  0  0  0  0  0  0  0  0  0
   18.5604  -13.6283   25.0340 H   0  0  0  0  0  0  0  0  0  0  0  0
   21.0111  -13.6366   25.5104 H   0  0  0  0  0  0  0  0  0  0  0  0
   21.8482  -13.6481   21.2745 H   0  0  0  0  0  0  0  0  0  0  0  0
   19.4019  -13.6365   20.7832 H   0  0  0  0  0  0  0  0  0  0  0  0
   17.5477  -13.6883   18.3502 H   0  0  0  0  0  0  0  0  0  0  0  0
   14.8795  -14.3143   18.4777 H   0  0  0  0  0  0  0  0  0  0  0  0
   16.6676  -14.4561   16.5239 H   0  0  0  0  0  0  0  0  0  0  0  0
   14.9677  -14.3186   16.0909 H   0  0  0  0  0  0  0  0  0  0  0  0
   17.0905  -12.0937   16.2619 H   0  0  0  0  0  0  0  0  0  0  0  0
   16.0659  -12.4527   14.8872 H   0  0  0  0  0  0  0  0  0  0  0  0
   15.3574  -10.5066   16.6260 H   0  0  0  0  0  0  0  0  0  0  0  0
   14.0877  -11.5566   16.0024 H   0  0  0  0  0  0  0  0  0  0  0  0
   13.7940  -12.1850   18.1310 H   0  0  0  0  0  0  0  0  0  0  0  0
   15.0269   -9.1712   20.9953 H   0  0  0  0  0  0  0  0  0  0  0  0
   13.4025   -9.1072   22.8777 H   0  0  0  0  0  0  0  0  0  0  0  0
  1  2  1  0
  2  3  2  0
  2  4  1  0
  4  5  2  0
  5  6  1  0
  6  7  2  0
  7  8  1  0
  8  9  1  0
  9 10  1  0
 10 11  2  0
 10 12  1  0
 12 13  1  0
 13 14  1  0
 14 15  2  0
 15 16  1  0
 16 17  2  0
 17 18  1  0
 17 19  1  0
 19 20  2  0
 12 21  1  0
 21 22  2  0
 21 23  1  0
 23 24  1  0
 24 25  1  0
 25 26  1  0
 26 27  1  0
 27 28  1  0
  7 29  1  0
 29 30  2  0
 30  4  1  0
 28  8  1  0
 23  9  1  0
 28 24  1  0
 20 14  1  0
  1 31  1  0
  1 32  1  0
  3 33  1  0
  3 34  1  0
  5 35  1  0
  6 36  1  0
  8 37  1  6
  9 38  1  6
 13 39  1  0
 13 40  1  0
 15 41  1  0
 16 42  1  0
 19 43  1  0
 20 44  1  0
 23 45  1  6
 24 46  1  1
 25 47  1  0
 25 48  1  0
 26 49  1  0
 26 50  1  0
 27 51  1  0
 27 52  1  0
 28 53  1  1
 29 54  1  0
 30 55  1  0
M  CHG  2   3   1  28   1
M  END
>  <meeko>  (1) 
{"is_sidechain": [false], "free_energy": -10.108, "intermolecular_energy": -12.472, "internal_energy": -0.607}

$$$$
1oyt_ligand
     RDKit          3D

 55 59  0  0  0  0  0  0  0  0999 V2000
   12.6360  -19.0740   18.2650 N   0  0  0  0  0  0  0  0  0  0  0  0
   12.4330  -17.8380   17.8650 C   0  0  0  0  0  0  0  0  0  0  0  0
   12.1340  -17.5750   16.6100 N   0  0  0  0  0  0  0  0  0  0  0  0
   12.5380  -16.7280   18.8330 C   0  0  0  0  0  0  0  0  0  0  0  0
   12.7110  -16.9840   20.1980 C   0  0  0  0  0  0  0  0  0  0  0  0
   12.8350  -15.9340   21.1180 C   0  0  0  0  0  0  0  0  0  0  0  0
   12.7890  -14.5880   20.7070 C   0  0  0  0  0  0  0  0  0  0  0  0
   12.9910  -13.5030   21.7630 C   0  0  1  0  0  0  0  0  0  0  0  0
   14.3850  -12.8900   21.8960 C   0  0  1  0  0  0  0  0  0  0  0  0
   15.4760  -13.6910   21.2490 C   0  0  0  0  0  0  0  0  0  0  0  0
   15.8750  -14.7610   21.6800 O   0  0  0  0  0  0  0  0  0  0  0  0
   15.8250  -13.0800   20.0800 N   0  0  0  0  0  0  0  0  0  0  0  0
   16.7800  -13.6320   19.1380 C   0  0  0  0  0  0  0  0  0  0  0  0
   18.1630  -13.0980   19.4160 C   0  0  0  0  0  0  0  0  0  0  0  0
   18.7390  -13.2440   20.6880 C   0  0  0  0  0  0  0  0  0  0  0  0
   20.0040  -12.7190   20.9530 C   0  0  0  0  0  0  0  0  0  0  0  0
   20.6920  -12.0430   19.9510 C   0  0  0  0  0  0  0  0  0  0  0  0
   21.9030  -11.5370   20.2090 F   0  0  0  0  0  0  0  0  0  0  0  0
   20.1360  -11.8820   18.6890 C   0  0  0  0  0  0  0  0  0  0  0  0
   18.8710  -12.4040   18.4190 C   0  0  0  0  0  0  0  0  0  0  0  0
   15.0560  -11.9840   19.8210 C   0  0  0  0  0  0  0  0  0  0  0  0
   14.8880  -11.4230   18.7540 O   0  0  0  0  0  0  0  0  0  0  0  0
   14.3660  -11.5990   21.0960 C   0  0  1  0  0  0  0  0  0  0  0  0
   12.9180  -11.1840   20.8910 C   0  0  2  0  0  0  0  0  0  0  0  0
   12.5150   -9.9280   21.6560 C   0  0  0  0  0  0  0  0  0  0  0  0
   12.2200  -10.4220   23.0570 C   0  0  0  0  0  0  0  0  0  0  0  0
   11.4590  -11.7090   22.8160 C   0  0  0  0  0  0  0  0  0  0  0  0
   12.0840  -12.2950   21.5530 N   0  0  2  0  0  0  0  0  0  0  0  0
   12.6070  -14.3350   19.3390 C   0  0  0  0  0  0  0  0  0  0  0  0
   12.4820  -15.3890   18.4180 C   0  0  0  0  0  0  0  0  0  0  0  0
   12.5730  -19.8650   17.6360 H   0  0  0  0  0  0  0  0  0  0  0  0
   12.9000  -19.2740   19.2230 H   0  0  0  0  0  0  0  0  0  0  0  0
   12.0510  -18.2970   15.9050 H   0  0  0  0  0  0  0  0  0  0  0  0
   11.9570  -16.6220   16.3060 H   0  0  0  0  0  0  0  0  0  0  0  0
   12.7502  -18.0241   20.5539 H   0  0  0  0  0  0  0  0  0  0  0  0
   12.9712  -16.1665   22.1845 H   0  0  0  0  0  0  0  0  0  0  0  0
   12.7660  -14.0902   22.6655 H   0  0  0  0  0  0  0  0  0  0  0  0
   14.5883  -12.8024   22.9735 H   0  0  0  0  0  0  0  0  0  0  0  0
   16.7892  -14.7280   19.2317 H   0  0  0  0  0  0  0  0  0  0  0  0
   16.4841  -13.3418   18.1191 H   0  0  0  0  0  0  0  0  0  0  0  0
   18.1901  -13.7750   21.4796 H   0  0  0  0  0  0  0  0  0  0  0  0
   20.4549  -12.8390   21.9491 H   0  0  0  0  0  0  0  0  0  0  0  0
   20.6907  -11.3451   17.9054 H   0  0  0  0  0  0  0  0  0  0  0  0
   18.4255  -12.2722   17.4219 H   0  0  0  0  0  0  0  0  0  0  0  0
   14.8616  -10.7384   21.5690 H   0  0  0  0  0  0  0  0  0  0  0  0
   12.7704  -11.0112   19.8147 H   0  0  0  0  0  0  0  0  0  0  0  0
   13.3369   -9.1970   21.6655 H   0  0  0  0  0  0  0  0  0  0  0  0
   11.6542   -9.4165   21.2006 H   0  0  0  0  0  0  0  0  0  0  0  0
   13.1502  -10.6117   23.6126 H   0  0  0  0  0  0  0  0  0  0  0  0
   11.6582   -9.6950   23.6618 H   0  0  0  0  0  0  0  0  0  0  0  0
   11.5814  -12.3974   23.6652 H   0  0  0  0  0  0  0  0  0  0  0  0
   10.3776  -11.5400   22.7065 H   0  0  0  0  0  0  0  0  0  0  0  0
   11.3000  -12.5630   20.9400 H   0  0  0  0  0  0  0  0  0  0  0  0
   12.5615  -13.2956   18.9819 H   0  0  0  0  0  0  0  0  0  0  0  0
   12.3376  -15.1599   17.3519 H   0  0  0  0  0  0  0  0  0  0  0  0
  1  2  1  0
  2  3  2  0
  2  4  1  0
  4  5  2  0
  5  6  1  0
  6  7  2  0
  7  8  1  0
  8  9  1  0
  9 10  1  0
 10 11  2  0
 10 12  1  0
 12 13  1  0
 13 14  1  0
 14 15  2  0
 15 16  1  0
 16 17  2  0
 17 18  1  0
 17 19  1  0
 19 20  2  0
 12 21  1  0
 21 22  2  0
 21 23  1  0
 23 24  1  0
 24 25  1  0
 25 26  1  0
 26 27  1  0
 27 28  1  0
  7 29  1  0
 29 30  2  0
 30  4  1  0
 28  8  1  0
 23  9  1  0
 28 24  1  0
 20 14  1  0
  1 31  1  0
  1 32  1  0
  3 33  1  0
  3 34  1  0
  5 35  1  0
  6 36  1  0
  8 37  1  1
  9 38  1  1
 13 39  1  0
 13 40  1  0
 15 41  1  0
 16 42  1  0
 19 43  1  0
 20 44  1  0
 23 45  1  1
 24 46  1  6
 25 47  1  0
 25 48  1  0
 26 49  1  0
 26 50  1  0
 27 51  1  0
 27 52  1  0
 28 53  1  6
 29 54  1  0
 30 55  1  0
M  CHG  2   3   1  28   1
M  END
>  <meeko>  (2) 
{"is_sidechain": [false], "free_energy": -9.099, "intermolecular_energy": -11.065, "internal_energy": -0.768}

$$$$
1oyt_ligand
     RDKit          3D

 55 59  0  0  0  0  0  0  0  0999 V2000
   12.5300   -8.8510   23.8630 N   0  0  0  0  0  0  0  0  0  0  0  0
   11.8970   -9.9400   23.4860 C   0  0  0  0  0  0  0  0  0  0  0  0
   10.7920  -10.3230   24.0900 N   0  0  0  0  0  0  0  0  0  0  0  0
   12.4280  -10.7450   22.3670 C   0  0  0  0  0  0  0  0  0  0  0  0
   12.6730  -12.1140   22.5240 C   0  0  0  0  0  0  0  0  0  0  0  0
   13.1530  -12.8860   21.4580 C   0  0  0  0  0  0  0  0  0  0  0  0
   13.4080  -12.3180   20.1950 C   0  0  0  0  0  0  0  0  0  0  0  0
   13.8750  -13.2380   19.0690 C   0  0  1  0  0  0  0  0  0  0  0  0
   15.3790  -13.3650   18.8300 C   0  0  1  0  0  0  0  0  0  0  0  0
   16.1980  -12.2810   19.4650 C   0  0  0  0  0  0  0  0  0  0  0  0
   16.2060  -11.1250   19.0780 O   0  0  0  0  0  0  0  0  0  0  0  0
   16.8010  -12.7920   20.5780 N   0  0  0  0  0  0  0  0  0  0  0  0
   17.5920  -12.0000   21.5010 C   0  0  0  0  0  0  0  0  0  0  0  0
   18.7770  -12.7920   21.9940 C   0  0  0  0  0  0  0  0  0  0  0  0
   18.8740  -13.1580   23.3470 C   0  0  0  0  0  0  0  0  0  0  0  0
   19.9870  -13.8610   23.8080 C   0  0  0  0  0  0  0  0  0  0  0  0
   21.0060  -14.1930   22.9220 C   0  0  0  0  0  0  0  0  0  0  0  0
   22.0750  -14.8630   23.3680 F   0  0  0  0  0  0  0  0  0  0  0  0
   20.9330  -13.8330   21.5830 C   0  0  0  0  0  0  0  0  0  0  0  0
   19.8220  -13.1290   21.1170 C   0  0  0  0  0  0  0  0  0  0  0  0
   16.4400  -14.0870   20.8110 C   0  0  0  0  0  0  0  0  0  0  0  0
   16.5320  -14.7130   21.8500 O   0  0  0  0  0  0  0  0  0  0  0  0
   15.8260  -14.6240   19.5520 C   0  0  1  0  0  0  0  0  0  0  0  0
   14.6020  -15.4900   19.8070 C   0  0  2  0  0  0  0  0  0  0  0  0
   14.5710  -16.7770   18.9910 C   0  0  0  0  0  0  0  0  0  0  0  0
   14.0410  -16.3510   17.6380 C   0  0  0  0  0  0  0  0  0  0  0  0
   12.9270  -15.3870   17.9930 C   0  0  0  0  0  0  0  0  0  0  0  0
   13.4160  -14.6810   19.2540 N   0  0  2  0  0  0  0  0  0  0  0  0
   13.1700  -10.9440   20.0440 C   0  0  0  0  0  0  0  0  0  0  0  0
   12.6890  -10.1710   21.1140 C   0  0  0  0  0  0  0  0  0  0  0  0
   12.2020   -8.2690   24.6230 H   0  0  0  0  0  0  0  0  0  0  0  0
   13.3990   -8.5750   23.4200 H   0  0  0  0  0  0  0  0  0  0  0  0
   10.3860   -9.8090   24.8620 H   0  0  0  0  0  0  0  0  0  0  0  0
   10.2920  -11.1520   23.7840 H   0  0  0  0  0  0  0  0  0  0  0  0
   12.4861  -12.5903   23.4977 H   0  0  0  0  0  0  0  0  0  0  0  0
   13.3348  -13.9600   21.6111 H   0  0  0  0  0  0  0  0  0  0  0  0
   13.4157  -12.7190   18.2148 H   0  0  0  0  0  0  0  0  0  0  0  0
   15.5274  -13.3411   17.7403 H   0  0  0  0  0  0  0  0  0  0  0  0
   17.9494  -11.0952   20.9876 H   0  0  0  0  0  0  0  0  0  0  0  0
   16.9649  -11.7244   22.3617 H   0  0  0  0  0  0  0  0  0  0  0  0
   18.0684  -12.8889   24.0460 H   0  0  0  0  0  0  0  0  0  0  0  0
   20.0583  -14.1512   24.8666 H   0  0  0  0  0  0  0  0  0  0  0  0
   21.7467  -14.1014   20.8932 H   0  0  0  0  0  0  0  0  0  0  0  0
   19.7639  -12.8365   20.0582 H   0  0  0  0  0  0  0  0  0  0  0  0
   16.5368  -15.2604   19.0044 H   0  0  0  0  0  0  0  0  0  0  0  0
   14.5884  -15.7428   20.8775 H   0  0  0  0  0  0  0  0  0  0  0  0
   15.5808  -17.2031   18.8972 H   0  0  0  0  0  0  0  0  0  0  0  0
   13.9506  -17.5557   19.4587 H   0  0  0  0  0  0  0  0  0  0  0  0
   14.8227  -15.8509   17.0474 H   0  0  0  0  0  0  0  0  0  0  0  0
   13.7012  -17.1961   17.0212 H   0  0  0  0  0  0  0  0  0  0  0  0
   12.7661  -14.6633   17.1804 H   0  0  0  0  0  0  0  0  0  0  0  0
   11.9659  -15.8991   18.1478 H   0  0  0  0  0  0  0  0  0  0  0  0
   12.6310  -14.7040   19.9210 H   0  0  0  0  0  0  0  0  0  0  0  0
   13.3629  -10.4644   19.0730 H   0  0  0  0  0  0  0  0  0  0  0  0
   12.5137   -9.0951   20.9664 H   0  0  0  0  0  0  0  0  0  0  0  0
  1  2  1  0
  2  3  2  0
  2  4  1  0
  4  5  2  0
  5  6  1  0
  6  7  2  0
  7  8  1  0
  8  9  1  0
  9 10  1  0
 10 11  2  0
 10 12  1  0
 12 13  1  0
 13 14  1  0
 14 15  2  0
 15 16  1  0
 16 17  2  0
 17 18  1  0
 17 19  1  0
 19 20  2  0
 12 21  1  0
 21 22  2  0
 21 23  1  0
 23 24  1  0
 24 25  1  0
 25 26  1  0
 26 27  1  0
 27 28  1  0
  7 29  1  0
 29 30  2  0
 30  4  1  0
 28  8  1  0
 23  9  1  0
 28 24  1  0
 20 14  1  0
  1 31  1  0
  1 32  1  0
  3 33  1  0
  3 34  1  0
  5 35  1  0
  6 36  1  0
  8 37  1  6
  9 38  1  6
 13 39  1  0
 13 40  1  0
 15 41  1  0
 16 42  1  0
 19 43  1  0
 20 44  1  0
 23 45  1  6
 24 46  1  1
 25 47  1  0
 25 48  1  0
 26 49  1  0
 26 50  1  0
 27 51  1  0
 27 52  1  0
 28 53  1  1
 29 54  1  0
 30 55  1  0
M  CHG  2   3   1  28   1
M  END
>  <meeko>  (3) 
{"is_sidechain": [false], "free_energy": -9.041, "intermolecular_energy": -11.419, "internal_energy": -0.344}

$$$$
1oyt_ligand
     RDKit          3D

 55 59  0  0  0  0  0  0  0  0999 V2000
   16.9000  -10.4400   16.3230 N   0  0  0  0  0  0  0  0  0  0  0  0
   17.6880  -11.4280   16.6880 C   0  0  0  0  0  0  0  0  0  0  0  0
   18.9140  -11.5220   16.2180 N   0  0  0  0  0  0  0  0  0  0  0  0
   17.1960  -12.4420   17.6410 C   0  0  0  0  0  0  0  0  0  0  0  0
   17.7940  -12.5930   18.8980 C   0  0  0  0  0  0  0  0  0  0  0  0
   17.3140  -13.5380   19.8150 C   0  0  0  0  0  0  0  0  0  0  0  0
   16.2210  -14.3690   19.5090 C   0  0  0  0  0  0  0  0  0  0  0  0
   15.7220  -15.3330   20.5840 C   0  0  1  0  0  0  0  0  0  0  0  0
   14.5980  -14.8550   21.5030 C   0  0  1  0  0  0  0  0  0  0  0  0
   14.3850  -13.3690   21.4960 C   0  0  0  0  0  0  0  0  0  0  0  0
   15.1650  -12.5730   21.9900 O   0  0  0  0  0  0  0  0  0  0  0  0
   13.2700  -13.0970   20.7580 N   0  0  0  0  0  0  0  0  0  0  0  0
   12.8190  -11.7530   20.4490 C   0  0  0  0  0  0  0  0  0  0  0  0
   12.4510  -11.0170   21.7140 C   0  0  0  0  0  0  0  0  0  0  0  0
   13.0010   -9.7540   21.9860 C   0  0  0  0  0  0  0  0  0  0  0  0
   12.6870   -9.0900   23.1730 C   0  0  0  0  0  0  0  0  0  0  0  0
   11.8300   -9.6890   24.0890 C   0  0  0  0  0  0  0  0  0  0  0  0
   11.5340   -9.0520   25.2290 F   0  0  0  0  0  0  0  0  0  0  0  0
   11.2830  -10.9410   23.8420 C   0  0  0  0  0  0  0  0  0  0  0  0
   11.5940  -11.6090   22.6570 C   0  0  0  0  0  0  0  0  0  0  0  0
   12.7290  -14.2210   20.2070 C   0  0  0  0  0  0  0  0  0  0  0  0
   11.9580  -14.2970   19.2690 O   0  0  0  0  0  0  0  0  0  0  0  0
   13.3060  -15.4050   20.9250 C   0  0  1  0  0  0  0  0  0  0  0  0
   13.6500  -16.5580   19.9960 C   0  0  2  0  0  0  0  0  0  0  0  0
   13.2130  -17.9250   20.5130 C   0  0  0  0  0  0  0  0  0  0  0  0
   14.3060  -18.3240   21.4830 C   0  0  0  0  0  0  0  0  0  0  0  0
   15.5730  -17.9050   20.7670 C   0  0  0  0  0  0  0  0  0  0  0  0
   15.1860  -16.6390   20.0090 N   0  0  2  0  0  0  0  0  0  0  0  0
   15.6290  -14.2230   18.2460 C   0  0  0  0  0  0  0  0  0  0  0  0
   16.1110  -13.2740   17.3270 C   0  0  0  0  0  0  0  0  0  0  0  0
   17.1960   -9.7220   15.6740 H   0  0  0  0  0  0  0  0  0  0  0  0
   15.9450  -10.3850   16.6580 H   0  0  0  0  0  0  0  0  0  0  0  0
   19.3010  -10.8550   15.5620 H   0  0  0  0  0  0  0  0  0  0  0  0
   19.5290  -12.2740   16.5170 H   0  0  0  0  0  0  0  0  0  0  0  0
   18.6525  -11.9611   19.1696 H   0  0  0  0  0  0  0  0  0  0  0  0
   17.8029  -13.6320   20.7959 H   0  0  0  0  0  0  0  0  0  0  0  0
   16.6480  -15.4389   21.1682 H   0  0  0  0  0  0  0  0  0  0  0  0
   14.8633  -15.1797   22.5200 H   0  0  0  0  0  0  0  0  0  0  0  0
   13.6255  -11.2094   19.9351 H   0  0  0  0  0  0  0  0  0  0  0  0
   11.9319  -11.8147   19.8015 H   0  0  0  0  0  0  0  0  0  0  0  0
   13.6824   -9.2857   21.2604 H   0  0  0  0  0  0  0  0  0  0  0  0
   13.1152   -8.0986   23.3823 H   0  0  0  0  0  0  0  0  0  0  0  0
   10.6079  -11.4040   24.5767 H   0  0  0  0  0  0  0  0  0  0  0  0
   11.1664  -12.6032   22.4603 H   0  0  0  0  0  0  0  0  0  0  0  0
   12.5916  -15.8104   21.6566 H   0  0  0  0  0  0  0  0  0  0  0  0
   13.1603  -16.3662   19.0299 H   0  0  0  0  0  0  0  0  0  0  0  0
   12.2425  -17.8557   21.0262 H   0  0  0  0  0  0  0  0  0  0  0  0
   13.0805  -18.6582   19.7037 H   0  0  0  0  0  0  0  0  0  0  0  0
   14.1986  -17.7912   22.4393 H   0  0  0  0  0  0  0  0  0  0  0  0
   14.2877  -19.3940   21.7375 H   0  0  0  0  0  0  0  0  0  0  0  0
   16.3758  -17.6951   21.4891 H   0  0  0  0  0  0  0  0  0  0  0  0
   15.9540  -18.6913   20.0987 H   0  0  0  0  0  0  0  0  0  0  0  0
   15.5420  -16.7580   19.0490 H   0  0  0  0  0  0  0  0  0  0  0  0
   14.7755  -14.8599   17.9704 H   0  0  0  0  0  0  0  0  0  0  0  0
   15.6280  -13.1823   16.3430 H   0  0  0  0  0  0  0  0  0  0  0  0
  1  2  1  0
  2  3  2  0
  2  4  1  0
  4  5  2  0
  5  6  1  0
  6  7  2  0
  7  8  1  0
  8  9  1  0
  9 10  1  0
 10 11  2  0
 10 12  1  0
 12 13  1  0
 13 14  1  0
 14 15  2  0
 15 16  1  0
 16 17  2  0
 17 18  1  0
 17 19  1  0
 19 20  2  0
 12 21  1  0
 21 22  2  0
 21 23  1  0
 23 24  1  0
 24 25  1  0
 25 26  1  0
 26 27  1  0
 27 28  1  0
  7 29  1  0
 29 30  2  0
 30  4  1  0
 28  8  1  0
 23  9  1  0
 28 24  1  0
 20 14  1  0
  1 31  1  0
  1 32  1  0
  3 33  1  0
  3 34  1  0
  5 35  1  0
  6 36  1  0
  8 37  1  1
  9 38  1  1
 13 39  1  0
 13 40  1  0
 15 41  1  0
 16 42  1  0
 19 43  1  0
 20 44  1  0
 23 45  1  1
 24 46  1  6
 25 47  1  0
 25 48  1  0
 26 49  1  0
 26 50  1  0
 27 51  1  0
 27 52  1  0
 28 53  1  6
 29 54  1  0
 30 55  1  0
M  CHG  2   3   1  28   1
M  END
>  <meeko>  (4) 
{"is_sidechain": [false], "free_energy": -8.993, "intermolecular_energy": -10.952, "internal_energy": -0.751}

$$$$
1oyt_ligand
     RDKit          3D

 55 59  0  0  0  0  0  0  0  0999 V2000
   12.7920  -16.6440   16.9760 N   0  0  0  0  0  0  0  0  0  0  0  0
   13.8330  -16.8650   17.7490 C   0  0  0  0  0  0  0  0  0  0  0  0
   14.0420  -18.0510   18.2780 N   0  0  0  0  0  0  0  0  0  0  0  0
   14.7850  -15.7700   18.0240 C   0  0  0  0  0  0  0  0  0  0  0  0
   15.6980  -15.8640   19.0810 C   0  0  0  0  0  0  0  0  0  0  0  0
   16.6200  -14.8390   19.3300 C   0  0  0  0  0  0  0  0  0  0  0  0
   16.6610  -13.6790   18.5340 C   0  0  0  0  0  0  0  0  0  0  0  0
   17.7340  -12.6330   18.8340 C   0  0  1  0  0  0  0  0  0  0  0  0
   17.3760  -11.5030   19.7990 C   0  0  1  0  0  0  0  0  0  0  0  0
   15.9030  -11.3330   20.0310 C   0  0  0  0  0  0  0  0  0  0  0  0
   15.1320  -10.8980   19.1910 O   0  0  0  0  0  0  0  0  0  0  0  0
   15.5970  -11.8500   21.2560 N   0  0  0  0  0  0  0  0  0  0  0  0
   14.2450  -11.9520   21.7710 C   0  0  0  0  0  0  0  0  0  0  0  0
   13.5930  -13.2250   21.2930 C   0  0  0  0  0  0  0  0  0  0  0  0
   12.7230  -13.2080   20.1900 C   0  0  0  0  0  0  0  0  0  0  0  0
   12.0940  -14.3800   19.7700 C   0  0  0  0  0  0  0  0  0  0  0  0
   12.3280  -15.5680   20.4540 C   0  0  0  0  0  0  0  0  0  0  0  0
   11.7200  -16.6910   20.0520 F   0  0  0  0  0  0  0  0  0  0  0  0
   13.1780  -15.6050   21.5520 C   0  0  0  0  0  0  0  0  0  0  0  0
   13.8080  -14.4350   21.9760 C   0  0  0  0  0  0  0  0  0  0  0  0
   16.6810  -12.4100   21.8640 C   0  0  0  0  0  0  0  0  0  0  0  0
   16.6940  -13.2140   22.7790 O   0  0  0  0  0  0  0  0  0  0  0  0
   17.9090  -11.9120   21.1600 C   0  0  1  0  0  0  0  0  0  0  0  0
   18.9610  -12.9910   20.9580 C   0  0  2  0  0  0  0  0  0  0  0  0
   20.3810  -12.5430   21.2830 C   0  0  0  0  0  0  0  0  0  0  0  0
   20.8360  -11.8060   20.0400 C   0  0  0  0  0  0  0  0  0  0  0  0
   20.3150  -12.6760   18.9150 C   0  0  0  0  0  0  0  0  0  0  0  0
   18.9970  -13.2360   19.4390 N   0  0  2  0  0  0  0  0  0  0  0  0
   15.7390  -13.5820   17.4810 C   0  0  0  0  0  0  0  0  0  0  0  0
   14.8150  -14.6120   17.2320 C   0  0  0  0  0  0  0  0  0  0  0  0
   12.1150  -17.3650   16.7590 H   0  0  0  0  0  0  0  0  0  0  0  0
   12.6120  -15.7220   16.5960 H   0  0  0  0  0  0  0  0  0  0  0  0
   13.4210  -18.8360   18.1230 H   0  0  0  0  0  0  0  0  0  0  0  0
   14.8580  -18.2260   18.8570 H   0  0  0  0  0  0  0  0  0  0  0  0
   15.6914  -16.7555   19.7253 H   0  0  0  0  0  0  0  0  0  0  0  0
   17.3274  -14.9431   20.1659 H   0  0  0  0  0  0  0  0  0  0  0  0
   17.8652  -12.2191   17.8233 H   0  0  0  0  0  0  0  0  0  0  0  0
   17.7849  -10.5784   19.3654 H   0  0  0  0  0  0  0  0  0  0  0  0
   14.2754  -11.9515   22.8706 H   0  0  0  0  0  0  0  0  0  0  0  0
   13.6600  -11.0942   21.4077 H   0  0  0  0  0  0  0  0  0  0  0  0
   12.5368  -12.2653   19.6547 H   0  0  0  0  0  0  0  0  0  0  0  0
   11.4171  -14.3647   18.9031 H   0  0  0  0  0  0  0  0  0  0  0  0
   13.3533  -16.5516   22.0841 H   0  0  0  0  0  0  0  0  0  0  0  0
   14.4765  -14.4591   22.8492 H   0  0  0  0  0  0  0  0  0  0  0  0
   18.4015  -11.1160   21.7378 H   0  0  0  0  0  0  0  0  0  0  0  0
   18.6959  -13.8414   21.6034 H   0  0  0  0  0  0  0  0  0  0  0  0
   20.3882  -11.8746   22.1566 H   0  0  0  0  0  0  0  0  0  0  0  0
   21.0400  -13.3868   21.5356 H   0  0  0  0  0  0  0  0  0  0  0  0
   20.3972  -10.7983   19.9956 H   0  0  0  0  0  0  0  0  0  0  0  0
   21.9249  -11.6549   20.0011 H   0  0  0  0  0  0  0  0  0  0  0  0
   20.1489  -12.0779   18.0069 H   0  0  0  0  0  0  0  0  0  0  0  0
   21.0248  -13.4699   18.6392 H   0  0  0  0  0  0  0  0  0  0  0  0
   19.0160  -14.2480   19.2440 H   0  0  0  0  0  0  0  0  0  0  0  0
   15.7390  -12.6873   16.8411 H   0  0  0  0  0  0  0  0  0  0  0  0
   14.1022  -14.5082   16.4007 H   0  0  0  0  0  0  0  0  0  0  0  0
  1  2  1  0
  2  3  2  0
  2  4  1  0
  4  5  2  0
  5  6  1  0
  6  7  2  0
  7  8  1  0
  8  9  1  0
  9 10  1  0
 10 11  2  0
 10 12  1  0
 12 13  1  0
 13 14  1  0
 14 15  2  0
 15 16  1  0
 16 17  2  0
 17 18  1  0
 17 19  1  0
 19 20  2  0
 12 21  1  0
 21 22  2  0
 21 23  1  0
 23 24  1  0
 24 25  1  0
 25 26  1  0
 26 27  1  0
 27 28  1  0
  7 29  1  0
 29 30  2  0
 30  4  1  0
 28  8  1  0
 23  9  1  0
 28 24  1  0
 20 14  1  0
  1 31  1  0
  1 32  1  0
  3 33  1  0
  3 34  1  0
  5 35  1  0
  6 36  1  0
  8 37  1  6
  9 38  1  6
 13 39  1  0
 13 40  1  0
 15 41  1  0
 16 42  1  0
 19 43  1  0
 20 44  1  0
 23 45  1  1
 24 46  1  1
 25 47  1  0
 25 48  1  0
 26 49  1  0
 26 50  1  0
 27 51  1  0
 27 52  1  0
 28 53  1  1
 29 54  1  0
 30 55  1  0
M  CHG  2   3   1  28   1
M  END
>  <meeko>  (5) 
{"is_sidechain": [false], "free_energy": -8.911, "intermolecular_energy": -9.504, "internal_energy": -2.098}

$$$$
1oyt_ligand
     RDKit          3D

 55 59  0  0  0  0  0  0  0  0999 V2000
   20.7780  -13.9720   22.5530 N   0  0  0  0  0  0  0  0  0  0  0  0
   20.2050  -14.8300   21.7370 C   0  0  0  0  0  0  0  0  0  0  0  0
   20.9270  -15.6340   20.9870 N   0  0  0  0  0  0  0  0  0  0  0  0
   18.7310  -14.8970   21.6640 C   0  0  0  0  0  0  0  0  0  0  0  0
   18.0950  -15.4620   20.5520 C   0  0  0  0  0  0  0  0  0  0  0  0
   16.6980  -15.5500   20.4900 C   0  0  0  0  0  0  0  0  0  0  0  0
   15.8840  -15.0730   21.5340 C   0  0  0  0  0  0  0  0  0  0  0  0
   14.3730  -15.2580   21.4150 C   0  0  1  0  0  0  0  0  0  0  0  0
   13.5410  -14.0580   20.9640 C   0  0  1  0  0  0  0  0  0  0  0  0
   14.2520  -12.7410   21.0670 C   0  0  0  0  0  0  0  0  0  0  0  0
   14.5160  -12.1960   22.1250 O   0  0  0  0  0  0  0  0  0  0  0  0
   14.6350  -12.3590   19.8140 N   0  0  0  0  0  0  0  0  0  0  0  0
   15.4390  -11.1820   19.5420 C   0  0  0  0  0  0  0  0  0  0  0  0
   16.9080  -11.5250   19.5880 C   0  0  0  0  0  0  0  0  0  0  0  0
   17.6690  -11.2350   20.7330 C   0  0  0  0  0  0  0  0  0  0  0  0
   19.0350  -11.5220   20.7610 C   0  0  0  0  0  0  0  0  0  0  0  0
   19.6410  -12.0910   19.6460 C   0  0  0  0  0  0  0  0  0  0  0  0
   20.9510  -12.3610   19.6740 F   0  0  0  0  0  0  0  0  0  0  0  0
   18.9060  -12.3780   18.5030 C   0  0  0  0  0  0  0  0  0  0  0  0
   17.5410  -12.0930   18.4700 C   0  0  0  0  0  0  0  0  0  0  0  0
   14.3210  -13.2940   18.8710 C   0  0  0  0  0  0  0  0  0  0  0  0
   14.7890  -13.4160   17.7540 O   0  0  0  0  0  0  0  0  0  0  0  0
   13.3130  -14.2280   19.4720 C   0  0  1  0  0  0  0  0  0  0  0  0
   13.5600  -15.6850   19.1130 C   0  0  2  0  0  0  0  0  0  0  0  0
   12.3030  -16.4480   18.7100 C   0  0  0  0  0  0  0  0  0  0  0  0
   11.6630  -16.8360   20.0270 C   0  0  0  0  0  0  0  0  0  0  0  0
   12.8440  -17.2680   20.8700 C   0  0  0  0  0  0  0  0  0  0  0  0
   13.9850  -16.3560   20.4300 N   0  0  2  0  0  0  0  0  0  0  0  0
   16.5240  -14.4980   22.6420 C   0  0  0  0  0  0  0  0  0  0  0  0
   17.9250  -14.4100   22.7040 C   0  0  0  0  0  0  0  0  0  0  0  0
   21.7840  -13.8930   22.6370 H   0  0  0  0  0  0  0  0  0  0  0  0
   20.2230  -13.3290   23.1060 H   0  0  0  0  0  0  0  0  0  0  0  0
   21.9390  -15.6290   20.9970 H   0  0  0  0  0  0  0  0  0  0  0  0
   20.4820  -16.3110   20.3730 H   0  0  0  0  0  0  0  0  0  0  0  0
   18.7002  -15.8419   19.7157 H   0  0  0  0  0  0  0  0  0  0  0  0
   16.2268  -16.0023   19.6049 H   0  0  0  0  0  0  0  0  0  0  0  0
   14.1407  -15.4851   22.4659 H   0  0  0  0  0  0  0  0  0  0  0  0
   12.6453  -14.0381   21.6022 H   0  0  0  0  0  0  0  0  0  0  0  0
   15.1884  -10.7950   18.5433 H   0  0  0  0  0  0  0  0  0  0  0  0
   15.2266  -10.4207   20.3071 H   0  0  0  0  0  0  0  0  0  0  0  0
   17.1866  -10.7801   21.6107 H   0  0  0  0  0  0  0  0  0  0  0  0
   19.6286  -11.2993   21.6599 H   0  0  0  0  0  0  0  0  0  0  0  0
   19.3980  -12.8279   17.6280 H   0  0  0  0  0  0  0  0  0  0  0  0
   16.9574  -12.3141   17.5642 H   0  0  0  0  0  0  0  0  0  0  0  0
   12.2981  -13.9977   19.1158 H   0  0  0  0  0  0  0  0  0  0  0  0
   14.2762  -15.7065   18.2784 H   0  0  0  0  0  0  0  0  0  0  0  0
   11.6291  -15.8066   18.1232 H   0  0  0  0  0  0  0  0  0  0  0  0
   12.5251  -17.3200   18.0774 H   0  0  0  0  0  0  0  0  0  0  0  0
   11.1458  -15.9785   20.4822 H   0  0  0  0  0  0  0  0  0  0  0  0
   10.8982  -17.6195   19.9213 H   0  0  0  0  0  0  0  0  0  0  0  0
   12.6281  -17.1313   21.9399 H   0  0  0  0  0  0  0  0  0  0  0  0
   13.0854  -18.3327   20.7354 H   0  0  0  0  0  0  0  0  0  0  0  0
   14.7990  -16.9690   20.2690 H   0  0  0  0  0  0  0  0  0  0  0  0
   15.9197  -14.1100   23.4752 H   0  0  0  0  0  0  0  0  0  0  0  0
   18.3986  -13.9508   23.5842 H   0  0  0  0  0  0  0  0  0  0  0  0
  1  2  1  0
  2  3  2  0
  2  4  1  0
  4  5  2  0
  5  6  1  0
  6  7  2  0
  7  8  1  0
  8  9  1  0
  9 10  1  0
 10 11  2  0
 10 12  1  0
 12 13  1  0
 13 14  1  0
 14 15  2  0
 15 16  1  0
 16 17  2  0
 17 18  1  0
 17 19  1  0
 19 20  2  0
 12 21  1  0
 21 22  2  0
 21 23  1  0
 23 24  1  0
 24 25  1  0
 25 26  1  0
 26 27  1  0
 27 28  1  0
  7 29  1  0
 29 30  2  0
 30  4  1  0
 28  8  1  0
 23  9  1  0
 28 24  1  0
 20 14  1  0
  1 31  1  0
  1 32  1  0
  3 33  1  0
  3 34  1  0
  5 35  1  0
  6 36  1  0
  8 37  1  1
  9 38  1  1
 13 39  1  0
 13 40  1  0
 15 41  1  0
 16 42  1  0
 19 43  1  0
 20 44  1  0
 23 45  1  1
 24 46  1  6
 25 47  1  0
 25 48  1  0
 26 49  1  0
 26 50  1  0
 27 51  1  0
 27 52  1  0
 28 53  1  6
 29 54  1  0
 30 55  1  0
M  CHG  2   3   1  28   1
M  END
>  <meeko>  (6) 
{"is_sidechain": [false], "free_energy": -8.863, "intermolecular_energy": -9.505, "internal_energy": -2.038}

$$$$
1oyt_ligand
     RDKit          3D

 55 59  0  0  0  0  0  0  0  0999 V2000
   20.1760  -14.6590   23.4190 N   0  0  0  0  0  0  0  0  0  0  0  0
   19.9180  -14.6050   22.1310 C   0  0  0  0  0  0  0  0  0  0  0  0
   20.7430  -15.1370   21.2540 N   0  0  0  0  0  0  0  0  0  0  0  0
   18.6850  -13.9440   21.6580 C   0  0  0  0  0  0  0  0  0  0  0  0
   17.6160  -13.7150   22.5330 C   0  0  0  0  0  0  0  0  0  0  0  0
   16.4540  -13.0660   22.0940 C   0  0  0  0  0  0  0  0  0  0  0  0
   16.3160  -12.6240   20.7650 C   0  0  0  0  0  0  0  0  0  0  0  0
   15.0430  -11.8730   20.3820 C   0  0  1  0  0  0  0  0  0  0  0  0
   13.9100  -12.6730   19.7380 C   0  0  1  0  0  0  0  0  0  0  0  0
   14.3270  -14.0120   19.2050 C   0  0  0  0  0  0  0  0  0  0  0  0
   15.0290  -14.1580   18.2180 O   0  0  0  0  0  0  0  0  0  0  0  0
   13.8920  -14.9740   20.0690 N   0  0  0  0  0  0  0  0  0  0  0  0
   14.2040  -16.3840   19.9270 C   0  0  0  0  0  0  0  0  0  0  0  0
   15.4500  -16.7290   20.7040 C   0  0  0  0  0  0  0  0  0  0  0  0
   16.6800  -16.8830   20.0430 C   0  0  0  0  0  0  0  0  0  0  0  0
   17.8250  -17.2360   20.7580 C   0  0  0  0  0  0  0  0  0  0  0  0
   17.7410  -17.4410   22.1310 C   0  0  0  0  0  0  0  0  0  0  0  0
   18.8400  -17.7840   22.8140 F   0  0  0  0  0  0  0  0  0  0  0  0
   16.5330  -17.3010   22.8010 C   0  0  0  0  0  0  0  0  0  0  0  0
   15.3860  -16.9490   22.0900 C   0  0  0  0  0  0  0  0  0  0  0  0
   13.2780  -14.4430   21.1650 C   0  0  0  0  0  0  0  0  0  0  0  0
   13.0720  -14.9780   22.2400 O   0  0  0  0  0  0  0  0  0  0  0  0
   12.9380  -13.0160   20.8520 C   0  0  1  0  0  0  0  0  0  0  0  0
   13.1910  -12.0720   22.0170 C   0  0  2  0  0  0  0  0  0  0  0  0
   12.0690  -11.0690   22.2600 C   0  0  0  0  0  0  0  0  0  0  0  0
   12.3280   -9.9670   21.2540 C   0  0  0  0  0  0  0  0  0  0  0  0
   13.8310   -9.7910   21.3150 C   0  0  0  0  0  0  0  0  0  0  0  0
   14.3730  -11.1940   21.5720 N   0  0  2  0  0  0  0  0  0  0  0  0
   17.3850  -12.8630   19.8890 C   0  0  0  0  0  0  0  0  0  0  0  0
   18.5500  -13.5140   20.3300 C   0  0  0  0  0  0  0  0  0  0  0  0
   21.0080  -15.1040   23.7880 H   0  0  0  0  0  0  0  0  0  0  0  0
   19.5580  -14.2210   24.0930 H   0  0  0  0  0  0  0  0  0  0  0  0
   21.6020  -15.6000   21.5230 H   0  0  0  0  0  0  0  0  0  0  0  0
   20.5330  -15.1130   20.2600 H   0  0  0  0  0  0  0  0  0  0  0  0
   17.6892  -14.0489   23.5786 H   0  0  0  0  0  0  0  0  0  0  0  0
   15.6311  -12.8983   22.8044 H   0  0  0  0  0  0  0  0  0  0  0  0
   15.4647  -11.1795   19.6396 H   0  0  0  0  0  0  0  0  0  0  0  0
   13.5197  -12.0590   18.9130 H   0  0  0  0  0  0  0  0  0  0  0  0
   13.3625  -16.9813   20.3080 H   0  0  0  0  0  0  0  0  0  0  0  0
   14.3747  -16.6057   18.8632 H   0  0  0  0  0  0  0  0  0  0  0  0
   16.7407  -16.7245   18.9562 H   0  0  0  0  0  0  0  0  0  0  0  0
   18.7880  -17.3514   20.2390 H   0  0  0  0  0  0  0  0  0  0  0  0
   16.4809  -17.4669   23.8872 H   0  0  0  0  0  0  0  0  0  0  0  0
   14.4264  -16.8431   22.6171 H   0  0  0  0  0  0  0  0  0  0  0  0
   11.8719  -12.9081   20.6036 H   0  0  0  0  0  0  0  0  0  0  0  0
   13.3260  -12.6849   22.9204 H   0  0  0  0  0  0  0  0  0  0  0  0
   11.0870  -11.5330   22.0856 H   0  0  0  0  0  0  0  0  0  0  0  0
   12.0539  -10.6979   23.2954 H   0  0  0  0  0  0  0  0  0  0  0  0
   12.0065  -10.2690   20.2463 H   0  0  0  0  0  0  0  0  0  0  0  0
   11.7754   -9.0419   21.4749 H   0  0  0  0  0  0  0  0  0  0  0  0
   14.2145   -9.3949   20.3631 H   0  0  0  0  0  0  0  0  0  0  0  0
   14.1360   -9.0769   22.0941 H   0  0  0  0  0  0  0  0  0  0  0  0
   15.0560  -11.1040   22.3390 H   0  0  0  0  0  0  0  0  0  0  0  0
   17.3105  -12.5361   18.8413 H   0  0  0  0  0  0  0  0  0  0  0  0
   19.3716  -13.6896   19.6199 H   0  0  0  0  0  0  0  0  0  0  0  0
  1  2  1  0
  2  3  2  0
  2  4  1  0
  4  5  2  0
  5  6  1  0
  6  7  2  0
  7  8  1  0
  8  9  1  0
  9 10  1  0
 10 11  2  0
 10 12  1  0
 12 13  1  0
 13 14  1  0
 14 15  2  0
 15 16  1  0
 16 17  2  0
 17 18  1  0
 17 19  1  0
 19 20  2  0
 12 21  1  0
 21 22  2  0
 21 23  1  0
 23 24  1  0
 24 25  1  0
 25 26  1  0
 26 27  1  0
 27 28  1  0
  7 29  1  0
 29 30  2  0
 30  4  1  0
 28  8  1  0
 23  9  1  0
 28 24  1  0
 20 14  1  0
  1 31  1  0
  1 32  1  0
  3 33  1  0
  3 34  1  0
  5 35  1  0
  6 36  1  0
  8 37  1  6
  9 38  1  6
 13 39  1  0
 13 40  1  0
 15 41  1  0
 16 42  1  0
 19 43  1  0
 20 44  1  0
 23 45  1  6
 24 46  1  1
 25 47  1  0
 25 48  1  0
 26 49  1  0
 26 50  1  0
 27 51  1  0
 27 52  1  0
 28 53  1  1
 29 54  1  0
 30 55  1  0
M  CHG  2   3   1  28   1
M  END
>  <meeko>  (7) 
{"is_sidechain": [false], "free_energy": -8.82, "intermolecular_energy": -9.455, "internal_energy": -2.035}

$$$$
1oyt_ligand
     RDKit          3D

 55 59  0  0  0  0  0  0  0  0999 V2000
   21.2920  -13.4130   22.2790 N   0  0  0  0  0  0  0  0  0  0  0  0
   20.3580  -14.0370   21.5950 C   0  0  0  0  0  0  0  0  0  0  0  0
   20.5700  -15.2400   21.1030 N   0  0  0  0  0  0  0  0  0  0  0  0
   19.0510  -13.3850   21.3780 C   0  0  0  0  0  0  0  0  0  0  0  0
   18.8840  -12.4400   20.3580 C   0  0  0  0  0  0  0  0  0  0  0  0
   17.6390  -11.8380   20.1330 C   0  0  0  0  0  0  0  0  0  0  0  0
   16.5160  -12.1540   20.9200 C   0  0  0  0  0  0  0  0  0  0  0  0
   15.1810  -11.4970   20.5730 C   0  0  1  0  0  0  0  0  0  0  0  0
   14.1960  -12.2940   19.7190 C   0  0  1  0  0  0  0  0  0  0  0  0
   14.8050  -13.4620   19.0020 C   0  0  0  0  0  0  0  0  0  0  0  0
   15.5730  -13.3510   18.0600 O   0  0  0  0  0  0  0  0  0  0  0  0
   14.4470  -14.6050   19.6560 N   0  0  0  0  0  0  0  0  0  0  0  0
   14.9400  -15.9230   19.3010 C   0  0  0  0  0  0  0  0  0  0  0  0
   13.8080  -16.7960   18.8190 C   0  0  0  0  0  0  0  0  0  0  0  0
   13.0420  -16.4160   17.7050 C   0  0  0  0  0  0  0  0  0  0  0  0
   11.9740  -17.2080   17.2820 C   0  0  0  0  0  0  0  0  0  0  0  0
   11.6670  -18.3750   17.9720 C   0  0  0  0  0  0  0  0  0  0  0  0
   10.6400  -19.1300   17.5670 F   0  0  0  0  0  0  0  0  0  0  0  0
   12.4080  -18.7640   19.0810 C   0  0  0  0  0  0  0  0  0  0  0  0
   13.4760  -17.9750   19.5090 C   0  0  0  0  0  0  0  0  0  0  0  0
   13.7120  -14.3490   20.7750 C   0  0  0  0  0  0  0  0  0  0  0  0
   13.5150  -15.0840   21.7250 O   0  0  0  0  0  0  0  0  0  0  0  0
   13.2130  -12.9370   20.6820 C   0  0  1  0  0  0  0  0  0  0  0  0
   13.2820  -12.1910   22.0050 C   0  0  2  0  0  0  0  0  0  0  0  0
   12.0310  -11.3810   22.3270 C   0  0  0  0  0  0  0  0  0  0  0  0
   12.2060  -10.0960   21.5440 C   0  0  0  0  0  0  0  0  0  0  0  0
   13.6690   -9.7640   21.7490 C   0  0  0  0  0  0  0  0  0  0  0  0
   14.3670  -11.1190   21.8060 N   0  0  2  0  0  0  0  0  0  0  0  0
   16.6890  -13.0940   21.9470 C   0  0  0  0  0  0  0  0  0  0  0  0
   17.9380  -13.6980   22.1720 C   0  0  0  0  0  0  0  0  0  0  0  0
   22.2020  -13.8230   22.4530 H   0  0  0  0  0  0  0  0  0  0  0  0
   21.1410  -12.4740   22.6280 H   0  0  0  0  0  0  0  0  0  0  0  0
   21.4470  -15.7310   21.2220 H   0  0  0  0  0  0  0  0  0  0  0  0
   19.8410  -15.7300   20.5940 H   0  0  0  0  0  0  0  0  0  0  0  0
   19.7414  -12.1668   19.7253 H   0  0  0  0  0  0  0  0  0  0  0  0
   17.5370  -11.1014   19.3225 H   0  0  0  0  0  0  0  0  0  0  0  0
   15.5521  -10.6397   19.9923 H   0  0  0  0  0  0  0  0  0  0  0  0
   13.7797  -11.5919   18.9816 H   0  0  0  0  0  0  0  0  0  0  0  0
   15.6890  -15.8264   18.5012 H   0  0  0  0  0  0  0  0  0  0  0  0
   15.3935  -16.3856   20.1900 H   0  0  0  0  0  0  0  0  0  0  0  0
   13.2851  -15.4899   17.1635 H   0  0  0  0  0  0  0  0  0  0  0  0
   11.3779  -16.9103   16.4068 H   0  0  0  0  0  0  0  0  0  0  0  0
   12.1539  -19.6893   19.6188 H   0  0  0  0  0  0  0  0  0  0  0  0
   14.0610  -18.2768   20.3903 H   0  0  0  0  0  0  0  0  0  0  0  0
   12.1571  -12.9091   20.3749 H   0  0  0  0  0  0  0  0  0  0  0  0
   13.4437  -12.9343   22.7996 H   0  0  0  0  0  0  0  0  0  0  0  0
   11.1262  -11.9154   22.0018 H   0  0  0  0  0  0  0  0  0  0  0  0
   11.9114  -11.2030   23.4059 H   0  0  0  0  0  0  0  0  0  0  0  0
   11.9818  -10.2497   20.4781 H   0  0  0  0  0  0  0  0  0  0  0  0
   11.5305   -9.2933   21.8748 H   0  0  0  0  0  0  0  0  0  0  0  0
   14.0524   -9.1647   20.9100 H   0  0  0  0  0  0  0  0  0  0  0  0
   13.8382   -9.1691   22.6587 H   0  0  0  0  0  0  0  0  0  0  0  0
   14.9900  -11.0890   22.6270 H   0  0  0  0  0  0  0  0  0  0  0  0
   15.8345  -13.3623   22.5856 H   0  0  0  0  0  0  0  0  0  0  0  0
   18.0446  -14.4300   22.9861 H   0  0  0  0  0  0  0  0  0  0  0  0
  1  2  1  0
  2  3  2  0
  2  4  1  0
  4  5  2  0
  5  6  1  0
  6  7  2  0
  7  8  1  0
  8  9  1  0
  9 10  1  0
 10 11  2  0
 10 12  1  0
 12 13  1  0
 13 14  1  0
 14 15  2  0
 15 16  1  0
 16 17  2  0
 17 18  1  0
 17 19  1  0
 19 20  2  0
 12 21  1  0
 21 22  2  0
 21 23  1  0
 23 24  1  0
 24 25  1  0
 25 26  1  0
 26 27  1  0
 27 28  1  0
  7 29  1  0
 29 30  2  0
 30  4  1  0
 28  8  1  0
 23  9  1  0
 28 24  1  0
 20 14  1  0
  1 31  1  0
  1 32  1  0
  3 33  1  0
  3 34  1  0
  5 35  1  0
  6 36  1  0
  8 37  1  6
  9 38  1  6
 13 39  1  0
 13 40  1  0
 15 41  1  0
 16 42  1  0
 19 43  1  0
 20 44  1  0
 23 45  1  6
 24 46  1  1
 25 47  1  0
 25 48  1  0
 26 49  1  0
 26 50  1  0
 27 51  1  0
 27 52  1  0
 28 53  1  1
 29 54  1  0
 30 55  1  0
M  CHG  2   3   1  28   1
M  END
>  <meeko>  (8) 
{"is_sidechain": [false], "free_energy": -8.77, "intermolecular_energy": -10.475, "internal_energy": -0.953}

$$$$
1oyt_ligand
     RDKit          3D

 55 59  0  0  0  0  0  0  0  0999 V2000
   13.9410  -18.4560   18.2240 N   0  0  0  0  0  0  0  0  0  0  0  0
   13.6500  -17.2890   17.6940 C   0  0  0  0  0  0  0  0  0  0  0  0
   12.5820  -17.1370   16.9400 N   0  0  0  0  0  0  0  0  0  0  0  0
   14.5290  -16.1300   17.9490 C   0  0  0  0  0  0  0  0  0  0  0  0
   15.1660  -15.9730   19.1850 C   0  0  0  0  0  0  0  0  0  0  0  0
   16.0210  -14.8880   19.4220 C   0  0  0  0  0  0  0  0  0  0  0  0
   16.2680  -13.9180   18.4340 C   0  0  0  0  0  0  0  0  0  0  0  0
   17.2580  -12.7980   18.7510 C   0  0  1  0  0  0  0  0  0  0  0  0
   16.7170  -11.5430   19.4360 C   0  0  1  0  0  0  0  0  0  0  0  0
   15.2260  -11.3950   19.3640 C   0  0  0  0  0  0  0  0  0  0  0  0
   14.6220  -11.1280   18.3380 O   0  0  0  0  0  0  0  0  0  0  0  0
   14.7000  -11.7220   20.5800 N   0  0  0  0  0  0  0  0  0  0  0  0
   13.2760  -11.7920   20.8490 C   0  0  0  0  0  0  0  0  0  0  0  0
   12.9050  -10.8480   21.9660 C   0  0  0  0  0  0  0  0  0  0  0  0
   11.9420  -11.2190   22.9190 C   0  0  0  0  0  0  0  0  0  0  0  0
   11.5740  -10.3320   23.9310 C   0  0  0  0  0  0  0  0  0  0  0  0
   12.1630   -9.0730   23.9890 C   0  0  0  0  0  0  0  0  0  0  0  0
   11.8060   -8.2230   24.9590 F   0  0  0  0  0  0  0  0  0  0  0  0
   13.1110   -8.6850   23.0520 C   0  0  0  0  0  0  0  0  0  0  0  0
   13.4810   -9.5690   22.0380 C   0  0  0  0  0  0  0  0  0  0  0  0
   15.6560  -12.1370   21.4600 C   0  0  0  0  0  0  0  0  0  0  0  0
   15.5040  -12.7850   22.4800 O   0  0  0  0  0  0  0  0  0  0  0  0
   16.9900  -11.7110   20.9210 C   0  0  1  0  0  0  0  0  0  0  0  0
   18.0700  -12.7680   21.0930 C   0  0  2  0  0  0  0  0  0  0  0  0
   19.4010  -12.2200   21.5960 C   0  0  0  0  0  0  0  0  0  0  0  0
   20.0730  -11.6730   20.3540 C   0  0  0  0  0  0  0  0  0  0  0  0
   19.7790  -12.7290   19.3080 C   0  0  0  0  0  0  0  0  0  0  0  0
   18.3900  -13.2490   19.6670 N   0  0  2  0  0  0  0  0  0  0  0  0
   15.6210  -14.0720   17.1990 C   0  0  0  0  0  0  0  0  0  0  0  0
   14.7640  -15.1610   16.9620 C   0  0  0  0  0  0  0  0  0  0  0  0
   13.3660  -19.2770   18.0780 H   0  0  0  0  0  0  0  0  0  0  0  0
   14.7820  -18.5820   18.7770 H   0  0  0  0  0  0  0  0  0  0  0  0
   11.9470  -17.8970   16.7330 H   0  0  0  0  0  0  0  0  0  0  0  0
   12.3470  -16.2290   16.5480 H   0  0  0  0  0  0  0  0  0  0  0  0
   14.9933  -16.7115   19.9818 H   0  0  0  0  0  0  0  0  0  0  0  0
   16.5098  -14.7930   20.4028 H   0  0  0  0  0  0  0  0  0  0  0  0
   17.5731  -12.5453   17.7279 H   0  0  0  0  0  0  0  0  0  0  0  0
   17.1918  -10.6839   18.9395 H   0  0  0  0  0  0  0  0  0  0  0  0
   12.7214  -11.5144   19.9405 H   0  0  0  0  0  0  0  0  0  0  0  0
   13.0195  -12.8187   21.1493 H   0  0  0  0  0  0  0  0  0  0  0  0
   11.4757  -12.2139   22.8671 H   0  0  0  0  0  0  0  0  0  0  0  0
   10.8227  -10.6263   24.6786 H   0  0  0  0  0  0  0  0  0  0  0  0
   13.5680   -7.6860   23.1087 H   0  0  0  0  0  0  0  0  0  0  0  0
   14.2279   -9.2626   21.2908 H   0  0  0  0  0  0  0  0  0  0  0  0
   17.3598  -10.8156   21.4420 H   0  0  0  0  0  0  0  0  0  0  0  0
   17.6964  -13.5154   21.8084 H   0  0  0  0  0  0  0  0  0  0  0  0
   19.2394  -11.4218   22.3354 H   0  0  0  0  0  0  0  0  0  0  0  0
   20.0081  -12.9867   22.0996 H   0  0  0  0  0  0  0  0  0  0  0  0
   19.6417  -10.7026   20.0670 H   0  0  0  0  0  0  0  0  0  0  0  0
   21.1488  -11.4891   20.4910 H   0  0  0  0  0  0  0  0  0  0  0  0
   19.7803  -12.2884   18.3001 H   0  0  0  0  0  0  0  0  0  0  0  0
   20.5344  -13.5285   19.2981 H   0  0  0  0  0  0  0  0  0  0  0  0
   18.4530  -14.2780   19.6470 H   0  0  0  0  0  0  0  0  0  0  0  0
   15.7866  -13.3298   16.4042 H   0  0  0  0  0  0  0  0  0  0  0  0
   14.2685  -15.2551   15.9845 H   0  0  0  0  0  0  0  0  0  0  0  0
  1  2  1  0
  2  3  2  0
  2  4  1  0
  4  5  2  0
  5  6  1  0
  6  7  2  0
  7  8  1  0
  8  9  1  0
  9 10  1  0
 10 11  2  0
 10 12  1  0
 12 13  1  0
 13 14  1  0
 14 15  2  0
 15 16  1  0
 16 17  2  0
 17 18  1  0
 17 19  1  0
 19 20  2  0
 12 21  1  0
 21 22  2  0
 21 23  1  0
 23 24  1  0
 24 25  1  0
 25 26  1  0
 26 27  1  0
 27 28  1  0
  7 29  1  0
 29 30  2  0
 30  4  1  0
 28  8  1  0
 23  9  1  0
 28 24  1  0
 20 14  1  0
  1 31  1  0
  1 32  1  0
  3 33  1  0
  3 34  1  0
  5 35  1  0
  6 36  1  0
  8 37  1  6
  9 38  1  6
 13 39  1  0
 13 40  1  0
 15 41  1  0
 16 42  1  0
 19 43  1  0
 20 44  1  0
 23 45  1  1
 24 46  1  1
 25 47  1  0
 25 48  1  0
 26 49  1  0
 26 50  1  0
 27 51  1  0
 27 52  1  0
 28 53  1  1
 29 54  1  0
 30 55  1  0
M  CHG  2   3   1  28   1
M  END
>  <meeko>  (9) 
{"is_sidechain": [false], "free_energy": -8.49, "intermolecular_energy": -10.346, "internal_energy": -0.737}

$$$$
