4hge_ligand
     RDKit          3D

 38 41  0  0  0  0  0  0  0  0999 V2000
   51.6760    9.2550    4.1450 C   0  0  0  0  0  0  0  0  0  0  0  0
   53.0600    9.0200    3.6710 C   0  0  0  0  0  0  0  0  0  0  0  0
   54.2570    9.5340    4.2050 C   0  0  0  0  0  0  0  0  0  0  0  0
   55.2620    9.0900    3.3700 C   0  0  0  0  0  0  0  0  0  0  0  0
   56.6070    9.4450    3.3080 N   0  0  0  0  0  0  0  0  0  0  0  0
   57.5890    8.8720    4.1070 C   0  0  0  0  0  0  0  0  0  0  0  0
   57.4030    7.9620    4.9060 O   0  0  0  0  0  0  0  0  0  0  0  0
   58.9060    9.4570    3.8970 C   0  0  0  0  0  0  0  0  0  0  0  0
   59.8020    9.2850    2.8190 C   0  0  0  0  0  0  0  0  0  0  0  0
   60.9340    9.9740    2.9520 N   0  0  0  0  0  0  0  0  0  0  0  0
   60.8090   10.5900    4.1510 N   0  0  0  0  0  0  0  0  0  0  0  0
   61.7350   11.4230    4.7740 C   0  0  0  0  0  0  0  0  0  0  0  0
   61.4610   11.9730    5.9640 C   0  0  0  0  0  0  0  0  0  0  0  0
   60.1240   11.6290    6.5210 C   0  0  0  0  0  0  0  0  0  0  0  0
   59.2370   10.8610    5.9660 N   0  0  0  0  0  0  0  0  0  0  0  0
   59.5780   10.3110    4.7570 C   0  0  0  0  0  0  0  0  0  0  0  0
   54.6390    8.1940    2.4940 N   0  0  0  0  0  0  0  0  0  0  0  0
   55.2180    7.2600    1.5850 C   0  0  0  0  0  0  0  0  0  0  0  0
   56.1950    6.3650    2.0550 C   0  0  0  0  0  0  0  0  0  0  0  0
   56.7780    5.4350    1.1900 C   0  0  0  0  0  0  0  0  0  0  0  0
   56.4060    5.4030   -0.1520 C   0  0  0  0  0  0  0  0  0  0  0  0
   55.4640    6.3130   -0.6280 C   0  0  0  0  0  0  0  0  0  0  0  0
   55.0270    6.2990   -2.2930 Cl  0  0  0  0  0  0  0  0  0  0  0  0
   54.8750    7.2470    0.2280 C   0  0  0  0  0  0  0  0  0  0  0  0
   53.2850    8.2710    2.5900 N   0  0  0  0  0  0  0  0  0  0  0  0
   51.6606    9.2576    5.2449 H   0  0  0  0  0  0  0  0  0  0  0  0
   51.3203   10.2264    3.7710 H   0  0  0  0  0  0  0  0  0  0  0  0
   51.0196    8.4555    3.7710 H   0  0  0  0  0  0  0  0  0  0  0  0
   54.3682   10.1602    5.1025 H   0  0  0  0  0  0  0  0  0  0  0  0
   56.8510   10.2670    2.7730 H   0  0  0  0  0  0  0  0  0  0  0  0
   59.5856    8.6432    1.9522 H   0  0  0  0  0  0  0  0  0  0  0  0
   62.6983   11.6307    4.2852 H   0  0  0  0  0  0  0  0  0  0  0  0
   62.1701   12.6292    6.4899 H   0  0  0  0  0  0  0  0  0  0  0  0
   59.8630   12.0674    7.4955 H   0  0  0  0  0  0  0  0  0  0  0  0
   56.5026    6.3970    3.1106 H   0  0  0  0  0  0  0  0  0  0  0  0
   57.5308    4.7281    1.5690 H   0  0  0  0  0  0  0  0  0  0  0  0
   56.8534    4.6634   -0.8324 H   0  0  0  0  0  0  0  0  0  0  0  0
   54.1440    7.9699   -0.1632 H   0  0  0  0  0  0  0  0  0  0  0  0
  1  2  1  0
  2  3  1  0
  3  4  2  0
  4  5  1  0
  5  6  1  0
  6  7  2  0
  6  8  1  0
  8  9  1  0
  9 10  2  0
 10 11  1  0
 11 12  1  0
 12 13  2  0
 13 14  1  0
 14 15  2  0
 15 16  1  0
  4 17  1  0
 17 18  1  0
 18 19  2  0
 19 20  1  0
 20 21  2  0
 21 22  1  0
 22 23  1  0
 22 24  2  0
 17 25  1  0
 25  2  2  0
 16  8  2  0
 24 18  1  0
 16 11  1  0
  1 26  1  0
  1 27  1  0
  1 28  1  0
  3 29  1  0
  5 30  1  0
  9 31  1  0
 12 32  1  0
 13 33  1  0
 14 34  1  0
 19 35  1  0
 20 36  1  0
 21 37  1  0
 24 38  1  0
M  END
>  <meeko>  (1) 
{"is_sidechain": [false], "free_energy": -9.175, "intermolecular_energy": -10.784, "internal_energy": -0.773}

$$$$
4hge_ligand
     RDKit          3D

 38 41  0  0  0  0  0  0  0  0999 V2000
   53.3780    9.4160    6.7970 C   0  0  0  0  0  0  0  0  0  0  0  0
   54.6200    9.4280    5.9870 C   0  0  0  0  0  0  0  0  0  0  0  0
   55.9320    9.7000    6.4190 C   0  0  0  0  0  0  0  0  0  0  0  0
   56.7150    9.6650    5.2830 C   0  0  0  0  0  0  0  0  0  0  0  0
   58.0420   10.0420    5.0890 N   0  0  0  0  0  0  0  0  0  0  0  0
   58.7920   10.7250    6.0390 C   0  0  0  0  0  0  0  0  0  0  0  0
   58.4020   11.0190    7.1630 O   0  0  0  0  0  0  0  0  0  0  0  0
   60.1300   11.0600    5.5740 C   0  0  0  0  0  0  0  0  0  0  0  0
   61.1240   11.8470    6.1960 C   0  0  0  0  0  0  0  0  0  0  0  0
   62.2440   11.9510    5.4830 N   0  0  0  0  0  0  0  0  0  0  0  0
   61.9850   11.2520    4.3530 N   0  0  0  0  0  0  0  0  0  0  0  0
   62.8300   11.0650    3.2620 C   0  0  0  0  0  0  0  0  0  0  0  0
   62.4340   10.3300    2.2150 C   0  0  0  0  0  0  0  0  0  0  0  0
   61.0670    9.7530    2.3350 C   0  0  0  0  0  0  0  0  0  0  0  0
   60.2570    9.9040    3.3370 N   0  0  0  0  0  0  0  0  0  0  0  0
   60.7070   10.6800    4.3740 C   0  0  0  0  0  0  0  0  0  0  0  0
   55.8680    9.2020    4.2700 N   0  0  0  0  0  0  0  0  0  0  0  0
   56.1870    8.7430    2.9580 C   0  0  0  0  0  0  0  0  0  0  0  0
   56.4440    9.6850    1.9470 C   0  0  0  0  0  0  0  0  0  0  0  0
   56.7640    9.2660    0.6530 C   0  0  0  0  0  0  0  0  0  0  0  0
   56.8100    7.9060    0.3520 C   0  0  0  0  0  0  0  0  0  0  0  0
   56.5210    6.9710    1.3430 C   0  0  0  0  0  0  0  0  0  0  0  0
   56.5440    5.2920    0.9670 Cl  0  0  0  0  0  0  0  0  0  0  0  0
   56.1990    7.3790    2.6410 C   0  0  0  0  0  0  0  0  0  0  0  0
   54.5710    9.2020    4.6730 N   0  0  0  0  0  0  0  0  0  0  0  0
   53.6374    9.4185    7.8660 H   0  0  0  0  0  0  0  0  0  0  0  0
   52.7790   10.3084    6.5629 H   0  0  0  0  0  0  0  0  0  0  0  0
   52.7963    8.5122    6.5629 H   0  0  0  0  0  0  0  0  0  0  0  0
   56.2642    9.8991    7.4486 H   0  0  0  0  0  0  0  0  0  0  0  0
   58.4220    9.9570    4.1560 H   0  0  0  0  0  0  0  0  0  0  0  0
   60.9863   12.3281    7.1756 H   0  0  0  0  0  0  0  0  0  0  0  0
   63.8296   11.5242    3.2602 H   0  0  0  0  0  0  0  0  0  0  0  0
   63.0705   10.1651    1.3332 H   0  0  0  0  0  0  0  0  0  0  0  0
   60.7098    9.1404    1.4941 H   0  0  0  0  0  0  0  0  0  0  0  0
   56.3929   10.7597    2.1761 H   0  0  0  0  0  0  0  0  0  0  0  0
   56.9797   10.0097   -0.1283 H   0  0  0  0  0  0  0  0  0  0  0  0
   57.0731    7.5728   -0.6628 H   0  0  0  0  0  0  0  0  0  0  0  0
   55.9560    6.6313    3.4104 H   0  0  0  0  0  0  0  0  0  0  0  0
  1  2  1  0
  2  3  1  0
  3  4  2  0
  4  5  1  0
  5  6  1  0
  6  7  2  0
  6  8  1  0
  8  9  1  0
  9 10  2  0
 10 11  1  0
 11 12  1  0
 12 13  2  0
 13 14  1  0
 14 15  2  0
 15 16  1  0
  4 17  1  0
 17 18  1  0
 18 19  2  0
 19 20  1  0
 20 21  2  0
 21 22  1  0
 22 23  1  0
 22 24  2  0
 17 25  1  0
 25  2  2  0
 16  8  2  0
 24 18  1  0
 16 11  1  0
  1 26  1  0
  1 27  1  0
  1 28  1  0
  3 29  1  0
  5 30  1  0
  9 31  1  0
 12 32  1  0
 13 33  1  0
 14 34  1  0
 19 35  1  0
 20 36  1  0
 21 37  1  0
 24 38  1  0
M  END
>  <meeko>  (2) 
{"is_sidechain": [false], "free_energy": -9.119, "intermolecular_energy": -10.935, "internal_energy": -0.556}

$$$$
4hge_ligand
     RDKit          3D

 38 41  0  0  0  0  0  0  0  0999 V2000
   56.8260   11.3430    9.5090 C   0  0  0  0  0  0  0  0  0  0  0  0
   57.1770   11.0760    8.0940 C   0  0  0  0  0  0  0  0  0  0  0  0
   56.3050   10.8150    7.0200 C   0  0  0  0  0  0  0  0  0  0  0  0
   57.1150   10.5570    5.9330 C   0  0  0  0  0  0  0  0  0  0  0  0
   56.8000   10.0590    4.6700 N   0  0  0  0  0  0  0  0  0  0  0  0
   56.9710    8.7300    4.3060 C   0  0  0  0  0  0  0  0  0  0  0  0
   57.3560    7.8390    5.0550 O   0  0  0  0  0  0  0  0  0  0  0  0
   56.6290    8.4730    2.9150 C   0  0  0  0  0  0  0  0  0  0  0  0
   57.4700    8.4040    1.7820 C   0  0  0  0  0  0  0  0  0  0  0  0
   56.8180    8.1510    0.6490 N   0  0  0  0  0  0  0  0  0  0  0  0
   55.5180    8.0820    1.0210 N   0  0  0  0  0  0  0  0  0  0  0  0
   54.4150    7.8550    0.2030 C   0  0  0  0  0  0  0  0  0  0  0  0
   53.1820    7.8000    0.7240 C   0  0  0  0  0  0  0  0  0  0  0  0
   53.1160    7.9870    2.1990 C   0  0  0  0  0  0  0  0  0  0  0  0
   54.1240    8.1970    2.9910 N   0  0  0  0  0  0  0  0  0  0  0  0
   55.3600    8.2600    2.4010 C   0  0  0  0  0  0  0  0  0  0  0  0
   58.4130   10.8500    6.3670 N   0  0  0  0  0  0  0  0  0  0  0  0
   59.6120   10.9990    5.6100 C   0  0  0  0  0  0  0  0  0  0  0  0
   60.5450   11.9780    5.9920 C   0  0  0  0  0  0  0  0  0  0  0  0
   61.7310   12.1450    5.2730 C   0  0  0  0  0  0  0  0  0  0  0  0
   61.9880   11.3510    4.1570 C   0  0  0  0  0  0  0  0  0  0  0  0
   61.0480   10.4040    3.7550 C   0  0  0  0  0  0  0  0  0  0  0  0
   61.3450    9.4450    2.3570 Cl  0  0  0  0  0  0  0  0  0  0  0  0
   59.8580   10.2290    4.4660 C   0  0  0  0  0  0  0  0  0  0  0  0
   58.4550   11.0220    7.7140 N   0  0  0  0  0  0  0  0  0  0  0  0
   57.5272   10.8096   10.1676 H   0  0  0  0  0  0  0  0  0  0  0  0
   56.8889   12.4236    9.7048 H   0  0  0  0  0  0  0  0  0  0  0  0
   55.8014   10.9939    9.7048 H   0  0  0  0  0  0  0  0  0  0  0  0
   55.2052   10.8164    7.0426 H   0  0  0  0  0  0  0  0  0  0  0  0
   56.5910   10.7280    3.9420 H   0  0  0  0  0  0  0  0  0  0  0  0
   58.5597    8.5458    1.8311 H   0  0  0  0  0  0  0  0  0  0  0  0
   54.5568    7.7197   -0.8794 H   0  0  0  0  0  0  0  0  0  0  0  0
   52.2865    7.6296    0.1084 H   0  0  0  0  0  0  0  0  0  0  0  0
   52.1193    7.9432    2.6624 H   0  0  0  0  0  0  0  0  0  0  0  0
   60.3400   12.6173    6.8633 H   0  0  0  0  0  0  0  0  0  0  0  0
   62.4625   12.9037    5.5880 H   0  0  0  0  0  0  0  0  0  0  0  0
   62.9271   11.4710    3.5968 H   0  0  0  0  0  0  0  0  0  0  0  0
   59.1171    9.4893    4.1286 H   0  0  0  0  0  0  0  0  0  0  0  0
  1  2  1  0
  2  3  1  0
  3  4  2  0
  4  5  1  0
  5  6  1  0
  6  7  2  0
  6  8  1  0
  8  9  1  0
  9 10  2  0
 10 11  1  0
 11 12  1  0
 12 13  2  0
 13 14  1  0
 14 15  2  0
 15 16  1  0
  4 17  1  0
 17 18  1  0
 18 19  2  0
 19 20  1  0
 20 21  2  0
 21 22  1  0
 22 23  1  0
 22 24  2  0
 17 25  1  0
 25  2  2  0
 16  8  2  0
 24 18  1  0
 16 11  1  0
  1 26  1  0
  1 27  1  0
  1 28  1  0
  3 29  1  0
  5 30  1  0
  9 31  1  0
 12 32  1  0
 13 33  1  0
 14 34  1  0
 19 35  1  0
 20 36  1  0
 21 37  1  0
 24 38  1  0
M  END
>  <meeko>  (3) 
{"is_sidechain": [false], "free_energy": -9.061, "intermolecular_energy": -10.955, "internal_energy": -0.468}

$$$$
4hge_ligand
     RDKit          3D

 38 41  0  0  0  0  0  0  0  0999 V2000
   55.1590    6.8700   -0.3970 C   0  0  0  0  0  0  0  0  0  0  0  0
   55.3270    7.6560    0.8480 C   0  0  0  0  0  0  0  0  0  0  0  0
   56.4000    8.4930    1.2060 C   0  0  0  0  0  0  0  0  0  0  0  0
   56.1250    8.9320    2.4850 C   0  0  0  0  0  0  0  0  0  0  0  0
   56.9230    9.6220    3.3950 N   0  0  0  0  0  0  0  0  0  0  0  0
   57.5960    9.0080    4.4430 C   0  0  0  0  0  0  0  0  0  0  0  0
   57.6170    7.8010    4.6550 O   0  0  0  0  0  0  0  0  0  0  0  0
   58.3120    9.9520    5.2900 C   0  0  0  0  0  0  0  0  0  0  0  0
   57.8840   10.6030    6.4680 C   0  0  0  0  0  0  0  0  0  0  0  0
   58.8010   11.4130    6.9920 N   0  0  0  0  0  0  0  0  0  0  0  0
   59.8470   11.3300    6.1360 N   0  0  0  0  0  0  0  0  0  0  0  0
   61.0620   12.0040    6.2170 C   0  0  0  0  0  0  0  0  0  0  0  0
   62.0120   11.8060    5.2940 C   0  0  0  0  0  0  0  0  0  0  0  0
   61.6560   10.8310    4.2280 C   0  0  0  0  0  0  0  0  0  0  0  0
   60.5360   10.1830    4.1240 N   0  0  0  0  0  0  0  0  0  0  0  0
   59.5940   10.4370    5.0870 C   0  0  0  0  0  0  0  0  0  0  0  0
   54.8270    8.4810    2.7540 N   0  0  0  0  0  0  0  0  0  0  0  0
   53.9420    8.8390    3.8130 C   0  0  0  0  0  0  0  0  0  0  0  0
   54.2530    8.4470    5.1260 C   0  0  0  0  0  0  0  0  0  0  0  0
   53.4080    8.7860    6.1860 C   0  0  0  0  0  0  0  0  0  0  0  0
   52.2370    9.5020    5.9420 C   0  0  0  0  0  0  0  0  0  0  0  0
   51.9090    9.8600    4.6370 C   0  0  0  0  0  0  0  0  0  0  0  0
   50.4460   10.7140    4.3270 Cl  0  0  0  0  0  0  0  0  0  0  0  0
   52.7460    9.5260    3.5690 C   0  0  0  0  0  0  0  0  0  0  0  0
   54.4110    7.5890    1.8170 N   0  0  0  0  0  0  0  0  0  0  0  0
   54.9353    5.8235   -0.1425 H   0  0  0  0  0  0  0  0  0  0  0  0
   54.3302    7.2893   -0.9863 H   0  0  0  0  0  0  0  0  0  0  0  0
   56.0868    6.9138   -0.9863 H   0  0  0  0  0  0  0  0  0  0  0  0
   57.2775    8.7454    0.5925 H   0  0  0  0  0  0  0  0  0  0  0  0
   56.8780   10.6320    3.3850 H   0  0  0  0  0  0  0  0  0  0  0  0
   56.8878   10.4548    6.9103 H   0  0  0  0  0  0  0  0  0  0  0  0
   61.2434   12.7046    7.0454 H   0  0  0  0  0  0  0  0  0  0  0  0
   62.9816   12.3247    5.3219 H   0  0  0  0  0  0  0  0  0  0  0  0
   62.4143   10.6411    3.4541 H   0  0  0  0  0  0  0  0  0  0  0  0
   55.1684    7.8690    5.3209 H   0  0  0  0  0  0  0  0  0  0  0  0
   53.6667    8.4880    7.2128 H   0  0  0  0  0  0  0  0  0  0  0  0
   51.5761    9.7825    6.7754 H   0  0  0  0  0  0  0  0  0  0  0  0
   52.4669    9.8014    2.5413 H   0  0  0  0  0  0  0  0  0  0  0  0
  1  2  1  0
  2  3  1  0
  3  4  2  0
  4  5  1  0
  5  6  1  0
  6  7  2  0
  6  8  1  0
  8  9  1  0
  9 10  2  0
 10 11  1  0
 11 12  1  0
 12 13  2  0
 13 14  1  0
 14 15  2  0
 15 16  1  0
  4 17  1  0
 17 18  1  0
 18 19  2  0
 19 20  1  0
 20 21  2  0
 21 22  1  0
 22 23  1  0
 22 24  2  0
 17 25  1  0
 25  2  2  0
 16  8  2  0
 24 18  1  0
 16 11  1  0
  1 26  1  0
  1 27  1  0
  1 28  1  0
  3 29  1  0
  5 30  1  0
  9 31  1  0
 12 32  1  0
 13 33  1  0
 14 34  1  0
 19 35  1  0
 20 36  1  0
 21 37  1  0
 24 38  1  0
M  END
>  <meeko>  (4) 
{"is_sidechain": [false], "free_energy": -8.817, "intermolecular_energy": -10.336, "internal_energy": -0.801}

$$$$
4hge_ligand
     RDKit          3D

 38 41  0  0  0  0  0  0  0  0999 V2000
   55.9940   11.3530    9.7090 C   0  0  0  0  0  0  0  0  0  0  0  0
   56.1760   10.9670    8.2890 C   0  0  0  0  0  0  0  0  0  0  0  0
   55.1840   10.7860    7.3070 C   0  0  0  0  0  0  0  0  0  0  0  0
   55.8490   10.3560    6.1770 C   0  0  0  0  0  0  0  0  0  0  0  0
   55.3560    9.8480    4.9770 N   0  0  0  0  0  0  0  0  0  0  0  0
   54.2980    8.9500    4.9010 C   0  0  0  0  0  0  0  0  0  0  0  0
   53.6460    8.5500    5.8580 O   0  0  0  0  0  0  0  0  0  0  0  0
   54.0120    8.5220    3.5400 C   0  0  0  0  0  0  0  0  0  0  0  0
   52.7810    8.4940    2.8480 C   0  0  0  0  0  0  0  0  0  0  0  0
   52.8800    8.0350    1.6030 N   0  0  0  0  0  0  0  0  0  0  0  0
   54.1890    7.7200    1.4670 N   0  0  0  0  0  0  0  0  0  0  0  0
   54.8170    7.1770    0.3490 C   0  0  0  0  0  0  0  0  0  0  0  0
   56.1340    6.9300    0.3630 C   0  0  0  0  0  0  0  0  0  0  0  0
   56.8260    7.2880    1.6310 C   0  0  0  0  0  0  0  0  0  0  0  0
   56.2730    7.7980    2.6890 N   0  0  0  0  0  0  0  0  0  0  0  0
   54.9200    8.0130    2.6250 C   0  0  0  0  0  0  0  0  0  0  0  0
   57.2090   10.4720    6.4870 N   0  0  0  0  0  0  0  0  0  0  0  0
   58.3460   10.4020    5.6290 C   0  0  0  0  0  0  0  0  0  0  0  0
   58.2870    9.5950    4.4810 C   0  0  0  0  0  0  0  0  0  0  0  0
   59.3830    9.5080    3.6180 C   0  0  0  0  0  0  0  0  0  0  0  0
   60.5520   10.2110    3.9050 C   0  0  0  0  0  0  0  0  0  0  0  0
   60.6250   10.9840    5.0610 C   0  0  0  0  0  0  0  0  0  0  0  0
   62.0790   11.8260    5.4360 Cl  0  0  0  0  0  0  0  0  0  0  0  0
   59.5360   11.0770    5.9310 C   0  0  0  0  0  0  0  0  0  0  0  0
   57.3940   10.7030    7.8130 N   0  0  0  0  0  0  0  0  0  0  0  0
   56.3726   10.5501   10.3586 H   0  0  0  0  0  0  0  0  0  0  0  0
   56.5496   12.2807    9.9109 H   0  0  0  0  0  0  0  0  0  0  0  0
   54.9248   11.5146    9.9109 H   0  0  0  0  0  0  0  0  0  0  0  0
   54.1024   10.9528    7.4175 H   0  0  0  0  0  0  0  0  0  0  0  0
   55.8960   10.0170    4.1400 H   0  0  0  0  0  0  0  0  0  0  0  0
   51.8308    8.8206    3.2957 H   0  0  0  0  0  0  0  0  0  0  0  0
   54.2280    6.9493   -0.5517 H   0  0  0  0  0  0  0  0  0  0  0  0
   56.6636    6.4955   -0.4977 H   0  0  0  0  0  0  0  0  0  0  0  0
   57.9094    7.1028    1.6760 H   0  0  0  0  0  0  0  0  0  0  0  0
   57.3713    9.0272    4.2594 H   0  0  0  0  0  0  0  0  0  0  0  0
   59.3231    8.8854    2.7132 H   0  0  0  0  0  0  0  0  0  0  0  0
   61.4124   10.1554    3.2219 H   0  0  0  0  0  0  0  0  0  0  0  0
   59.6125   11.6777    6.8493 H   0  0  0  0  0  0  0  0  0  0  0  0
  1  2  1  0
  2  3  1  0
  3  4  2  0
  4  5  1  0
  5  6  1  0
  6  7  2  0
  6  8  1  0
  8  9  1  0
  9 10  2  0
 10 11  1  0
 11 12  1  0
 12 13  2  0
 13 14  1  0
 14 15  2  0
 15 16  1  0
  4 17  1  0
 17 18  1  0
 18 19  2  0
 19 20  1  0
 20 21  2  0
 21 22  1  0
 22 23  1  0
 22 24  2  0
 17 25  1  0
 25  2  2  0
 16  8  2  0
 24 18  1  0
 16 11  1  0
  1 26  1  0
  1 27  1  0
  1 28  1  0
  3 29  1  0
  5 30  1  0
  9 31  1  0
 12 32  1  0
 13 33  1  0
 14 34  1  0
 19 35  1  0
 20 36  1  0
 21 37  1  0
 24 38  1  0
M  END
>  <meeko>  (5) 
{"is_sidechain": [false], "free_energy": -8.785, "intermolecular_energy": -10.738, "internal_energy": -0.361}

$$$$
4hge_ligand
     RDKit          3D

 38 41  0  0  0  0  0  0  0  0999 V2000
   62.4980   11.7420    5.2830 C   0  0  0  0  0  0  0  0  0  0  0  0
   61.1630   11.1170    5.1210 C   0  0  0  0  0  0  0  0  0  0  0  0
   60.7710   10.1430    4.1840 C   0  0  0  0  0  0  0  0  0  0  0  0
   59.4200    9.9490    4.3880 C   0  0  0  0  0  0  0  0  0  0  0  0
   58.4840    9.2480    3.6310 N   0  0  0  0  0  0  0  0  0  0  0  0
   58.2750    9.4670    2.2750 C   0  0  0  0  0  0  0  0  0  0  0  0
   58.9170   10.2470    1.5820 O   0  0  0  0  0  0  0  0  0  0  0  0
   57.2000    8.6530    1.7270 C   0  0  0  0  0  0  0  0  0  0  0  0
   57.2260    7.7420    0.6480 C   0  0  0  0  0  0  0  0  0  0  0  0
   56.0510    7.1650    0.4090 N   0  0  0  0  0  0  0  0  0  0  0  0
   55.2160    7.7210    1.3190 N   0  0  0  0  0  0  0  0  0  0  0  0
   53.8560    7.4730    1.4810 C   0  0  0  0  0  0  0  0  0  0  0  0
   53.1620    8.0970    2.4420 C   0  0  0  0  0  0  0  0  0  0  0  0
   53.9580    9.0300    3.2850 C   0  0  0  0  0  0  0  0  0  0  0  0
   55.2250    9.2810    3.1630 N   0  0  0  0  0  0  0  0  0  0  0  0
   55.8820    8.6280    2.1520 C   0  0  0  0  0  0  0  0  0  0  0  0
   59.1170   10.6780    5.5430 N   0  0  0  0  0  0  0  0  0  0  0  0
   57.9430   10.6510    6.3540 C   0  0  0  0  0  0  0  0  0  0  0  0
   56.7160   10.2980    5.7680 C   0  0  0  0  0  0  0  0  0  0  0  0
   55.5500   10.2580    6.5360 C   0  0  0  0  0  0  0  0  0  0  0  0
   55.5950   10.5900    7.8890 C   0  0  0  0  0  0  0  0  0  0  0  0
   56.8030   10.9750    8.4630 C   0  0  0  0  0  0  0  0  0  0  0  0
   56.8570   11.4190   10.1260 Cl  0  0  0  0  0  0  0  0  0  0  0  0
   57.9760   11.0190    7.7040 C   0  0  0  0  0  0  0  0  0  0  0  0
   60.1430   11.4970    5.8930 N   0  0  0  0  0  0  0  0  0  0  0  0
   62.7255   11.8485    6.3539 H   0  0  0  0  0  0  0  0  0  0  0  0
   63.2602   11.1071    4.8076 H   0  0  0  0  0  0  0  0  0  0  0  0
   62.4986   12.7340    4.8076 H   0  0  0  0  0  0  0  0  0  0  0  0
   61.4093    9.6403    3.4425 H   0  0  0  0  0  0  0  0  0  0  0  0
   57.8190    8.6700    4.1270 H   0  0  0  0  0  0  0  0  0  0  0  0
   58.1317    7.5296    0.0609 H   0  0  0  0  0  0  0  0  0  0  0  0
   53.3477    6.7598    0.8154 H   0  0  0  0  0  0  0  0  0  0  0  0
   52.0854    7.9323    2.5963 H   0  0  0  0  0  0  0  0  0  0  0  0
   53.4212    9.5568    4.0877 H   0  0  0  0  0  0  0  0  0  0  0  0
   56.6732   10.0514    4.6969 H   0  0  0  0  0  0  0  0  0  0  0  0
   54.5963    9.9645    6.0731 H   0  0  0  0  0  0  0  0  0  0  0  0
   54.6810   10.5480    8.4996 H   0  0  0  0  0  0  0  0  0  0  0  0
   58.9209   11.3414    8.1657 H   0  0  0  0  0  0  0  0  0  0  0  0
  1  2  1  0
  2  3  1  0
  3  4  2  0
  4  5  1  0
  5  6  1  0
  6  7  2  0
  6  8  1  0
  8  9  1  0
  9 10  2  0
 10 11  1  0
 11 12  1  0
 12 13  2  0
 13 14  1  0
 14 15  2  0
 15 16  1  0
  4 17  1  0
 17 18  1  0
 18 19  2  0
 19 20  1  0
 20 21  2  0
 21 22  1  0
 22 23  1  0
 22 24  2  0
 17 25  1  0
 25  2  2  0
 16  8  2  0
 24 18  1  0
 16 11  1  0
  1 26  1  0
  1 27  1  0
  1 28  1  0
  3 29  1  0
  5 30  1  0
  9 31  1  0
 12 32  1  0
 13 33  1  0
 14 34  1  0
 19 35  1  0
 20 36  1  0
 21 37  1  0
 24 38  1  0
M  END
>  <meeko>  (6) 
{"is_sidechain": [false], "free_energy": -8.635, "intermolecular_energy": -10.552, "internal_energy": -0.37}

$$$$
4hge_ligand
     RDKit          3D

 38 41  0  0  0  0  0  0  0  0999 V2000
   63.2630   10.7630    2.2730 C   0  0  0  0  0  0  0  0  0  0  0  0
   61.9160   10.3890    2.7670 C   0  0  0  0  0  0  0  0  0  0  0  0
   61.0360    9.4260    2.2390 C   0  0  0  0  0  0  0  0  0  0  0  0
   59.8880    9.5090    3.0000 C   0  0  0  0  0  0  0  0  0  0  0  0
   58.6350    8.9310    2.8090 N   0  0  0  0  0  0  0  0  0  0  0  0
   57.8640    9.1300    1.6700 C   0  0  0  0  0  0  0  0  0  0  0  0
   58.2130    9.7770    0.6900 O   0  0  0  0  0  0  0  0  0  0  0  0
   56.5690    8.4690    1.7380 C   0  0  0  0  0  0  0  0  0  0  0  0
   56.0770    7.3800    0.9850 C   0  0  0  0  0  0  0  0  0  0  0  0
   54.8340    7.0290    1.3060 N   0  0  0  0  0  0  0  0  0  0  0  0
   54.4750    7.9140    2.2650 N   0  0  0  0  0  0  0  0  0  0  0  0
   53.2530    7.9940    2.9280 C   0  0  0  0  0  0  0  0  0  0  0  0
   53.0510    8.9240    3.8710 C   0  0  0  0  0  0  0  0  0  0  0  0
   54.2140    9.8150    4.1320 C   0  0  0  0  0  0  0  0  0  0  0  0
   55.3670    9.7660    3.5360 N   0  0  0  0  0  0  0  0  0  0  0  0
   55.5120    8.8050    2.5680 C   0  0  0  0  0  0  0  0  0  0  0  0
   60.2050   10.3850    4.0440 N   0  0  0  0  0  0  0  0  0  0  0  0
   59.4950   10.6540    5.2520 C   0  0  0  0  0  0  0  0  0  0  0  0
   60.1050   11.4390    6.2440 C   0  0  0  0  0  0  0  0  0  0  0  0
   59.4340   11.7240    7.4350 C   0  0  0  0  0  0  0  0  0  0  0  0
   58.1560   11.2110    7.6550 C   0  0  0  0  0  0  0  0  0  0  0  0
   57.5630   10.4030    6.6880 C   0  0  0  0  0  0  0  0  0  0  0  0
   56.0000    9.7400    6.9700 Cl  0  0  0  0  0  0  0  0  0  0  0  0
   58.2260   10.1110    5.4930 C   0  0  0  0  0  0  0  0  0  0  0  0
   61.3820   11.0230    3.8130 N   0  0  0  0  0  0  0  0  0  0  0  0
   63.9291   10.9479    3.1287 H   0  0  0  0  0  0  0  0  0  0  0  0
   63.6699    9.9439    1.6619 H   0  0  0  0  0  0  0  0  0  0  0  0
   63.1894   11.6747    1.6619 H   0  0  0  0  0  0  0  0  0  0  0  0
   61.2244    8.7473    1.3941 H   0  0  0  0  0  0  0  0  0  0  0  0
   58.2020    8.4790    3.6030 H   0  0  0  0  0  0  0  0  0  0  0  0
   56.6651    6.8706    0.2074 H   0  0  0  0  0  0  0  0  0  0  0  0
   52.4477    7.2885    2.6756 H   0  0  0  0  0  0  0  0  0  0  0  0
   52.0978    9.0216    4.4113 H   0  0  0  0  0  0  0  0  0  0  0  0
   54.0849   10.5888    4.9031 H   0  0  0  0  0  0  0  0  0  0  0  0
   61.1193   11.8324    6.0815 H   0  0  0  0  0  0  0  0  0  0  0  0
   59.9134   12.3530    8.1995 H   0  0  0  0  0  0  0  0  0  0  0  0
   57.6195   11.4432    8.5868 H   0  0  0  0  0  0  0  0  0  0  0  0
   57.7536    9.4576    4.7447 H   0  0  0  0  0  0  0  0  0  0  0  0
  1  2  1  0
  2  3  1  0
  3  4  2  0
  4  5  1  0
  5  6  1  0
  6  7  2  0
  6  8  1  0
  8  9  1  0
  9 10  2  0
 10 11  1  0
 11 12  1  0
 12 13  2  0
 13 14  1  0
 14 15  2  0
 15 16  1  0
  4 17  1  0
 17 18  1  0
 18 19  2  0
 19 20  1  0
 20 21  2  0
 21 22  1  0
 22 23  1  0
 22 24  2  0
 17 25  1  0
 25  2  2  0
 16  8  2  0
 24 18  1  0
 16 11  1  0
  1 26  1  0
  1 27  1  0
  1 28  1  0
  3 29  1  0
  5 30  1  0
  9 31  1  0
 12 32  1  0
 13 33  1  0
 14 34  1  0
 19 35  1  0
 20 36  1  0
 21 37  1  0
 24 38  1  0
M  END
>  <meeko>  (7) 
{"is_sidechain": [false], "free_energy": -8.452, "intermolecular_energy": -10.187, "internal_energy": -0.521}

$$$$
4hge_ligand
     RDKit          3D

 38 41  0  0  0  0  0  0  0  0999 V2000
   50.9690    9.1230    5.4610 C   0  0  0  0  0  0  0  0  0  0  0  0
   52.4160    9.3810    5.2690 C   0  0  0  0  0  0  0  0  0  0  0  0
   53.1220    9.4950    4.0570 C   0  0  0  0  0  0  0  0  0  0  0  0
   54.4470    9.6560    4.4080 C   0  0  0  0  0  0  0  0  0  0  0  0
   55.5980    9.6290    3.6250 N   0  0  0  0  0  0  0  0  0  0  0  0
   56.1150    8.4690    3.0610 C   0  0  0  0  0  0  0  0  0  0  0  0
   55.5970    7.3610    3.1340 O   0  0  0  0  0  0  0  0  0  0  0  0
   57.3590    8.6920    2.3390 C   0  0  0  0  0  0  0  0  0  0  0  0
   57.6640    8.4510    0.9810 C   0  0  0  0  0  0  0  0  0  0  0  0
   58.9130    8.7700    0.6510 N   0  0  0  0  0  0  0  0  0  0  0  0
   59.4640    9.2010    1.8100 N   0  0  0  0  0  0  0  0  0  0  0  0
   60.7710    9.6370    2.0150 C   0  0  0  0  0  0  0  0  0  0  0  0
   61.1670   10.0480    3.2270 C   0  0  0  0  0  0  0  0  0  0  0  0
   60.1160   10.0040    4.2790 C   0  0  0  0  0  0  0  0  0  0  0  0
   58.8900    9.6080    4.1220 N   0  0  0  0  0  0  0  0  0  0  0  0
   58.5440    9.1810    2.8650 C   0  0  0  0  0  0  0  0  0  0  0  0
   54.4400    9.8070    5.7990 N   0  0  0  0  0  0  0  0  0  0  0  0
   55.4820   10.2410    6.6720 C   0  0  0  0  0  0  0  0  0  0  0  0
   56.7120   10.6390    6.1230 C   0  0  0  0  0  0  0  0  0  0  0  0
   57.7500   11.0730    6.9510 C   0  0  0  0  0  0  0  0  0  0  0  0
   57.5760   11.0950    8.3330 C   0  0  0  0  0  0  0  0  0  0  0  0
   56.3690   10.6670    8.8820 C   0  0  0  0  0  0  0  0  0  0  0  0
   56.1620   10.6590   10.5910 Cl  0  0  0  0  0  0  0  0  0  0  0  0
   55.3250   10.2300    8.0630 C   0  0  0  0  0  0  0  0  0  0  0  0
   53.2260    9.4930    6.3230 N   0  0  0  0  0  0  0  0  0  0  0  0
   50.7433    9.0828    6.5368 H   0  0  0  0  0  0  0  0  0  0  0  0
   50.3873    9.9316    4.9943 H   0  0  0  0  0  0  0  0  0  0  0  0
   50.7026    8.1632    4.9943 H   0  0  0  0  0  0  0  0  0  0  0  0
   52.7041    9.4625    3.0400 H   0  0  0  0  0  0  0  0  0  0  0  0
   56.1690   10.4630    3.6010 H   0  0  0  0  0  0  0  0  0  0  0  0
   56.9382    8.0389    0.2645 H   0  0  0  0  0  0  0  0  0  0  0  0
   61.4826    9.6439    1.1762 H   0  0  0  0  0  0  0  0  0  0  0  0
   62.1921   10.3921    3.4291 H   0  0  0  0  0  0  0  0  0  0  0  0
   60.4056   10.3390    5.2859 H   0  0  0  0  0  0  0  0  0  0  0  0
   56.8590   10.6087    5.0333 H   0  0  0  0  0  0  0  0  0  0  0  0
   58.7049   11.3974    6.5117 H   0  0  0  0  0  0  0  0  0  0  0  0
   58.3868   11.4482    8.9871 H   0  0  0  0  0  0  0  0  0  0  0  0
   54.3831    9.8786    8.5095 H   0  0  0  0  0  0  0  0  0  0  0  0
  1  2  1  0
  2  3  1  0
  3  4  2  0
  4  5  1  0
  5  6  1  0
  6  7  2  0
  6  8  1  0
  8  9  1  0
  9 10  2  0
 10 11  1  0
 11 12  1  0
 12 13  2  0
 13 14  1  0
 14 15  2  0
 15 16  1  0
  4 17  1  0
 17 18  1  0
 18 19  2  0
 19 20  1  0
 20 21  2  0
 21 22  1  0
 22 23  1  0
 22 24  2  0
 17 25  1  0
 25  2  2  0
 16  8  2  0
 24 18  1  0
 16 11  1  0
  1 26  1  0
  1 27  1  0
  1 28  1  0
  3 29  1  0
  5 30  1  0
  9 31  1  0
 12 32  1  0
 13 33  1  0
 14 34  1  0
 19 35  1  0
 20 36  1  0
 21 37  1  0
 24 38  1  0
M  END
>  <meeko>  (8) 
{"is_sidechain": [false], "free_energy": -8.31, "intermolecular_energy": -10.194, "internal_energy": -0.346}

$$$$
4hge_ligand
     RDKit          3D

 38 41  0  0  0  0  0  0  0  0999 V2000
   61.4670    9.5480    1.7960 C   0  0  0  0  0  0  0  0  0  0  0  0
   60.1300    9.5520    2.4360 C   0  0  0  0  0  0  0  0  0  0  0  0
   58.9320    9.0000    1.9440 C   0  0  0  0  0  0  0  0  0  0  0  0
   57.9600    9.3320    2.8650 C   0  0  0  0  0  0  0  0  0  0  0  0
   56.5740    9.2120    2.7970 N   0  0  0  0  0  0  0  0  0  0  0  0
   55.9120    7.9920    2.7270 C   0  0  0  0  0  0  0  0  0  0  0  0
   56.4540    6.8950    2.7760 O   0  0  0  0  0  0  0  0  0  0  0  0
   54.4690    8.1340    2.6020 C   0  0  0  0  0  0  0  0  0  0  0  0
   53.6270    7.8100    1.5150 C   0  0  0  0  0  0  0  0  0  0  0  0
   52.3420    8.0750    1.7390 N   0  0  0  0  0  0  0  0  0  0  0  0
   52.3250    8.6160    2.9800 N   0  0  0  0  0  0  0  0  0  0  0  0
   51.2190    9.0870    3.6830 C   0  0  0  0  0  0  0  0  0  0  0  0
   51.3610    9.5860    4.9180 C   0  0  0  0  0  0  0  0  0  0  0  0
   52.7540    9.5770    5.4410 C   0  0  0  0  0  0  0  0  0  0  0  0
   53.8060    9.1430    4.8160 N   0  0  0  0  0  0  0  0  0  0  0  0
   53.6040    8.6590    3.5490 C   0  0  0  0  0  0  0  0  0  0  0  0
   58.6530    9.9040    3.9370 N   0  0  0  0  0  0  0  0  0  0  0  0
   58.1980   10.2080    5.2550 C   0  0  0  0  0  0  0  0  0  0  0  0
   56.9060    9.8150    5.6400 C   0  0  0  0  0  0  0  0  0  0  0  0
   56.4330   10.0940    6.9250 C   0  0  0  0  0  0  0  0  0  0  0  0
   57.2390   10.7840    7.8280 C   0  0  0  0  0  0  0  0  0  0  0  0
   58.5070   11.2070    7.4370 C   0  0  0  0  0  0  0  0  0  0  0  0
   59.4920   12.0890    8.5390 Cl  0  0  0  0  0  0  0  0  0  0  0  0
   58.9890   10.9330    6.1540 C   0  0  0  0  0  0  0  0  0  0  0  0
   59.9450   10.1660    3.6070 N   0  0  0  0  0  0  0  0  0  0  0  0
   62.2455    9.5457    2.5731 H   0  0  0  0  0  0  0  0  0  0  0  0
   61.5712    8.6495    1.1700 H   0  0  0  0  0  0  0  0  0  0  0  0
   61.5765   10.4458    1.1700 H   0  0  0  0  0  0  0  0  0  0  0  0
   58.7986    8.4232    1.0169 H   0  0  0  0  0  0  0  0  0  0  0  0
   56.0380   10.0530    2.6290 H   0  0  0  0  0  0  0  0  0  0  0  0
   53.9980    7.3797    0.5731 H   0  0  0  0  0  0  0  0  0  0  0  0
   50.2215    9.0490    3.2208 H   0  0  0  0  0  0  0  0  0  0  0  0
   50.5124    9.9730    5.5012 H   0  0  0  0  0  0  0  0  0  0  0  0
   52.9072    9.9764    6.4544 H   0  0  0  0  0  0  0  0  0  0  0  0
   56.2613    9.2834    4.9246 H   0  0  0  0  0  0  0  0  0  0  0  0
   55.4253    9.7692    7.2233 H   0  0  0  0  0  0  0  0  0  0  0  0
   56.8756   10.9937    8.8449 H   0  0  0  0  0  0  0  0  0  0  0  0
   59.9861   11.2857    5.8518 H   0  0  0  0  0  0  0  0  0  0  0  0
  1  2  1  0
  2  3  1  0
  3  4  2  0
  4  5  1  0
  5  6  1  0
  6  7  2  0
  6  8  1  0
  8  9  1  0
  9 10  2  0
 10 11  1  0
 11 12  1  0
 12 13  2  0
 13 14  1  0
 14 15  2  0
 15 16  1  0
  4 17  1  0
 17 18  1  0
 18 19  2  0
 19 20  1  0
 20 21  2  0
 21 22  1  0
 22 23  1  0
 22 24  2  0
 17 25  1  0
 25  2  2  0
 16  8  2  0
 24 18  1  0
 16 11  1  0
  1 26  1  0
  1 27  1  0
  1 28  1  0
  3 29  1  0
  5 30  1  0
  9 31  1  0
 12 32  1  0
 13 33  1  0
 14 34  1  0
 19 35  1  0
 20 36  1  0
 21 37  1  0
 24 38  1  0
M  END
>  <meeko>  (9) 
{"is_sidechain": [false], "free_energy": -8.207, "intermolecular_energy": -10.008, "internal_energy": -0.41}

$$$$
