3ge7_ligand
     RDKit          3D

 54 57  0  0  0  0  0  0  0  0999 V2000
   18.1950   17.9510   14.7760 C   0  0  0  0  0  0  0  0  0  0  0  0
   19.0900   17.4650   15.8230 N   0  0  0  0  0  0  0  0  0  0  0  0
   18.6690   17.2690   17.0780 C   0  0  0  0  0  0  0  0  0  0  0  0
   19.3710   17.4130   18.1890 N   0  0  0  0  0  0  0  0  0  0  0  0
   18.5990   17.1750   19.2960 C   0  0  0  0  0  0  0  0  0  0  0  0
   18.9080   17.2520   20.6410 C   0  0  0  0  0  0  0  0  0  0  0  0
   17.8460   16.9650   21.5150 C   0  0  0  0  0  0  0  0  0  0  0  0
   18.0950   17.0580   22.9580 C   0  0  0  0  0  0  0  0  0  0  0  0
   19.1810   17.3330   23.4250 O   0  0  0  0  0  0  0  0  0  0  0  0
   16.9990   16.8110   23.7900 N   0  0  0  0  0  0  0  0  0  0  0  0
   15.7800   16.5020   23.3810 C   0  0  0  0  0  0  0  0  0  0  0  0
   14.8010   16.3140   24.2730 N   0  0  0  0  0  0  0  0  0  0  0  0
   15.5190   16.3700   22.0460 N   0  0  0  0  0  0  0  0  0  0  0  0
   16.5490   16.6000   21.0710 C   0  0  0  0  0  0  0  0  0  0  0  0
   16.2560   16.4820   19.6710 C   0  0  0  0  0  0  0  0  0  0  0  0
   14.9330   16.0470   19.0840 C   0  0  0  0  0  0  0  0  0  0  0  0
   14.8990   14.5570   18.6900 C   0  0  0  0  0  0  0  0  0  0  0  0
   13.7420   14.2170   17.7970 N   0  0  0  0  0  0  0  0  0  0  0  0
   13.0690   15.3600   17.0840 C   0  0  0  0  0  0  0  0  0  0  0  0
   11.5550   15.2210   17.1960 C   0  0  0  0  0  0  0  0  0  0  0  0
   11.0940   13.7760   17.0210 C   0  0  0  0  0  0  0  0  0  0  0  0
    9.6630   13.7930   17.5410 C   0  0  0  0  0  0  0  0  0  0  0  0
    9.6330   14.8660   18.6300 C   0  0  0  0  0  0  0  0  0  0  0  0
   10.9830   15.5810   18.5670 C   0  0  0  0  0  0  0  0  0  0  0  0
   17.3350   16.8130   18.8180 C   0  0  0  0  0  0  0  0  0  0  0  0
   17.4430   16.8860   17.4370 N   0  0  0  0  0  0  0  0  0  0  0  0
   17.3170   18.4278   15.2363 H   0  0  0  0  0  0  0  0  0  0  0  0
   18.7256   18.6849   14.1516 H   0  0  0  0  0  0  0  0  0  0  0  0
   17.8684   17.1063   14.1516 H   0  0  0  0  0  0  0  0  0  0  0  0
   20.0500   17.2580   15.5780 H   0  0  0  0  0  0  0  0  0  0  0  0
   20.3460   17.6990   18.2040 H   0  0  0  0  0  0  0  0  0  0  0  0
   19.9126   17.5187   21.0011 H   0  0  0  0  0  0  0  0  0  0  0  0
   17.2000   16.8970   24.7810 H   0  0  0  0  0  0  0  0  0  0  0  0
   13.8150   16.2870   24.0400 H   0  0  0  0  0  0  0  0  0  0  0  0
   15.0070   16.2110   25.2640 H   0  0  0  0  0  0  0  0  0  0  0  0
   14.5590   16.1690   21.7980 H   0  0  0  0  0  0  0  0  0  0  0  0
   14.1443   16.2289   19.8289 H   0  0  0  0  0  0  0  0  0  0  0  0
   14.7782   16.6300   18.1641 H   0  0  0  0  0  0  0  0  0  0  0  0
   15.8331   14.3115   18.1635 H   0  0  0  0  0  0  0  0  0  0  0  0
   14.7857   13.9727   19.6151 H   0  0  0  0  0  0  0  0  0  0  0  0
   13.0220   13.6590   18.2810 H   0  0  0  0  0  0  0  0  0  0  0  0
   14.0910   13.5820   17.0590 H   0  0  0  0  0  0  0  0  0  0  0  0
   13.3829   16.3103   17.5405 H   0  0  0  0  0  0  0  0  0  0  0  0
   13.3569   15.3449   16.0224 H   0  0  0  0  0  0  0  0  0  0  0  0
   11.2040   15.9072   16.4111 H   0  0  0  0  0  0  0  0  0  0  0  0
   11.1239   13.4794   15.9622 H   0  0  0  0  0  0  0  0  0  0  0  0
   11.7337   13.0554   17.5515 H   0  0  0  0  0  0  0  0  0  0  0  0
    8.9634   14.0482   16.7314 H   0  0  0  0  0  0  0  0  0  0  0  0
    9.3601   12.8098   17.9304 H   0  0  0  0  0  0  0  0  0  0  0  0
    8.8160   15.5778   18.4406 H   0  0  0  0  0  0  0  0  0  0  0  0
    9.4616   14.4232   19.6222 H   0  0  0  0  0  0  0  0  0  0  0  0
   10.8492   16.6691   18.6570 H   0  0  0  0  0  0  0  0  0  0  0  0
   11.6508   15.2780   19.3869 H   0  0  0  0  0  0  0  0  0  0  0  0
   16.7110   16.7590   16.7520 H   0  0  0  0  0  0  0  0  0  0  0  0
  1  2  1  0
  2  3  1  0
  3  4  1  0
  4  5  1  0
  5  6  2  0
  6  7  1  0
  7  8  1  0
  8  9  2  0
  8 10  1  0
 10 11  1  0
 11 12  1  0
 11 13  2  0
 13 14  1  0
 14 15  1  0
 15 16  1  0
 16 17  1  0
 17 18  1  0
 18 19  1  0
 19 20  1  0
 20 21  1  0
 21 22  1  0
 22 23  1  0
 23 24  1  0
 15 25  2  0
 25 26  1  0
 26  3  2  0
 25  5  1  0
 14  7  2  0
 24 20  1  0
  1 27  1  0
  1 28  1  0
  1 29  1  0
  2 30  1  0
  4 31  1  0
  6 32  1  0
 10 33  1  0
 12 34  1  0
 12 35  1  0
 13 36  1  0
 16 37  1  0
 16 38  1  0
 17 39  1  0
 17 40  1  0
 18 41  1  0
 18 42  1  0
 19 43  1  0
 19 44  1  0
 20 45  1  0
 21 46  1  0
 21 47  1  0
 22 48  1  0
 22 49  1  0
 23 50  1  0
 23 51  1  0
 24 52  1  0
 24 53  1  0
 26 54  1  0
M  CHG  3  13   1  18   1  26   1
M  END
>  <meeko>  (1) 
{"is_sidechain": [false], "free_energy": -11.043, "intermolecular_energy": -15.239, "internal_energy": -0.696}

$$$$
3ge7_ligand
     RDKit          3D

 54 57  0  0  0  0  0  0  0  0999 V2000
   18.3060   17.9420   14.8090 C   0  0  0  0  0  0  0  0  0  0  0  0
   19.1920   17.4610   15.8670 N   0  0  0  0  0  0  0  0  0  0  0  0
   18.7590   17.2700   17.1190 C   0  0  0  0  0  0  0  0  0  0  0  0
   19.4410   17.4460   18.2370 N   0  0  0  0  0  0  0  0  0  0  0  0
   18.6610   17.2010   19.3370 C   0  0  0  0  0  0  0  0  0  0  0  0
   18.9490   17.3020   20.6850 C   0  0  0  0  0  0  0  0  0  0  0  0
   17.8830   16.9990   21.5470 C   0  0  0  0  0  0  0  0  0  0  0  0
   18.1090   17.1150   22.9930 C   0  0  0  0  0  0  0  0  0  0  0  0
   19.1800   17.4240   23.4710 O   0  0  0  0  0  0  0  0  0  0  0  0
   17.0080   16.8500   23.8130 N   0  0  0  0  0  0  0  0  0  0  0  0
   15.8030   16.5040   23.3910 C   0  0  0  0  0  0  0  0  0  0  0  0
   14.8170   16.3020   24.2710 N   0  0  0  0  0  0  0  0  0  0  0  0
   15.5640   16.3500   22.0540 N   0  0  0  0  0  0  0  0  0  0  0  0
   16.6010   16.5950   21.0900 C   0  0  0  0  0  0  0  0  0  0  0  0
   16.3310   16.4520   19.6880 C   0  0  0  0  0  0  0  0  0  0  0  0
   15.0270   15.9760   19.0880 C   0  0  0  0  0  0  0  0  0  0  0  0
   15.1030   15.7470   17.5650 C   0  0  0  0  0  0  0  0  0  0  0  0
   13.9790   14.8970   17.0490 N   0  0  0  0  0  0  0  0  0  0  0  0
   13.0880   15.5040   16.0000 C   0  0  0  0  0  0  0  0  0  0  0  0
   13.4060   16.9880   15.8460 C   0  0  0  0  0  0  0  0  0  0  0  0
   13.8090   17.3460   14.4180 C   0  0  0  0  0  0  0  0  0  0  0  0
   13.7010   18.8640   14.3870 C   0  0  0  0  0  0  0  0  0  0  0  0
   12.5840   19.2170   15.3690 C   0  0  0  0  0  0  0  0  0  0  0  0
   12.2210   17.9210   16.0920 C   0  0  0  0  0  0  0  0  0  0  0  0
   17.4130   16.8000   18.8460 C   0  0  0  0  0  0  0  0  0  0  0  0
   17.5380   16.8600   17.4650 N   0  0  0  0  0  0  0  0  0  0  0  0
   17.4239   18.4209   15.2590 H   0  0  0  0  0  0  0  0  0  0  0  0
   18.8421   18.6729   14.1858 H   0  0  0  0  0  0  0  0  0  0  0  0
   17.9851   17.0942   14.1858 H   0  0  0  0  0  0  0  0  0  0  0  0
   20.1540   17.2560   15.6320 H   0  0  0  0  0  0  0  0  0  0  0  0
   20.4090   17.7560   18.2620 H   0  0  0  0  0  0  0  0  0  0  0  0
   19.9414   17.5983   21.0556 H   0  0  0  0  0  0  0  0  0  0  0  0
   17.1930   16.9530   24.8050 H   0  0  0  0  0  0  0  0  0  0  0  0
   14.0450   15.6620   24.1270 H   0  0  0  0  0  0  0  0  0  0  0  0
   14.7820   16.8180   25.1480 H   0  0  0  0  0  0  0  0  0  0  0  0
   14.6130   16.1220   21.7960 H   0  0  0  0  0  0  0  0  0  0  0  0
   14.7467   15.0278   19.5699 H   0  0  0  0  0  0  0  0  0  0  0  0
   14.2814   16.7659   19.2615 H   0  0  0  0  0  0  0  0  0  0  0  0
   15.0657   16.7236   17.0602 H   0  0  0  0  0  0  0  0  0  0  0  0
   16.0434   15.2159   17.3560 H   0  0  0  0  0  0  0  0  0  0  0  0
   13.3900   14.5210   17.8080 H   0  0  0  0  0  0  0  0  0  0  0  0
   14.3960   14.0530   16.6200 H   0  0  0  0  0  0  0  0  0  0  0  0
   13.2544   14.9935   15.0399 H   0  0  0  0  0  0  0  0  0  0  0  0
   12.0375   15.3879   16.3050 H   0  0  0  0  0  0  0  0  0  0  0  0
   14.2025   17.1293   16.5914 H   0  0  0  0  0  0  0  0  0  0  0  0
   14.8384   17.0209   14.2070 H   0  0  0  0  0  0  0  0  0  0  0  0
   13.1795   16.8566   13.6602 H   0  0  0  0  0  0  0  0  0  0  0  0
   14.6494   19.3229   14.7032 H   0  0  0  0  0  0  0  0  0  0  0  0
   13.4853   19.2360   13.3745 H   0  0  0  0  0  0  0  0  0  0  0  0
   12.9351   19.9697   16.0902 H   0  0  0  0  0  0  0  0  0  0  0  0
   11.7130   19.6405   14.8474 H   0  0  0  0  0  0  0  0  0  0  0  0
   12.0885   18.1026   17.1688 H   0  0  0  0  0  0  0  0  0  0  0  0
   11.2753   17.4941   15.7268 H   0  0  0  0  0  0  0  0  0  0  0  0
   16.8190   16.7050   16.7720 H   0  0  0  0  0  0  0  0  0  0  0  0
  1  2  1  0
  2  3  1  0
  3  4  1  0
  4  5  1  0
  5  6  2  0
  6  7  1  0
  7  8  1  0
  8  9  2  0
  8 10  1  0
 10 11  1  0
 11 12  1  0
 11 13  2  0
 13 14  1  0
 14 15  1  0
 15 16  1  0
 16 17  1  0
 17 18  1  0
 18 19  1  0
 19 20  1  0
 20 21  1  0
 21 22  1  0
 22 23  1  0
 23 24  1  0
 15 25  2  0
 25 26  1  0
 26  3  2  0
 25  5  1  0
 14  7  2  0
 24 20  1  0
  1 27  1  0
  1 28  1  0
  1 29  1  0
  2 30  1  0
  4 31  1  0
  6 32  1  0
 10 33  1  0
 12 34  1  0
 12 35  1  0
 13 36  1  0
 16 37  1  0
 16 38  1  0
 17 39  1  0
 17 40  1  0
 18 41  1  0
 18 42  1  0
 19 43  1  0
 19 44  1  0
 20 45  1  0
 21 46  1  0
 21 47  1  0
 22 48  1  0
 22 49  1  0
 23 50  1  0
 23 51  1  0
 24 52  1  0
 24 53  1  0
 26 54  1  0
M  CHG  3  13   1  18   1  26   1
M  END
>  <meeko>  (2) 
{"is_sidechain": [false], "free_energy": -9.508, "intermolecular_energy": -13.979, "internal_energy": 0.162}

$$$$
3ge7_ligand
     RDKit          3D

 54 57  0  0  0  0  0  0  0  0999 V2000
   16.1510   16.3570   12.9470 C   0  0  0  0  0  0  0  0  0  0  0  0
   16.8590   17.3250   13.7810 N   0  0  0  0  0  0  0  0  0  0  0  0
   16.9780   17.1660   15.1040 C   0  0  0  0  0  0  0  0  0  0  0  0
   18.0710   17.3140   15.8320 N   0  0  0  0  0  0  0  0  0  0  0  0
   17.8090   17.1170   17.1640 C   0  0  0  0  0  0  0  0  0  0  0  0
   18.6360   17.2130   18.2670 C   0  0  0  0  0  0  0  0  0  0  0  0
   18.0130   16.9710   19.5020 C   0  0  0  0  0  0  0  0  0  0  0  0
   18.8260   17.0860   20.7190 C   0  0  0  0  0  0  0  0  0  0  0  0
   20.0110   17.3420   20.7000 O   0  0  0  0  0  0  0  0  0  0  0  0
   18.1560   16.8850   21.9290 N   0  0  0  0  0  0  0  0  0  0  0  0
   16.8700   16.5990   22.0560 C   0  0  0  0  0  0  0  0  0  0  0  0
   16.3320   16.4550   23.2720 N   0  0  0  0  0  0  0  0  0  0  0  0
   16.0890   16.4480   20.9440 N   0  0  0  0  0  0  0  0  0  0  0  0
   16.6410   16.6310   19.6300 C   0  0  0  0  0  0  0  0  0  0  0  0
   15.8060   16.4930   18.4710 C   0  0  0  0  0  0  0  0  0  0  0  0
   14.3520   16.0820   18.4810 C   0  0  0  0  0  0  0  0  0  0  0  0
   14.1290   14.6150   18.0600 C   0  0  0  0  0  0  0  0  0  0  0  0
   13.3050   14.4870   16.8120 N   0  0  0  0  0  0  0  0  0  0  0  0
   12.4030   15.6410   16.4670 C   0  0  0  0  0  0  0  0  0  0  0  0
   10.9810   15.3450   16.9330 C   0  0  0  0  0  0  0  0  0  0  0  0
   10.6820   13.8480   16.9560 C   0  0  0  0  0  0  0  0  0  0  0  0
    9.4120   13.7520   17.7890 C   0  0  0  0  0  0  0  0  0  0  0  0
    9.4870   14.9060   18.7890 C   0  0  0  0  0  0  0  0  0  0  0  0
   10.6860   15.7580   18.3740 C   0  0  0  0  0  0  0  0  0  0  0  0
   16.4530   16.7790   17.2470 C   0  0  0  0  0  0  0  0  0  0  0  0
   15.9960   16.8220   15.9380 N   0  0  0  0  0  0  0  0  0  0  0  0
   15.6237   15.6361   13.5891 H   0  0  0  0  0  0  0  0  0  0  0  0
   15.4231   16.8832   12.3119 H   0  0  0  0  0  0  0  0  0  0  0  0
   16.8730   15.8228   12.3119 H   0  0  0  0  0  0  0  0  0  0  0  0
   17.2800   18.1280   13.3320 H   0  0  0  0  0  0  0  0  0  0  0  0
   18.9740   17.5730   15.4450 H   0  0  0  0  0  0  0  0  0  0  0  0
   19.7044   17.4609   18.1836 H   0  0  0  0  0  0  0  0  0  0  0  0
   18.7400   16.9850   22.7530 H   0  0  0  0  0  0  0  0  0  0  0  0
   15.4620   16.8820   23.5650 H   0  0  0  0  0  0  0  0  0  0  0  0
   16.8010   15.9090   23.9920 H   0  0  0  0  0  0  0  0  0  0  0  0
   15.1090   16.2670   21.1100 H   0  0  0  0  0  0  0  0  0  0  0  0
   13.9583   16.2166   19.4993 H   0  0  0  0  0  0  0  0  0  0  0  0
   13.8300   16.7141   17.7475 H   0  0  0  0  0  0  0  0  0  0  0  0
   15.1088   14.1471   17.8838 H   0  0  0  0  0  0  0  0  0  0  0  0
   13.5793   14.1172   18.8724 H   0  0  0  0  0  0  0  0  0  0  0  0
   12.7520   13.6170   16.7930 H   0  0  0  0  0  0  0  0  0  0  0  0
   13.9570   14.3820   16.0150 H   0  0  0  0  0  0  0  0  0  0  0  0
   12.7682   16.5512   16.9652 H   0  0  0  0  0  0  0  0  0  0  0  0
   12.4039   15.7884   15.3769 H   0  0  0  0  0  0  0  0  0  0  0  0
   10.3797   15.9163   16.2105 H   0  0  0  0  0  0  0  0  0  0  0  0
   10.5147   13.4648   15.9386 H   0  0  0  0  0  0  0  0  0  0  0  0
   11.5101   13.2520   17.3672 H   0  0  0  0  0  0  0  0  0  0  0  0
    8.5239   13.8564   17.1483 H   0  0  0  0  0  0  0  0  0  0  0  0
    9.3307   12.7792   18.2960 H   0  0  0  0  0  0  0  0  0  0  0  0
    8.5641   15.5034   18.7507 H   0  0  0  0  0  0  0  0  0  0  0  0
    9.5980   14.5353   19.8187 H   0  0  0  0  0  0  0  0  0  0  0  0
   10.4372   16.8282   18.4268 H   0  0  0  0  0  0  0  0  0  0  0  0
   11.5520   15.6043   19.0346 H   0  0  0  0  0  0  0  0  0  0  0  0
   15.0470   16.7000   15.6100 H   0  0  0  0  0  0  0  0  0  0  0  0
  1  2  1  0
  2  3  1  0
  3  4  1  0
  4  5  1  0
  5  6  2  0
  6  7  1  0
  7  8  1  0
  8  9  2  0
  8 10  1  0
 10 11  1  0
 11 12  1  0
 11 13  2  0
 13 14  1  0
 14 15  1  0
 15 16  1  0
 16 17  1  0
 17 18  1  0
 18 19  1  0
 19 20  1  0
 20 21  1  0
 21 22  1  0
 22 23  1  0
 23 24  1  0
 15 25  2  0
 25 26  1  0
 26  3  2  0
 25  5  1  0
 14  7  2  0
 24 20  1  0
  1 27  1  0
  1 28  1  0
  1 29  1  0
  2 30  1  0
  4 31  1  0
  6 32  1  0
 10 33  1  0
 12 34  1  0
 12 35  1  0
 13 36  1  0
 16 37  1  0
 16 38  1  0
 17 39  1  0
 17 40  1  0
 18 41  1  0
 18 42  1  0
 19 43  1  0
 19 44  1  0
 20 45  1  0
 21 46  1  0
 21 47  1  0
 22 48  1  0
 22 49  1  0
 23 50  1  0
 23 51  1  0
 24 52  1  0
 24 53  1  0
 26 54  1  0
M  CHG  3  13   1  18   1  26   1
M  END
>  <meeko>  (3) 
{"is_sidechain": [false], "free_energy": -8.849, "intermolecular_energy": -12.071, "internal_energy": -0.837}

$$$$
3ge7_ligand
     RDKit          3D

 54 57  0  0  0  0  0  0  0  0999 V2000
   18.1130   17.1810   23.1550 C   0  0  0  0  0  0  0  0  0  0  0  0
   18.9020   16.6850   22.0300 N   0  0  0  0  0  0  0  0  0  0  0  0
   18.4870   16.8140   20.7640 C   0  0  0  0  0  0  0  0  0  0  0  0
   19.1900   17.2440   19.7310 N   0  0  0  0  0  0  0  0  0  0  0  0
   18.4540   17.1970   18.5760 C   0  0  0  0  0  0  0  0  0  0  0  0
   18.8010   17.5070   17.2750 C   0  0  0  0  0  0  0  0  0  0  0  0
   17.7870   17.3070   16.3240 C   0  0  0  0  0  0  0  0  0  0  0  0
   18.0960   17.5870   14.9160 C   0  0  0  0  0  0  0  0  0  0  0  0
   19.1690   18.0160   14.5480 O   0  0  0  0  0  0  0  0  0  0  0  0
   17.0740   17.3300   13.9970 N   0  0  0  0  0  0  0  0  0  0  0  0
   15.8720   16.8660   14.2970 C   0  0  0  0  0  0  0  0  0  0  0  0
   14.9830   16.6320   13.3260 N   0  0  0  0  0  0  0  0  0  0  0  0
   15.5350   16.6280   15.6000 N   0  0  0  0  0  0  0  0  0  0  0  0
   16.4880   16.8420   16.6550 C   0  0  0  0  0  0  0  0  0  0  0  0
   16.1300   16.5660   18.0170 C   0  0  0  0  0  0  0  0  0  0  0  0
   14.7660   16.1230   18.4940 C   0  0  0  0  0  0  0  0  0  0  0  0
   14.5790   14.5920   18.4740 C   0  0  0  0  0  0  0  0  0  0  0  0
   13.4900   14.1520   17.5390 N   0  0  0  0  0  0  0  0  0  0  0  0
   12.7670   15.2280   16.7760 C   0  0  0  0  0  0  0  0  0  0  0  0
   11.2760   15.1730   17.0900 C   0  0  0  0  0  0  0  0  0  0  0  0
   10.7120   13.7600   16.9650 C   0  0  0  0  0  0  0  0  0  0  0  0
    9.3680   13.8500   17.6740 C   0  0  0  0  0  0  0  0  0  0  0  0
    9.5460   14.9040   18.7660 C   0  0  0  0  0  0  0  0  0  0  0  0
   10.9150   15.5420   18.5280 C   0  0  0  0  0  0  0  0  0  0  0  0
   17.1830   16.7420   18.9450 C   0  0  0  0  0  0  0  0  0  0  0  0
   17.2650   16.5270   20.3130 N   0  0  0  0  0  0  0  0  0  0  0  0
   18.5911   16.8804   24.0990 H   0  0  0  0  0  0  0  0  0  0  0  0
   18.0549   18.2784   23.1066 H   0  0  0  0  0  0  0  0  0  0  0  0
   17.0989   16.7576   23.1066 H   0  0  0  0  0  0  0  0  0  0  0  0
   19.7930   16.2470   22.2240 H   0  0  0  0  0  0  0  0  0  0  0  0
   20.1620   17.5360   19.7960 H   0  0  0  0  0  0  0  0  0  0  0  0
   19.7986   17.8830   17.0039 H   0  0  0  0  0  0  0  0  0  0  0  0
   17.3230   17.5200   13.0320 H   0  0  0  0  0  0  0  0  0  0  0  0
   15.1790   16.0940   12.4910 H   0  0  0  0  0  0  0  0  0  0  0  0
   14.0420   17.0170   13.3720 H   0  0  0  0  0  0  0  0  0  0  0  0
   14.6150   16.2390   15.7580 H   0  0  0  0  0  0  0  0  0  0  0  0
   14.6246   16.4784   19.5254 H   0  0  0  0  0  0  0  0  0  0  0  0
   14.0249   16.5503   17.8025 H   0  0  0  0  0  0  0  0  0  0  0  0
   15.5239   14.1265   18.1571 H   0  0  0  0  0  0  0  0  0  0  0  0
   14.2910   14.2798   19.4887 H   0  0  0  0  0  0  0  0  0  0  0  0
   12.7930   13.5500   18.0030 H   0  0  0  0  0  0  0  0  0  0  0  0
   13.9180   13.5320   16.8300 H   0  0  0  0  0  0  0  0  0  0  0  0
   13.1650   16.2115   17.0664 H   0  0  0  0  0  0  0  0  0  0  0  0
   12.9164   15.0705   15.6976 H   0  0  0  0  0  0  0  0  0  0  0  0
   10.8636   15.8911   16.3660 H   0  0  0  0  0  0  0  0  0  0  0  0
   10.5816   13.4807   15.9091 H   0  0  0  0  0  0  0  0  0  0  0  0
   11.3738   12.9947   17.3967 H   0  0  0  0  0  0  0  0  0  0  0  0
    8.5821   14.1577   16.9685 H   0  0  0  0  0  0  0  0  0  0  0  0
    9.0641   12.8792   18.0926 H   0  0  0  0  0  0  0  0  0  0  0  0
    8.7540   15.6640   18.6944 H   0  0  0  0  0  0  0  0  0  0  0  0
    9.4829   14.4555   19.7684 H   0  0  0  0  0  0  0  0  0  0  0  0
   10.8585   16.6343   18.6447 H   0  0  0  0  0  0  0  0  0  0  0  0
   11.6677   15.1879   19.2478 H   0  0  0  0  0  0  0  0  0  0  0  0
   16.5600   16.1320   20.9210 H   0  0  0  0  0  0  0  0  0  0  0  0
  1  2  1  0
  2  3  1  0
  3  4  1  0
  4  5  1  0
  5  6  2  0
  6  7  1  0
  7  8  1  0
  8  9  2  0
  8 10  1  0
 10 11  1  0
 11 12  1  0
 11 13  2  0
 13 14  1  0
 14 15  1  0
 15 16  1  0
 16 17  1  0
 17 18  1  0
 18 19  1  0
 19 20  1  0
 20 21  1  0
 21 22  1  0
 22 23  1  0
 23 24  1  0
 15 25  2  0
 25 26  1  0
 26  3  2  0
 25  5  1  0
 14  7  2  0
 24 20  1  0
  1 27  1  0
  1 28  1  0
  1 29  1  0
  2 30  1  0
  4 31  1  0
  6 32  1  0
 10 33  1  0
 12 34  1  0
 12 35  1  0
 13 36  1  0
 16 37  1  0
 16 38  1  0
 17 39  1  0
 17 40  1  0
 18 41  1  0
 18 42  1  0
 19 43  1  0
 19 44  1  0
 20 45  1  0
 21 46  1  0
 21 47  1  0
 22 48  1  0
 22 49  1  0
 23 50  1  0
 23 51  1  0
 24 52  1  0
 24 53  1  0
 26 54  1  0
M  CHG  3  13   1  18   1  26   1
M  END
>  <meeko>  (4) 
{"is_sidechain": [false], "free_energy": -8.378, "intermolecular_energy": -11.526, "internal_energy": -0.73}

$$$$
3ge7_ligand
     RDKit          3D

 54 57  0  0  0  0  0  0  0  0999 V2000
   19.5410   18.1770   12.3480 C   0  0  0  0  0  0  0  0  0  0  0  0
   18.2170   17.9330   12.9170 N   0  0  0  0  0  0  0  0  0  0  0  0
   18.0460   17.6500   14.2140 C   0  0  0  0  0  0  0  0  0  0  0  0
   18.9400   17.7550   15.1810 N   0  0  0  0  0  0  0  0  0  0  0  0
   18.3970   17.4250   16.3950 C   0  0  0  0  0  0  0  0  0  0  0  0
   18.9520   17.4350   17.6610 C   0  0  0  0  0  0  0  0  0  0  0  0
   18.0800   17.0590   18.6970 C   0  0  0  0  0  0  0  0  0  0  0  0
   18.5950   17.0770   20.0720 C   0  0  0  0  0  0  0  0  0  0  0  0
   19.7410   17.3630   20.3450 O   0  0  0  0  0  0  0  0  0  0  0  0
   17.6810   16.7430   21.0760 N   0  0  0  0  0  0  0  0  0  0  0  0
   16.4140   16.4140   20.8820 C   0  0  0  0  0  0  0  0  0  0  0  0
   15.6260   16.1390   21.9270 N   0  0  0  0  0  0  0  0  0  0  0  0
   15.9100   16.3510   19.6140 N   0  0  0  0  0  0  0  0  0  0  0  0
   16.7320   16.6740   18.4810 C   0  0  0  0  0  0  0  0  0  0  0  0
   16.1840   16.6270   17.1550 C   0  0  0  0  0  0  0  0  0  0  0  0
   14.7850   16.1800   16.7990 C   0  0  0  0  0  0  0  0  0  0  0  0
   13.8800   17.3310   16.3150 C   0  0  0  0  0  0  0  0  0  0  0  0
   12.6090   17.4430   17.1060 N   0  0  0  0  0  0  0  0  0  0  0  0
   12.4370   16.4950   18.2620 C   0  0  0  0  0  0  0  0  0  0  0  0
   11.1140   15.7490   18.1280 C   0  0  0  0  0  0  0  0  0  0  0  0
   10.6060   15.7290   16.6880 C   0  0  0  0  0  0  0  0  0  0  0  0
    9.5350   14.6470   16.7040 C   0  0  0  0  0  0  0  0  0  0  0  0
    9.9840   13.6370   17.7590 C   0  0  0  0  0  0  0  0  0  0  0  0
   11.1850   14.2610   18.4680 C   0  0  0  0  0  0  0  0  0  0  0  0
   17.0740   17.0450   16.1390 C   0  0  0  0  0  0  0  0  0  0  0  0
   16.9190   17.2030   14.7690 N   0  0  0  0  0  0  0  0  0  0  0  0
   20.2702   18.3114   13.1605 H   0  0  0  0  0  0  0  0  0  0  0  0
   19.8374   17.3184   11.7276 H   0  0  0  0  0  0  0  0  0  0  0  0
   19.5118   19.0849   11.7276 H   0  0  0  0  0  0  0  0  0  0  0  0
   17.4120   17.9980   12.3070 H   0  0  0  0  0  0  0  0  0  0  0  0
   19.8930   18.0730   15.0320 H   0  0  0  0  0  0  0  0  0  0  0  0
   19.9995   17.7166   17.8441 H   0  0  0  0  0  0  0  0  0  0  0  0
   18.0620   16.7780   22.0160 H   0  0  0  0  0  0  0  0  0  0  0  0
   15.1780   16.8420   22.5030 H   0  0  0  0  0  0  0  0  0  0  0  0
   15.4530   15.1790   22.2170 H   0  0  0  0  0  0  0  0  0  0  0  0
   14.9260   16.1300   19.5370 H   0  0  0  0  0  0  0  0  0  0  0  0
   14.8519   15.4286   15.9984 H   0  0  0  0  0  0  0  0  0  0  0  0
   14.3311   15.7723   17.7143 H   0  0  0  0  0  0  0  0  0  0  0  0
   14.4349   18.2764   16.4056 H   0  0  0  0  0  0  0  0  0  0  0  0
   13.6034   17.1189   15.2717 H   0  0  0  0  0  0  0  0  0  0  0  0
   11.7690   17.3940   16.5100 H   0  0  0  0  0  0  0  0  0  0  0  0
   12.5720   18.3960   17.5060 H   0  0  0  0  0  0  0  0  0  0  0  0
   13.2652   15.7711   18.2666 H   0  0  0  0  0  0  0  0  0  0  0  0
   12.4375   17.0660   19.2022 H   0  0  0  0  0  0  0  0  0  0  0  0
   10.4698   16.3003   18.8288 H   0  0  0  0  0  0  0  0  0  0  0  0
   10.1771   16.7027   16.4088 H   0  0  0  0  0  0  0  0  0  0  0  0
   11.4026   15.5325   15.9553 H   0  0  0  0  0  0  0  0  0  0  0  0
    8.5594   15.0769   16.9751 H   0  0  0  0  0  0  0  0  0  0  0  0
    9.4173   14.1774   15.7163 H   0  0  0  0  0  0  0  0  0  0  0  0
    9.1722   13.4508   18.4776 H   0  0  0  0  0  0  0  0  0  0  0  0
   10.2475   12.6720   17.3014 H   0  0  0  0  0  0  0  0  0  0  0  0
   11.1144   14.1088   19.5551 H   0  0  0  0  0  0  0  0  0  0  0  0
   12.1352   13.8084   18.1482 H   0  0  0  0  0  0  0  0  0  0  0  0
   16.0740   17.0890   14.2260 H   0  0  0  0  0  0  0  0  0  0  0  0
  1  2  1  0
  2  3  1  0
  3  4  1  0
  4  5  1  0
  5  6  2  0
  6  7  1  0
  7  8  1  0
  8  9  2  0
  8 10  1  0
 10 11  1  0
 11 12  1  0
 11 13  2  0
 13 14  1  0
 14 15  1  0
 15 16  1  0
 16 17  1  0
 17 18  1  0
 18 19  1  0
 19 20  1  0
 20 21  1  0
 21 22  1  0
 22 23  1  0
 23 24  1  0
 15 25  2  0
 25 26  1  0
 26  3  2  0
 25  5  1  0
 14  7  2  0
 24 20  1  0
  1 27  1  0
  1 28  1  0
  1 29  1  0
  2 30  1  0
  4 31  1  0
  6 32  1  0
 10 33  1  0
 12 34  1  0
 12 35  1  0
 13 36  1  0
 16 37  1  0
 16 38  1  0
 17 39  1  0
 17 40  1  0
 18 41  1  0
 18 42  1  0
 19 43  1  0
 19 44  1  0
 20 45  1  0
 21 46  1  0
 21 47  1  0
 22 48  1  0
 22 49  1  0
 23 50  1  0
 23 51  1  0
 24 52  1  0
 24 53  1  0
 26 54  1  0
M  CHG  3  13   1  18   1  26   1
M  END
>  <meeko>  (5) 
{"is_sidechain": [false], "free_energy": -8.373, "intermolecular_energy": -11.585, "internal_energy": -0.665}

$$$$
3ge7_ligand
     RDKit          3D

 54 57  0  0  0  0  0  0  0  0999 V2000
   17.4840   17.8170   13.7030 C   0  0  0  0  0  0  0  0  0  0  0  0
   16.5630   18.5590   14.5610 N   0  0  0  0  0  0  0  0  0  0  0  0
   15.4460   18.0040   15.0460 C   0  0  0  0  0  0  0  0  0  0  0  0
   14.2710   17.9170   14.4480 N   0  0  0  0  0  0  0  0  0  0  0  0
   13.3680   17.2390   15.2250 C   0  0  0  0  0  0  0  0  0  0  0  0
   12.0550   16.8860   14.9780 C   0  0  0  0  0  0  0  0  0  0  0  0
   11.4310   16.1560   16.0030 C   0  0  0  0  0  0  0  0  0  0  0  0
   10.0450   15.7200   15.7950 C   0  0  0  0  0  0  0  0  0  0  0  0
    9.4090   15.9940   14.7990 O   0  0  0  0  0  0  0  0  0  0  0  0
    9.4780   14.9560   16.8190 N   0  0  0  0  0  0  0  0  0  0  0  0
   10.0850   14.6070   17.9420 C   0  0  0  0  0  0  0  0  0  0  0  0
    9.4490   13.8480   18.8400 N   0  0  0  0  0  0  0  0  0  0  0  0
   11.3630   15.0250   18.1870 N   0  0  0  0  0  0  0  0  0  0  0  0
   12.0750   15.8140   17.2200 C   0  0  0  0  0  0  0  0  0  0  0  0
   13.4250   16.2270   17.4790 C   0  0  0  0  0  0  0  0  0  0  0  0
   14.1920   15.9710   18.7570 C   0  0  0  0  0  0  0  0  0  0  0  0
   15.2440   14.8510   18.6250 C   0  0  0  0  0  0  0  0  0  0  0  0
   16.6460   15.3440   18.8290 N   0  0  0  0  0  0  0  0  0  0  0  0
   16.8150   16.6380   19.5780 C   0  0  0  0  0  0  0  0  0  0  0  0
   17.1990   16.3530   21.0260 C   0  0  0  0  0  0  0  0  0  0  0  0
   18.3550   17.2300   21.4990 C   0  0  0  0  0  0  0  0  0  0  0  0
   18.3200   17.0790   23.0140 C   0  0  0  0  0  0  0  0  0  0  0  0
   16.8510   16.8530   23.3710 C   0  0  0  0  0  0  0  0  0  0  0  0
   16.1080   16.6730   22.0480 C   0  0  0  0  0  0  0  0  0  0  0  0
   14.0370   16.9270   16.4140 C   0  0  0  0  0  0  0  0  0  0  0  0
   15.3190   17.4310   16.2430 N   0  0  0  0  0  0  0  0  0  0  0  0
   18.1893   17.2487   14.3272 H   0  0  0  0  0  0  0  0  0  0  0  0
   16.9145   17.1224   13.0680 H   0  0  0  0  0  0  0  0  0  0  0  0
   18.0415   18.5212   13.0680 H   0  0  0  0  0  0  0  0  0  0  0  0
   16.7940   19.5140   14.8020 H   0  0  0  0  0  0  0  0  0  0  0  0
   14.0870   18.2800   13.5160 H   0  0  0  0  0  0  0  0  0  0  0  0
   11.5363   17.1569   14.0466 H   0  0  0  0  0  0  0  0  0  0  0  0
    8.5250   14.6580   16.6400 H   0  0  0  0  0  0  0  0  0  0  0  0
    9.4840   12.8350   18.8580 H   0  0  0  0  0  0  0  0  0  0  0  0
    8.8590   14.2650   19.5570 H   0  0  0  0  0  0  0  0  0  0  0  0
   11.7820   14.6930   19.0450 H   0  0  0  0  0  0  0  0  0  0  0  0
   14.7054   16.8994   19.0476 H   0  0  0  0  0  0  0  0  0  0  0  0
   13.4633   15.6450   19.5138 H   0  0  0  0  0  0  0  0  0  0  0  0
   15.0304   14.0776   19.3774 H   0  0  0  0  0  0  0  0  0  0  0  0
   15.1782   14.4535   17.6015 H   0  0  0  0  0  0  0  0  0  0  0  0
   17.1760   15.4010   17.9460 H   0  0  0  0  0  0  0  0  0  0  0  0
   17.1540   14.6260   19.3750 H   0  0  0  0  0  0  0  0  0  0  0  0
   17.6067   17.2347   19.1013 H   0  0  0  0  0  0  0  0  0  0  0  0
   15.8666   17.1948   19.5576 H   0  0  0  0  0  0  0  0  0  0  0  0
   17.4293   15.2779   20.9940 H   0  0  0  0  0  0  0  0  0  0  0  0
   19.3119   16.8730   21.0904 H   0  0  0  0  0  0  0  0  0  0  0  0
   18.2613   18.2757   21.1707 H   0  0  0  0  0  0  0  0  0  0  0  0
   18.9283   16.2180   23.3282 H   0  0  0  0  0  0  0  0  0  0  0  0
   18.7303   17.9649   23.5208 H   0  0  0  0  0  0  0  0  0  0  0  0
   16.7449   15.9517   23.9925 H   0  0  0  0  0  0  0  0  0  0  0  0
   16.4452   17.6997   23.9441 H   0  0  0  0  0  0  0  0  0  0  0  0
   15.3879   15.8444   22.1179 H   0  0  0  0  0  0  0  0  0  0  0  0
   15.5306   17.5676   21.7717 H   0  0  0  0  0  0  0  0  0  0  0  0
   16.1080   17.3360   16.8680 H   0  0  0  0  0  0  0  0  0  0  0  0
  1  2  1  0
  2  3  1  0
  3  4  1  0
  4  5  1  0
  5  6  2  0
  6  7  1  0
  7  8  1  0
  8  9  2  0
  8 10  1  0
 10 11  1  0
 11 12  1  0
 11 13  2  0
 13 14  1  0
 14 15  1  0
 15 16  1  0
 16 17  1  0
 17 18  1  0
 18 19  1  0
 19 20  1  0
 20 21  1  0
 21 22  1  0
 22 23  1  0
 23 24  1  0
 15 25  2  0
 25 26  1  0
 26  3  2  0
 25  5  1  0
 14  7  2  0
 24 20  1  0
  1 27  1  0
  1 28  1  0
  1 29  1  0
  2 30  1  0
  4 31  1  0
  6 32  1  0
 10 33  1  0
 12 34  1  0
 12 35  1  0
 13 36  1  0
 16 37  1  0
 16 38  1  0
 17 39  1  0
 17 40  1  0
 18 41  1  0
 18 42  1  0
 19 43  1  0
 19 44  1  0
 20 45  1  0
 21 46  1  0
 21 47  1  0
 22 48  1  0
 22 49  1  0
 23 50  1  0
 23 51  1  0
 24 52  1  0
 24 53  1  0
 26 54  1  0
M  CHG  3  13   1  18   1  26   1
M  END
>  <meeko>  (6) 
{"is_sidechain": [false], "free_energy": -8.052, "intermolecular_energy": -11.057, "internal_energy": -0.75}

$$$$
