1nc1_ligand
     RDKit          3D

 36 38  0  0  0  0  0  0  0  0999 V2000
   56.0770   68.7540   24.1050 C   0  0  0  0  0  0  0  0  0  0  0  0
   55.9830   69.6260   22.5250 S   0  0  0  0  0  0  0  0  0  0  0  0
   56.7210   71.2350   22.9930 C   0  0  0  0  0  0  0  0  0  0  0  0
   57.9950   71.6230   22.2290 C   0  0  1  0  0  0  0  0  0  0  0  0
   57.7450   71.7100   20.8100 O   0  0  0  0  0  0  0  0  0  0  0  0
   57.8710   73.0910   20.4060 C   0  0  1  0  0  0  0  0  0  0  0  0
   56.8430   73.4000   19.4250 N   0  0  0  0  0  0  0  0  0  0  0  0
   56.9940   73.2340   18.0640 C   0  0  0  0  0  0  0  0  0  0  0  0
   55.8160   73.6020   17.4530 C   0  0  0  0  0  0  0  0  0  0  0  0
   54.9130   74.0110   18.4730 C   0  0  0  0  0  0  0  0  0  0  0  0
   53.5930   74.4820   18.5230 C   0  0  0  0  0  0  0  0  0  0  0  0
   52.8070   74.6890   17.3990 N   0  0  0  0  0  0  0  0  0  0  0  0
   53.0500   74.7730   19.7200 N   0  0  0  0  0  0  0  0  0  0  0  0
   53.8030   74.5890   20.8200 C   0  0  0  0  0  0  0  0  0  0  0  0
   55.0760   74.1670   20.8970 N   0  0  0  0  0  0  0  0  0  0  0  0
   55.5790   73.8770   19.6840 C   0  0  0  0  0  0  0  0  0  0  0  0
   57.8600   73.9480   21.6740 C   0  0  2  0  0  0  0  0  0  0  0  0
   58.6180   75.1530   21.5520 O   0  0  0  0  0  0  0  0  0  0  0  0
   58.5140   72.9970   22.6640 C   0  0  2  0  0  0  0  0  0  0  0  0
   59.9410   73.0890   22.4740 O   0  0  0  0  0  0  0  0  0  0  0  0
   55.9989   69.4786   24.9289 H   0  0  0  0  0  0  0  0  0  0  0  0
   55.2517   68.0300   24.1739 H   0  0  0  0  0  0  0  0  0  0  0  0
   57.0376   68.2226   24.1739 H   0  0  0  0  0  0  0  0  0  0  0  0
   55.9682   72.0175   22.8169 H   0  0  0  0  0  0  0  0  0  0  0  0
   57.0184   71.1365   24.0474 H   0  0  0  0  0  0  0  0  0  0  0  0
   58.7337   70.8394   22.4531 H   0  0  0  0  0  0  0  0  0  0  0  0
   58.8194   73.3084   19.8929 H   0  0  0  0  0  0  0  0  0  0  0  0
   57.8988   72.8706   17.5548 H   0  0  0  0  0  0  0  0  0  0  0  0
   55.6107   73.5831   16.3725 H   0  0  0  0  0  0  0  0  0  0  0  0
   53.0320   74.0100   16.6800 H   0  0  0  0  0  0  0  0  0  0  0  0
   51.8260   74.8330   17.5920 H   0  0  0  0  0  0  0  0  0  0  0  0
   53.3133   74.8129   21.7792 H   0  0  0  0  0  0  0  0  0  0  0  0
   56.8553   74.3030   21.9469 H   0  0  0  0  0  0  0  0  0  0  0  0
   59.1760   75.0290   20.7550 H   0  0  0  0  0  0  0  0  0  0  0  0
   58.2954   73.2031   23.7222 H   0  0  0  0  0  0  0  0  0  0  0  0
   60.1150   73.8740   21.9230 H   0  0  0  0  0  0  0  0  0  0  0  0
  1  2  1  0
  2  3  1  0
  3  4  1  0
  4  5  1  0
  5  6  1  0
  6  7  1  0
  7  8  1  0
  8  9  2  0
  9 10  1  0
 10 11  2  0
 11 12  1  0
 11 13  1  0
 13 14  2  0
 14 15  1  0
 15 16  2  0
  6 17  1  0
 17 18  1  0
 17 19  1  0
 19 20  1  0
 19  4  1  0
 16  7  1  0
 16 10  1  0
  1 21  1  0
  1 22  1  0
  1 23  1  0
  3 24  1  0
  3 25  1  0
  4 26  1  6
  6 27  1  6
  8 28  1  0
  9 29  1  0
 12 30  1  0
 12 31  1  0
 14 32  1  0
 17 33  1  1
 18 34  1  0
 19 35  1  1
 20 36  1  0
M  END
>  <meeko>  (1) 
{"is_sidechain": [false], "free_energy": -8.25, "intermolecular_energy": -10.42, "internal_energy": -0.003}

$$$$
1nc1_ligand
     RDKit          3D

 36 38  0  0  0  0  0  0  0  0999 V2000
   56.4380   68.0330   22.5310 C   0  0  0  0  0  0  0  0  0  0  0  0
   55.4990   69.5770   22.5800 S   0  0  0  0  0  0  0  0  0  0  0  0
   56.7420   70.6960   23.3220 C   0  0  0  0  0  0  0  0  0  0  0  0
   57.7390   71.3220   22.3350 C   0  0  1  0  0  0  0  0  0  0  0  0
   57.0690   71.7880   21.1450 O   0  0  0  0  0  0  0  0  0  0  0  0
   57.1410   73.2310   21.1140 C   0  0  1  0  0  0  0  0  0  0  0  0
   55.8800   73.7650   20.6260 N   0  0  0  0  0  0  0  0  0  0  0  0
   54.9200   74.3460   21.4300 C   0  0  0  0  0  0  0  0  0  0  0  0
   53.8790   74.7570   20.6270 C   0  0  0  0  0  0  0  0  0  0  0  0
   54.2100   74.4150   19.2870 C   0  0  0  0  0  0  0  0  0  0  0  0
   53.6030   74.5530   18.0300 C   0  0  0  0  0  0  0  0  0  0  0  0
   52.3530   75.1260   17.8390 N   0  0  0  0  0  0  0  0  0  0  0  0
   54.2460   74.0940   16.9410 N   0  0  0  0  0  0  0  0  0  0  0  0
   55.4540   73.5250   17.1110 C   0  0  0  0  0  0  0  0  0  0  0  0
   56.1230   73.3170   18.2570 N   0  0  0  0  0  0  0  0  0  0  0  0
   55.4540   73.7990   19.3190 C   0  0  0  0  0  0  0  0  0  0  0  0
   57.5700   73.7040   22.5050 C   0  0  2  0  0  0  0  0  0  0  0  0
   58.3190   74.9200   22.4860 O   0  0  0  0  0  0  0  0  0  0  0  0
   58.4430   72.5390   22.9440 C   0  0  2  0  0  0  0  0  0  0  0  0
   59.7440   72.7270   22.3510 O   0  0  0  0  0  0  0  0  0  0  0  0
   56.6431   67.6958   23.5578 H   0  0  0  0  0  0  0  0  0  0  0  0
   55.8538   67.2652   22.0027 H   0  0  0  0  0  0  0  0  0  0  0  0
   57.3885   68.1985   22.0027 H   0  0  0  0  0  0  0  0  0  0  0  0
   56.2049   71.5132   23.8257 H   0  0  0  0  0  0  0  0  0  0  0  0
   57.3409   70.0738   24.0034 H   0  0  0  0  0  0  0  0  0  0  0  0
   58.4664   70.5324   22.0955 H   0  0  0  0  0  0  0  0  0  0  0  0
   57.8952   73.6125   20.4100 H   0  0  0  0  0  0  0  0  0  0  0  0
   54.9765   74.4608   22.5225 H   0  0  0  0  0  0  0  0  0  0  0  0
   52.9589   75.2586   20.9615 H   0  0  0  0  0  0  0  0  0  0  0  0
   51.9990   75.5020   18.7110 H   0  0  0  0  0  0  0  0  0  0  0  0
   52.2850   75.7260   17.0290 H   0  0  0  0  0  0  0  0  0  0  0  0
   55.9580   73.1869   16.1936 H   0  0  0  0  0  0  0  0  0  0  0  0
   56.7198   73.9366   23.1631 H   0  0  0  0  0  0  0  0  0  0  0  0
   57.7000   75.6110   22.8020 H   0  0  0  0  0  0  0  0  0  0  0  0
   58.5733   72.4377   24.0316 H   0  0  0  0  0  0  0  0  0  0  0  0
   60.1580   71.8490   22.2620 H   0  0  0  0  0  0  0  0  0  0  0  0
  1  2  1  0
  2  3  1  0
  3  4  1  0
  4  5  1  0
  5  6  1  0
  6  7  1  0
  7  8  1  0
  8  9  2  0
  9 10  1  0
 10 11  2  0
 11 12  1  0
 11 13  1  0
 13 14  2  0
 14 15  1  0
 15 16  2  0
  6 17  1  0
 17 18  1  0
 17 19  1  0
 19 20  1  0
 19  4  1  0
 16  7  1  0
 16 10  1  0
  1 21  1  0
  1 22  1  0
  1 23  1  0
  3 24  1  0
  3 25  1  0
  4 26  1  6
  6 27  1  6
  8 28  1  0
  9 29  1  0
 12 30  1  0
 12 31  1  0
 14 32  1  0
 17 33  1  1
 18 34  1  0
 19 35  1  1
 20 36  1  0
M  END
>  <meeko>  (2) 
{"is_sidechain": [false], "free_energy": -6.558, "intermolecular_energy": -7.815, "internal_energy": -0.471}

$$$$
