2br1_ligand
     RDKit          3D

 50 53  0  0  0  0  0  0  0  0999 V2000
    8.4820   -0.1660   13.9060 C   0  0  0  0  0  0  0  0  0  0  0  0
    8.9220   -1.5180   13.9220 O   0  0  0  0  0  0  0  0  0  0  0  0
   10.1310   -1.7810   13.3410 C   0  0  0  0  0  0  0  0  0  0  0  0
   10.8410   -0.6520   12.9290 C   0  0  0  0  0  0  0  0  0  0  0  0
   12.0930   -0.7750   12.3180 C   0  0  0  0  0  0  0  0  0  0  0  0
   12.6630   -2.0350   12.1000 C   0  0  0  0  0  0  0  0  0  0  0  0
   13.9680   -2.1920   11.4550 C   0  0  0  0  0  0  0  0  0  0  0  0
   14.1550   -1.4000   10.3550 O   0  0  0  0  0  0  0  0  0  0  0  0
   15.3950   -1.6490    9.8620 C   0  0  0  0  0  0  0  0  0  0  0  0
   15.8740   -1.0240    8.7800 N   0  0  0  0  0  0  0  0  0  0  0  0
   17.1170   -1.4220    8.5030 C   0  0  0  0  0  0  0  0  0  0  0  0
   17.8660   -2.3160    9.1740 N   0  0  0  0  0  0  0  0  0  0  0  0
   17.3530   -2.9300   10.2680 C   0  0  0  0  0  0  0  0  0  0  0  0
   18.1410   -3.8200   10.9930 N   0  0  0  0  0  0  0  0  0  0  0  0
   18.0010   -5.2410   10.6900 C   0  0  0  0  0  0  0  0  0  0  0  0
   18.8360   -6.1170   11.6280 C   0  0  0  0  0  0  0  0  0  0  0  0
   18.5410   -5.7940   12.9870 O   0  0  0  0  0  0  0  0  0  0  0  0
   16.0380   -2.5980   10.6420 C   0  0  0  0  0  0  0  0  0  0  0  0
   15.1040   -2.9610   11.6630 C   0  0  0  0  0  0  0  0  0  0  0  0
   15.2670   -3.9070   12.7460 C   0  0  0  0  0  0  0  0  0  0  0  0
   14.9360   -5.2530   12.5650 C   0  0  0  0  0  0  0  0  0  0  0  0
   15.0850   -6.1640   13.6180 C   0  0  0  0  0  0  0  0  0  0  0  0
   15.5620   -5.7330   14.8560 C   0  0  0  0  0  0  0  0  0  0  0  0
   15.7520   -6.5150   15.9620 O   0  0  0  0  0  0  0  0  0  0  0  0
   16.7030   -6.0580   16.9160 C   0  0  0  0  0  0  0  0  0  0  0  0
   15.8890   -4.3850   15.0330 C   0  0  0  0  0  0  0  0  0  0  0  0
   15.7430   -3.4730   13.9870 C   0  0  0  0  0  0  0  0  0  0  0  0
   11.9430   -3.1630   12.5240 C   0  0  0  0  0  0  0  0  0  0  0  0
   10.6890   -3.0410   13.1370 C   0  0  0  0  0  0  0  0  0  0  0  0
    8.3649    0.1937   14.9389 H   0  0  0  0  0  0  0  0  0  0  0  0
    9.2244    0.4550   13.3834 H   0  0  0  0  0  0  0  0  0  0  0  0
    7.5163   -0.1008   13.3834 H   0  0  0  0  0  0  0  0  0  0  0  0
   10.4101    0.3477   13.0870 H   0  0  0  0  0  0  0  0  0  0  0  0
   12.6362    0.1288   12.0050 H   0  0  0  0  0  0  0  0  0  0  0  0
   17.5860   -0.9641    7.6196 H   0  0  0  0  0  0  0  0  0  0  0  0
   18.1810   -3.6070   11.9830 H   0  0  0  0  0  0  0  0  0  0  0  0
   16.9424   -5.5223   10.7913 H   0  0  0  0  0  0  0  0  0  0  0  0
   18.3621   -5.4049    9.6640 H   0  0  0  0  0  0  0  0  0  0  0  0
   18.5993   -7.1756   11.4452 H   0  0  0  0  0  0  0  0  0  0  0  0
   19.9040   -5.9359   11.4368 H   0  0  0  0  0  0  0  0  0  0  0  0
   18.4180   -4.8290   13.0200 H   0  0  0  0  0  0  0  0  0  0  0  0
   14.5570   -5.5979   11.5916 H   0  0  0  0  0  0  0  0  0  0  0  0
   14.8252   -7.2224   13.4685 H   0  0  0  0  0  0  0  0  0  0  0  0
   16.3212   -6.2415   17.9312 H   0  0  0  0  0  0  0  0  0  0  0  0
   17.6506   -6.5991   16.7773 H   0  0  0  0  0  0  0  0  0  0  0  0
   16.8726   -4.9800   16.7773 H   0  0  0  0  0  0  0  0  0  0  0  0
   16.2654   -4.0398   16.0073 H   0  0  0  0  0  0  0  0  0  0  0  0
   16.0019   -2.4147   14.1385 H   0  0  0  0  0  0  0  0  0  0  0  0
   12.3725   -4.1642   12.3717 H   0  0  0  0  0  0  0  0  0  0  0  0
   10.1444   -3.9414   13.4576 H   0  0  0  0  0  0  0  0  0  0  0  0
  1  2  1  0
  2  3  1  0
  3  4  2  0
  4  5  1  0
  5  6  2  0
  6  7  1  0
  7  8  1  0
  8  9  1  0
  9 10  2  0
 10 11  1  0
 11 12  2  0
 12 13  1  0
 13 14  1  0
 14 15  1  0
 15 16  1  0
 16 17  1  0
 13 18  2  0
 18 19  1  0
 19 20  1  0
 20 21  2  0
 21 22  1  0
 22 23  2  0
 23 24  1  0
 24 25  1  0
 23 26  1  0
 26 27  2  0
  6 28  1  0
 28 29  2  0
 29  3  1  0
 19  7  2  0
 27 20  1  0
 18  9  1  0
  1 30  1  0
  1 31  1  0
  1 32  1  0
  4 33  1  0
  5 34  1  0
 11 35  1  0
 14 36  1  0
 15 37  1  0
 15 38  1  0
 16 39  1  0
 16 40  1  0
 17 41  1  0
 21 42  1  0
 22 43  1  0
 25 44  1  0
 25 45  1  0
 25 46  1  0
 26 47  1  0
 27 48  1  0
 28 49  1  0
 29 50  1  0
M  END
>  <meeko>  (1) 
{"is_sidechain": [false], "free_energy": -8.314, "intermolecular_energy": -11.959, "internal_energy": -1.738}

$$$$
2br1_ligand
     RDKit          3D

 50 53  0  0  0  0  0  0  0  0999 V2000
    8.3930   -1.3040   13.7300 C   0  0  0  0  0  0  0  0  0  0  0  0
    9.2730   -2.4110   13.8760 O   0  0  0  0  0  0  0  0  0  0  0  0
   10.4910   -2.3150   13.2650 C   0  0  0  0  0  0  0  0  0  0  0  0
   11.0730   -3.5370   12.9220 C   0  0  0  0  0  0  0  0  0  0  0  0
   12.3200   -3.5870   12.2910 C   0  0  0  0  0  0  0  0  0  0  0  0
   13.0190   -2.4110   11.9930 C   0  0  0  0  0  0  0  0  0  0  0  0
   14.3290   -2.4370   11.3410 C   0  0  0  0  0  0  0  0  0  0  0  0
   14.4600   -1.5610   10.2980 O   0  0  0  0  0  0  0  0  0  0  0  0
   15.7140   -1.6930    9.7920 C   0  0  0  0  0  0  0  0  0  0  0  0
   16.1460   -0.9650    8.7560 N   0  0  0  0  0  0  0  0  0  0  0  0
   17.4130   -1.2590    8.4540 C   0  0  0  0  0  0  0  0  0  0  0  0
   18.2210   -2.1460    9.0640 N   0  0  0  0  0  0  0  0  0  0  0  0
   17.7530   -2.8660   10.1130 C   0  0  0  0  0  0  0  0  0  0  0  0
   18.6000   -3.7500   10.7760 N   0  0  0  0  0  0  0  0  0  0  0  0
   19.9680   -3.3100   11.0270 C   0  0  0  0  0  0  0  0  0  0  0  0
   20.9970   -4.1730   10.2920 C   0  0  0  0  0  0  0  0  0  0  0  0
   20.6770   -4.2340    8.9020 O   0  0  0  0  0  0  0  0  0  0  0  0
   16.4200   -2.6480   10.5060 C   0  0  0  0  0  0  0  0  0  0  0  0
   15.5150   -3.1410   11.4980 C   0  0  0  0  0  0  0  0  0  0  0  0
   15.7430   -4.1460   12.5140 C   0  0  0  0  0  0  0  0  0  0  0  0
   15.5830   -5.5020   12.2150 C   0  0  0  0  0  0  0  0  0  0  0  0
   15.7940   -6.4720   13.2040 C   0  0  0  0  0  0  0  0  0  0  0  0
   16.1630   -6.0900   14.4940 C   0  0  0  0  0  0  0  0  0  0  0  0
   16.3980   -6.9310   15.5470 O   0  0  0  0  0  0  0  0  0  0  0  0
   17.4470   -6.5690   16.4360 C   0  0  0  0  0  0  0  0  0  0  0  0
   16.3190   -4.7320   14.7880 C   0  0  0  0  0  0  0  0  0  0  0  0
   16.1110   -3.7620   13.8060 C   0  0  0  0  0  0  0  0  0  0  0  0
   12.4230   -1.1880   12.3360 C   0  0  0  0  0  0  0  0  0  0  0  0
   11.1730   -1.1370   12.9680 C   0  0  0  0  0  0  0  0  0  0  0  0
    8.0998   -0.9351   14.7240 H   0  0  0  0  0  0  0  0  0  0  0  0
    8.9022   -0.5013   13.1765 H   0  0  0  0  0  0  0  0  0  0  0  0
    7.4961   -1.6191   13.1765 H   0  0  0  0  0  0  0  0  0  0  0  0
   10.5433   -4.4734   13.1513 H   0  0  0  0  0  0  0  0  0  0  0  0
   12.7566   -4.5612   12.0258 H   0  0  0  0  0  0  0  0  0  0  0  0
   17.8484   -0.7109    7.6054 H   0  0  0  0  0  0  0  0  0  0  0  0
   18.5220   -4.7050   10.4460 H   0  0  0  0  0  0  0  0  0  0  0  0
   20.0728   -2.2685   10.6888 H   0  0  0  0  0  0  0  0  0  0  0  0
   20.1596   -3.4016   12.1063 H   0  0  0  0  0  0  0  0  0  0  0  0
   21.9975   -3.7332   10.4168 H   0  0  0  0  0  0  0  0  0  0  0  0
   20.9824   -5.1897   10.7116 H   0  0  0  0  0  0  0  0  0  0  0  0
   21.0020   -3.4050    8.5080 H   0  0  0  0  0  0  0  0  0  0  0  0
   15.2905   -5.8087   11.1999 H   0  0  0  0  0  0  0  0  0  0  0  0
   15.6683   -7.5378   12.9625 H   0  0  0  0  0  0  0  0  0  0  0  0
   17.1046   -6.6872   17.4746 H   0  0  0  0  0  0  0  0  0  0  0  0
   18.3170   -7.2189   16.2606 H   0  0  0  0  0  0  0  0  0  0  0  0
   17.7310   -5.5209   16.2606 H   0  0  0  0  0  0  0  0  0  0  0  0
   16.6087   -4.4248   15.8037 H   0  0  0  0  0  0  0  0  0  0  0  0
   16.2367   -2.6966   14.0490 H   0  0  0  0  0  0  0  0  0  0  0  0
   12.9478   -0.2495   12.1040 H   0  0  0  0  0  0  0  0  0  0  0  0
   10.7296   -0.1650   13.2300 H   0  0  0  0  0  0  0  0  0  0  0  0
  1  2  1  0
  2  3  1  0
  3  4  2  0
  4  5  1  0
  5  6  2  0
  6  7  1  0
  7  8  1  0
  8  9  1  0
  9 10  2  0
 10 11  1  0
 11 12  2  0
 12 13  1  0
 13 14  1  0
 14 15  1  0
 15 16  1  0
 16 17  1  0
 13 18  2  0
 18 19  1  0
 19 20  1  0
 20 21  2  0
 21 22  1  0
 22 23  2  0
 23 24  1  0
 24 25  1  0
 23 26  1  0
 26 27  2  0
  6 28  1  0
 28 29  2  0
 29  3  1  0
 19  7  2  0
 27 20  1  0
 18  9  1  0
  1 30  1  0
  1 31  1  0
  1 32  1  0
  4 33  1  0
  5 34  1  0
 11 35  1  0
 14 36  1  0
 15 37  1  0
 15 38  1  0
 16 39  1  0
 16 40  1  0
 17 41  1  0
 21 42  1  0
 22 43  1  0
 25 44  1  0
 25 45  1  0
 25 46  1  0
 26 47  1  0
 27 48  1  0
 28 49  1  0
 29 50  1  0
M  END
>  <meeko>  (2) 
{"is_sidechain": [false], "free_energy": -8.193, "intermolecular_energy": -11.814, "internal_energy": -1.709}

$$$$
2br1_ligand
     RDKit          3D

 50 53  0  0  0  0  0  0  0  0999 V2000
    8.4690    0.3060   14.0450 C   0  0  0  0  0  0  0  0  0  0  0  0
    8.7350   -1.0690   13.8000 O   0  0  0  0  0  0  0  0  0  0  0  0
    9.9860   -1.3840   13.3480 C   0  0  0  0  0  0  0  0  0  0  0  0
   10.2810   -2.7490   13.3430 C   0  0  0  0  0  0  0  0  0  0  0  0
   11.5250   -3.2130   12.9050 C   0  0  0  0  0  0  0  0  0  0  0  0
   12.5090   -2.3190   12.4660 C   0  0  0  0  0  0  0  0  0  0  0  0
   13.8220   -2.7780   12.0110 C   0  0  0  0  0  0  0  0  0  0  0  0
   14.3320   -2.0780   10.9520 O   0  0  0  0  0  0  0  0  0  0  0  0
   15.5420   -2.6090   10.6390 C   0  0  0  0  0  0  0  0  0  0  0  0
   16.2930   -2.1350    9.6370 N   0  0  0  0  0  0  0  0  0  0  0  0
   17.4430   -2.8060    9.5370 C   0  0  0  0  0  0  0  0  0  0  0  0
   17.8720   -3.8250   10.3040 N   0  0  0  0  0  0  0  0  0  0  0  0
   17.0890   -4.2790   11.3120 C   0  0  0  0  0  0  0  0  0  0  0  0
   17.5500   -5.3020   12.1380 N   0  0  0  0  0  0  0  0  0  0  0  0
   17.1070   -6.6590   11.8380 C   0  0  0  0  0  0  0  0  0  0  0  0
   17.2800   -7.6010   13.0310 C   0  0  0  0  0  0  0  0  0  0  0  0
   18.1670   -8.6660   12.6870 O   0  0  0  0  0  0  0  0  0  0  0  0
   15.8430   -3.6540   11.4980 C   0  0  0  0  0  0  0  0  0  0  0  0
   14.7190   -3.7730   12.3750 C   0  0  0  0  0  0  0  0  0  0  0  0
   14.5150   -4.7020   13.4660 C   0  0  0  0  0  0  0  0  0  0  0  0
   15.0530   -4.4390   14.7290 C   0  0  0  0  0  0  0  0  0  0  0  0
   14.8630   -5.3450   15.7790 C   0  0  0  0  0  0  0  0  0  0  0  0
   14.1380   -6.5180   15.5720 C   0  0  0  0  0  0  0  0  0  0  0  0
   13.8810   -7.4830   16.5070 O   0  0  0  0  0  0  0  0  0  0  0  0
   14.4540   -7.2970   17.7950 C   0  0  0  0  0  0  0  0  0  0  0  0
   13.6040   -6.7780   14.3060 C   0  0  0  0  0  0  0  0  0  0  0  0
   13.7900   -5.8780   13.2560 C   0  0  0  0  0  0  0  0  0  0  0  0
   12.2000   -0.9490   12.4690 C   0  0  0  0  0  0  0  0  0  0  0  0
   10.9530   -0.4840   12.9070 C   0  0  0  0  0  0  0  0  0  0  0  0
    8.4343    0.4851   15.1298 H   0  0  0  0  0  0  0  0  0  0  0  0
    9.2652    0.9189   13.5974 H   0  0  0  0  0  0  0  0  0  0  0  0
    7.5016    0.5778   13.5974 H   0  0  0  0  0  0  0  0  0  0  0  0
    9.5243   -3.4689   13.6884 H   0  0  0  0  0  0  0  0  0  0  0  0
   11.7331   -4.2931   12.9053 H   0  0  0  0  0  0  0  0  0  0  0  0
   18.1208   -2.4877    8.7312 H   0  0  0  0  0  0  0  0  0  0  0  0
   17.5280   -5.0630   13.1230 H   0  0  0  0  0  0  0  0  0  0  0  0
   16.0430   -6.6309   11.5603 H   0  0  0  0  0  0  0  0  0  0  0  0
   17.7263   -7.0416   11.0133 H   0  0  0  0  0  0  0  0  0  0  0  0
   17.6963   -7.0401   13.8808 H   0  0  0  0  0  0  0  0  0  0  0  0
   16.3008   -8.0205   13.3051 H   0  0  0  0  0  0  0  0  0  0  0  0
   17.8210   -9.4640   13.1220 H   0  0  0  0  0  0  0  0  0  0  0  0
   15.6279   -3.5166   14.8985 H   0  0  0  0  0  0  0  0  0  0  0  0
   15.2872   -5.1308   16.7711 H   0  0  0  0  0  0  0  0  0  0  0  0
   13.7082   -7.5391   18.5665 H   0  0  0  0  0  0  0  0  0  0  0  0
   15.3258   -7.9583   17.9074 H   0  0  0  0  0  0  0  0  0  0  0  0
   14.7712   -6.2498   17.9074 H   0  0  0  0  0  0  0  0  0  0  0  0
   13.0313   -7.7017   14.1361 H   0  0  0  0  0  0  0  0  0  0  0  0
   13.3664   -6.0940   12.2641 H   0  0  0  0  0  0  0  0  0  0  0  0
   12.9524   -0.2263   12.1203 H   0  0  0  0  0  0  0  0  0  0  0  0
   10.7372    0.5946   12.9025 H   0  0  0  0  0  0  0  0  0  0  0  0
  1  2  1  0
  2  3  1  0
  3  4  2  0
  4  5  1  0
  5  6  2  0
  6  7  1  0
  7  8  1  0
  8  9  1  0
  9 10  2  0
 10 11  1  0
 11 12  2  0
 12 13  1  0
 13 14  1  0
 14 15  1  0
 15 16  1  0
 16 17  1  0
 13 18  2  0
 18 19  1  0
 19 20  1  0
 20 21  2  0
 21 22  1  0
 22 23  2  0
 23 24  1  0
 24 25  1  0
 23 26  1  0
 26 27  2  0
  6 28  1  0
 28 29  2  0
 29  3  1  0
 19  7  2  0
 27 20  1  0
 18  9  1  0
  1 30  1  0
  1 31  1  0
  1 32  1  0
  4 33  1  0
  5 34  1  0
 11 35  1  0
 14 36  1  0
 15 37  1  0
 15 38  1  0
 16 39  1  0
 16 40  1  0
 17 41  1  0
 21 42  1  0
 22 43  1  0
 25 44  1  0
 25 45  1  0
 25 46  1  0
 26 47  1  0
 27 48  1  0
 28 49  1  0
 29 50  1  0
M  END
>  <meeko>  (3) 
{"is_sidechain": [false], "free_energy": -7.917, "intermolecular_energy": -11.577, "internal_energy": -1.549}

$$$$
2br1_ligand
     RDKit          3D

 50 53  0  0  0  0  0  0  0  0999 V2000
   20.2610   -2.1140    8.4070 C   0  0  0  0  0  0  0  0  0  0  0  0
   19.0750   -1.3420    8.2730 O   0  0  0  0  0  0  0  0  0  0  0  0
   17.9910   -1.7440    9.0030 C   0  0  0  0  0  0  0  0  0  0  0  0
   18.2940   -2.2840   10.2530 C   0  0  0  0  0  0  0  0  0  0  0  0
   17.2800   -2.7360   11.1050 C   0  0  0  0  0  0  0  0  0  0  0  0
   15.9360   -2.6640   10.7200 C   0  0  0  0  0  0  0  0  0  0  0  0
   14.8580   -3.1380   11.5890 C   0  0  0  0  0  0  0  0  0  0  0  0
   13.7330   -2.3600   11.5730 O   0  0  0  0  0  0  0  0  0  0  0  0
   12.8250   -2.9130   12.4170 C   0  0  0  0  0  0  0  0  0  0  0  0
   11.6150   -2.3770   12.6170 N   0  0  0  0  0  0  0  0  0  0  0  0
   10.8990   -3.1090   13.4730 C   0  0  0  0  0  0  0  0  0  0  0  0
   11.2620   -4.2500   14.0880 N   0  0  0  0  0  0  0  0  0  0  0  0
   12.4930   -4.7690   13.8610 C   0  0  0  0  0  0  0  0  0  0  0  0
   12.8550   -5.9740   14.4570 N   0  0  0  0  0  0  0  0  0  0  0  0
   13.6060   -5.9060   15.7070 C   0  0  0  0  0  0  0  0  0  0  0  0
   14.1190   -7.2790   16.1480 C   0  0  0  0  0  0  0  0  0  0  0  0
   13.5980   -7.6010   17.4380 O   0  0  0  0  0  0  0  0  0  0  0  0
   13.3420   -4.0670   12.9860 C   0  0  0  0  0  0  0  0  0  0  0  0
   14.6660   -4.2010   12.4610 C   0  0  0  0  0  0  0  0  0  0  0  0
   15.6440   -5.2350   12.7220 C   0  0  0  0  0  0  0  0  0  0  0  0
   15.7460   -6.3420   11.8750 C   0  0  0  0  0  0  0  0  0  0  0  0
   16.6860   -7.3460   12.1370 C   0  0  0  0  0  0  0  0  0  0  0  0
   17.5250   -7.2500   13.2470 C   0  0  0  0  0  0  0  0  0  0  0  0
   18.4810   -8.1560   13.6150 O   0  0  0  0  0  0  0  0  0  0  0  0
   18.6110   -8.4230   15.0070 C   0  0  0  0  0  0  0  0  0  0  0  0
   17.4170   -6.1420   14.0930 C   0  0  0  0  0  0  0  0  0  0  0  0
   16.4830   -5.1380   13.8360 C   0  0  0  0  0  0  0  0  0  0  0  0
   15.6420   -2.1130    9.4630 C   0  0  0  0  0  0  0  0  0  0  0  0
   16.6570   -1.6590    8.6090 C   0  0  0  0  0  0  0  0  0  0  0  0
   20.4850   -2.2598    9.4740 H   0  0  0  0  0  0  0  0  0  0  0  0
   20.1179   -3.0925    7.9253 H   0  0  0  0  0  0  0  0  0  0  0  0
   21.0979   -1.5871    7.9253 H   0  0  0  0  0  0  0  0  0  0  0  0
   19.3439   -2.3555   10.5732 H   0  0  0  0  0  0  0  0  0  0  0  0
   17.5421   -3.1527   12.0887 H   0  0  0  0  0  0  0  0  0  0  0  0
    9.8907   -2.7348   13.7038 H   0  0  0  0  0  0  0  0  0  0  0  0
   13.2030   -6.6600   13.7980 H   0  0  0  0  0  0  0  0  0  0  0  0
   14.4660   -5.2344   15.5676 H   0  0  0  0  0  0  0  0  0  0  0  0
   12.9284   -5.5314   16.4884 H   0  0  0  0  0  0  0  0  0  0  0  0
   13.7941   -8.0399   15.4231 H   0  0  0  0  0  0  0  0  0  0  0  0
   15.2177   -7.2567   16.1963 H   0  0  0  0  0  0  0  0  0  0  0  0
   14.3660   -7.7850   18.0070 H   0  0  0  0  0  0  0  0  0  0  0  0
   15.0854   -6.4248   10.9994 H   0  0  0  0  0  0  0  0  0  0  0  0
   16.7631   -8.2135   11.4651 H   0  0  0  0  0  0  0  0  0  0  0  0
   18.2005   -7.5799   15.5820 H   0  0  0  0  0  0  0  0  0  0  0  0
   18.0590   -9.3409   15.2574 H   0  0  0  0  0  0  0  0  0  0  0  0
   19.6740   -8.5546   15.2574 H   0  0  0  0  0  0  0  0  0  0  0  0
   18.0754   -6.0611   14.9705 H   0  0  0  0  0  0  0  0  0  0  0  0
   16.4069   -4.2712   14.5090 H   0  0  0  0  0  0  0  0  0  0  0  0
   14.5930   -2.0357    9.1411 H   0  0  0  0  0  0  0  0  0  0  0  0
   16.4001   -1.2353    7.6269 H   0  0  0  0  0  0  0  0  0  0  0  0
  1  2  1  0
  2  3  1  0
  3  4  2  0
  4  5  1  0
  5  6  2  0
  6  7  1  0
  7  8  1  0
  8  9  1  0
  9 10  2  0
 10 11  1  0
 11 12  2  0
 12 13  1  0
 13 14  1  0
 14 15  1  0
 15 16  1  0
 16 17  1  0
 13 18  2  0
 18 19  1  0
 19 20  1  0
 20 21  2  0
 21 22  1  0
 22 23  2  0
 23 24  1  0
 24 25  1  0
 23 26  1  0
 26 27  2  0
  6 28  1  0
 28 29  2  0
 29  3  1  0
 19  7  2  0
 27 20  1  0
 18  9  1  0
  1 30  1  0
  1 31  1  0
  1 32  1  0
  4 33  1  0
  5 34  1  0
 11 35  1  0
 14 36  1  0
 15 37  1  0
 15 38  1  0
 16 39  1  0
 16 40  1  0
 17 41  1  0
 21 42  1  0
 22 43  1  0
 25 44  1  0
 25 45  1  0
 25 46  1  0
 26 47  1  0
 27 48  1  0
 28 49  1  0
 29 50  1  0
M  END
>  <meeko>  (4) 
{"is_sidechain": [false], "free_energy": -7.878, "intermolecular_energy": -11.51, "internal_energy": -1.559}

$$$$
2br1_ligand
     RDKit          3D

 50 53  0  0  0  0  0  0  0  0999 V2000
   23.0990   -1.6230    8.3880 C   0  0  0  0  0  0  0  0  0  0  0  0
   22.2570   -2.7100    8.0250 O   0  0  0  0  0  0  0  0  0  0  0  0
   20.9870   -2.7010    8.5290 C   0  0  0  0  0  0  0  0  0  0  0  0
   20.1690   -1.6810    8.0390 C   0  0  0  0  0  0  0  0  0  0  0  0
   18.8440   -1.5530    8.4690 C   0  0  0  0  0  0  0  0  0  0  0  0
   18.3070   -2.4420    9.4070 C   0  0  0  0  0  0  0  0  0  0  0  0
   16.9270   -2.3250    9.8810 C   0  0  0  0  0  0  0  0  0  0  0  0
   16.2580   -1.2290    9.4100 O   0  0  0  0  0  0  0  0  0  0  0  0
   15.0020   -1.2470    9.9270 C   0  0  0  0  0  0  0  0  0  0  0  0
   14.1000   -0.2980    9.6480 N   0  0  0  0  0  0  0  0  0  0  0  0
   12.9380   -0.5440   10.2570 C   0  0  0  0  0  0  0  0  0  0  0  0
   12.6270   -1.5850   11.0520 N   0  0  0  0  0  0  0  0  0  0  0  0
   13.5620   -2.5300   11.3110 C   0  0  0  0  0  0  0  0  0  0  0  0
   13.2300   -3.6330   12.0940 N   0  0  0  0  0  0  0  0  0  0  0  0
   11.8130   -3.8910   12.3260 C   0  0  0  0  0  0  0  0  0  0  0  0
   11.3670   -3.4550   13.7240 C   0  0  0  0  0  0  0  0  0  0  0  0
   11.0620   -2.0610   13.7260 O   0  0  0  0  0  0  0  0  0  0  0  0
   14.8330   -2.3620   10.7330 C   0  0  0  0  0  0  0  0  0  0  0  0
   16.0880   -3.0490   10.7160 C   0  0  0  0  0  0  0  0  0  0  0  0
   16.4570   -4.2780   11.3850 C   0  0  0  0  0  0  0  0  0  0  0  0
   16.3910   -5.4990   10.7090 C   0  0  0  0  0  0  0  0  0  0  0  0
   16.7390   -6.6880   11.3640 C   0  0  0  0  0  0  0  0  0  0  0  0
   17.1510   -6.6600   12.6960 C   0  0  0  0  0  0  0  0  0  0  0  0
   17.5160   -7.7420   13.4490 O   0  0  0  0  0  0  0  0  0  0  0  0
   17.5220   -7.5700   14.8610 C   0  0  0  0  0  0  0  0  0  0  0  0
   17.2130   -5.4360   13.3690 C   0  0  0  0  0  0  0  0  0  0  0  0
   16.8680   -4.2490   12.7210 C   0  0  0  0  0  0  0  0  0  0  0  0
   19.1360   -3.4680    9.8900 C   0  0  0  0  0  0  0  0  0  0  0  0
   20.4630   -3.5970    9.4580 C   0  0  0  0  0  0  0  0  0  0  0  0
   23.1540   -1.5520    9.4843 H   0  0  0  0  0  0  0  0  0  0  0  0
   24.1072   -1.7881    7.9802 H   0  0  0  0  0  0  0  0  0  0  0  0
   22.6871   -0.6881    7.9802 H   0  0  0  0  0  0  0  0  0  0  0  0
   20.5721   -0.9681    7.3046 H   0  0  0  0  0  0  0  0  0  0  0  0
   18.2170   -0.7444    8.0652 H   0  0  0  0  0  0  0  0  0  0  0  0
   12.1383    0.1924   10.0891 H   0  0  0  0  0  0  0  0  0  0  0  0
   13.8120   -3.7310   12.9170 H   0  0  0  0  0  0  0  0  0  0  0  0
   11.2253   -3.3383   11.5783 H   0  0  0  0  0  0  0  0  0  0  0  0
   11.6492   -4.9755   12.2423 H   0  0  0  0  0  0  0  0  0  0  0  0
   10.4718   -4.0242   14.0149 H   0  0  0  0  0  0  0  0  0  0  0  0
   12.1802   -3.6479   14.4391 H   0  0  0  0  0  0  0  0  0  0  0  0
   11.2010   -1.7500   14.6370 H   0  0  0  0  0  0  0  0  0  0  0  0
   16.0647   -5.5271    9.6589 H   0  0  0  0  0  0  0  0  0  0  0  0
   16.6870   -7.6460   10.8260 H   0  0  0  0  0  0  0  0  0  0  0  0
   17.4877   -8.5545   15.3504 H   0  0  0  0  0  0  0  0  0  0  0  0
   18.4391   -7.0425   15.1622 H   0  0  0  0  0  0  0  0  0  0  0  0
   16.6439   -6.9799   15.1622 H   0  0  0  0  0  0  0  0  0  0  0  0
   17.5370   -5.4083   14.4198 H   0  0  0  0  0  0  0  0  0  0  0  0
   16.9194   -3.2919   13.2607 H   0  0  0  0  0  0  0  0  0  0  0  0
   18.7355   -4.1847   10.6221 H   0  0  0  0  0  0  0  0  0  0  0  0
   21.0923   -4.4078    9.8535 H   0  0  0  0  0  0  0  0  0  0  0  0
  1  2  1  0
  2  3  1  0
  3  4  2  0
  4  5  1  0
  5  6  2  0
  6  7  1  0
  7  8  1  0
  8  9  1  0
  9 10  2  0
 10 11  1  0
 11 12  2  0
 12 13  1  0
 13 14  1  0
 14 15  1  0
 15 16  1  0
 16 17  1  0
 13 18  2  0
 18 19  1  0
 19 20  1  0
 20 21  2  0
 21 22  1  0
 22 23  2  0
 23 24  1  0
 24 25  1  0
 23 26  1  0
 26 27  2  0
  6 28  1  0
 28 29  2  0
 29  3  1  0
 19  7  2  0
 27 20  1  0
 18  9  1  0
  1 30  1  0
  1 31  1  0
  1 32  1  0
  4 33  1  0
  5 34  1  0
 11 35  1  0
 14 36  1  0
 15 37  1  0
 15 38  1  0
 16 39  1  0
 16 40  1  0
 17 41  1  0
 21 42  1  0
 22 43  1  0
 25 44  1  0
 25 45  1  0
 25 46  1  0
 26 47  1  0
 27 48  1  0
 28 49  1  0
 29 50  1  0
M  END
>  <meeko>  (5) 
{"is_sidechain": [false], "free_energy": -7.753, "intermolecular_energy": -11.456, "internal_energy": -1.434}

$$$$
2br1_ligand
     RDKit          3D

 50 53  0  0  0  0  0  0  0  0999 V2000
   15.7180   -0.1770    8.8040 C   0  0  0  0  0  0  0  0  0  0  0  0
   16.8200   -1.0730    8.7430 O   0  0  0  0  0  0  0  0  0  0  0  0
   16.8880   -2.0350    9.7110 C   0  0  0  0  0  0  0  0  0  0  0  0
   15.8860   -3.0040    9.6460 C   0  0  0  0  0  0  0  0  0  0  0  0
   15.8350   -4.0480   10.5760 C   0  0  0  0  0  0  0  0  0  0  0  0
   16.7850   -4.1430   11.5990 C   0  0  0  0  0  0  0  0  0  0  0  0
   16.7490   -5.2200   12.5890 C   0  0  0  0  0  0  0  0  0  0  0  0
   17.9160   -5.9240   12.7050 O   0  0  0  0  0  0  0  0  0  0  0  0
   17.7380   -6.8830   13.6490 C   0  0  0  0  0  0  0  0  0  0  0  0
   18.7090   -7.7390   13.9900 N   0  0  0  0  0  0  0  0  0  0  0  0
   18.3020   -8.5730   14.9500 C   0  0  0  0  0  0  0  0  0  0  0  0
   17.1010   -8.6100   15.5560 N   0  0  0  0  0  0  0  0  0  0  0  0
   16.1410   -7.7260   15.1900 C   0  0  0  0  0  0  0  0  0  0  0  0
   14.9130   -7.7300   15.8470 N   0  0  0  0  0  0  0  0  0  0  0  0
   14.7160   -6.7480   16.9080 C   0  0  0  0  0  0  0  0  0  0  0  0
   14.3890   -7.4050   18.2510 C   0  0  0  0  0  0  0  0  0  0  0  0
   13.6570   -6.4960   19.0730 O   0  0  0  0  0  0  0  0  0  0  0  0
   16.4560   -6.8100   14.1710 C   0  0  0  0  0  0  0  0  0  0  0  0
   15.8110   -5.7430   13.4690 C   0  0  0  0  0  0  0  0  0  0  0  0
   14.4640   -5.2380   13.6270 C   0  0  0  0  0  0  0  0  0  0  0  0
   13.3780   -5.9430   13.0990 C   0  0  0  0  0  0  0  0  0  0  0  0
   12.0770   -5.4460   13.2440 C   0  0  0  0  0  0  0  0  0  0  0  0
   11.8560   -4.2430   13.9150 C   0  0  0  0  0  0  0  0  0  0  0  0
   10.6420   -3.6490   14.1240 O   0  0  0  0  0  0  0  0  0  0  0  0
   10.3730   -2.4610   13.3900 C   0  0  0  0  0  0  0  0  0  0  0  0
   12.9460   -3.5400   14.4380 C   0  0  0  0  0  0  0  0  0  0  0  0
   14.2440   -4.0310   14.2970 C   0  0  0  0  0  0  0  0  0  0  0  0
   17.7930   -3.1670   11.6520 C   0  0  0  0  0  0  0  0  0  0  0  0
   17.8450   -2.1210   10.7200 C   0  0  0  0  0  0  0  0  0  0  0  0
   15.4683    0.0260    9.8559 H   0  0  0  0  0  0  0  0  0  0  0  0
   15.9831    0.7650    8.3017 H   0  0  0  0  0  0  0  0  0  0  0  0
   14.8499   -0.6287    8.3017 H   0  0  0  0  0  0  0  0  0  0  0  0
   15.1260   -2.9463    8.8529 H   0  0  0  0  0  0  0  0  0  0  0  0
   15.0386   -4.8032   10.5021 H   0  0  0  0  0  0  0  0  0  0  0  0
   19.0367   -9.3196   15.2859 H   0  0  0  0  0  0  0  0  0  0  0  0
   14.5800   -8.6600   16.0720 H   0  0  0  0  0  0  0  0  0  0  0  0
   15.6366   -6.1561   17.0181 H   0  0  0  0  0  0  0  0  0  0  0  0
   13.8630   -6.1132   16.6262 H   0  0  0  0  0  0  0  0  0  0  0  0
   13.7843   -8.3074   18.0776 H   0  0  0  0  0  0  0  0  0  0  0  0
   15.3265   -7.6764   18.7584 H   0  0  0  0  0  0  0  0  0  0  0  0
   12.7910   -6.9080   19.2350 H   0  0  0  0  0  0  0  0  0  0  0  0
   13.5463   -6.8914   12.5678 H   0  0  0  0  0  0  0  0  0  0  0  0
   11.2266   -6.0058   12.8276 H   0  0  0  0  0  0  0  0  0  0  0  0
   10.1854   -1.6326   14.0890 H   0  0  0  0  0  0  0  0  0  0  0  0
   11.2387   -2.2174   12.7566 H   0  0  0  0  0  0  0  0  0  0  0  0
    9.4868   -2.6141   12.7566 H   0  0  0  0  0  0  0  0  0  0  0  0
   12.7780   -2.5898   14.9661 H   0  0  0  0  0  0  0  0  0  0  0  0
   15.0935   -3.4691   14.7125 H   0  0  0  0  0  0  0  0  0  0  0  0
   18.5575   -3.2243   12.4409 H   0  0  0  0  0  0  0  0  0  0  0  0
   18.6429   -1.3667   10.7855 H   0  0  0  0  0  0  0  0  0  0  0  0
  1  2  1  0
  2  3  1  0
  3  4  2  0
  4  5  1  0
  5  6  2  0
  6  7  1  0
  7  8  1  0
  8  9  1  0
  9 10  2  0
 10 11  1  0
 11 12  2  0
 12 13  1  0
 13 14  1  0
 14 15  1  0
 15 16  1  0
 16 17  1  0
 13 18  2  0
 18 19  1  0
 19 20  1  0
 20 21  2  0
 21 22  1  0
 22 23  2  0
 23 24  1  0
 24 25  1  0
 23 26  1  0
 26 27  2  0
  6 28  1  0
 28 29  2  0
 29  3  1  0
 19  7  2  0
 27 20  1  0
 18  9  1  0
  1 30  1  0
  1 31  1  0
  1 32  1  0
  4 33  1  0
  5 34  1  0
 11 35  1  0
 14 36  1  0
 15 37  1  0
 15 38  1  0
 16 39  1  0
 16 40  1  0
 17 41  1  0
 21 42  1  0
 22 43  1  0
 25 44  1  0
 25 45  1  0
 25 46  1  0
 26 47  1  0
 27 48  1  0
 28 49  1  0
 29 50  1  0
M  END
>  <meeko>  (6) 
{"is_sidechain": [false], "free_energy": -7.594, "intermolecular_energy": -11.046, "internal_energy": -1.616}

$$$$
2br1_ligand
     RDKit          3D

 50 53  0  0  0  0  0  0  0  0999 V2000
   24.3560   -4.4150    8.6490 C   0  0  0  0  0  0  0  0  0  0  0  0
   23.6890   -4.7450    9.8610 O   0  0  0  0  0  0  0  0  0  0  0  0
   22.4130   -4.2790   10.0090 C   0  0  0  0  0  0  0  0  0  0  0  0
   21.7440   -4.0090    8.8140 C   0  0  0  0  0  0  0  0  0  0  0  0
   20.4320   -3.5260    8.8180 C   0  0  0  0  0  0  0  0  0  0  0  0
   19.7570   -3.2960   10.0220 C   0  0  0  0  0  0  0  0  0  0  0  0
   18.3870   -2.7830   10.0540 C   0  0  0  0  0  0  0  0  0  0  0  0
   18.2090   -1.5980    9.3930 O   0  0  0  0  0  0  0  0  0  0  0  0
   16.9030   -1.2440    9.5060 C   0  0  0  0  0  0  0  0  0  0  0  0
   16.4170   -0.1230    8.9590 N   0  0  0  0  0  0  0  0  0  0  0  0
   15.1080   -0.0030    9.1890 C   0  0  0  0  0  0  0  0  0  0  0  0
   14.3070   -0.8510    9.8600 N   0  0  0  0  0  0  0  0  0  0  0  0
   14.8300   -1.9790   10.3980 C   0  0  0  0  0  0  0  0  0  0  0  0
   13.9960   -2.8830   11.0520 N   0  0  0  0  0  0  0  0  0  0  0  0
   13.6540   -2.5980   12.4420 C   0  0  0  0  0  0  0  0  0  0  0  0
   12.1480   -2.4080   12.6390 C   0  0  0  0  0  0  0  0  0  0  0  0
   11.8350   -2.4180   14.0320 O   0  0  0  0  0  0  0  0  0  0  0  0
   16.2090   -2.1990   10.2320 C   0  0  0  0  0  0  0  0  0  0  0  0
   17.1760   -3.1870   10.6010 C   0  0  0  0  0  0  0  0  0  0  0  0
   16.9850   -4.4030   11.3610 C   0  0  0  0  0  0  0  0  0  0  0  0
   16.6730   -5.6010   10.7120 C   0  0  0  0  0  0  0  0  0  0  0  0
   16.4770   -6.7740   11.4520 C   0  0  0  0  0  0  0  0  0  0  0  0
   16.5890   -6.7540   12.8420 C   0  0  0  0  0  0  0  0  0  0  0  0
   16.4220   -7.8230   13.6790 O   0  0  0  0  0  0  0  0  0  0  0  0
   16.5990   -7.5830   15.0700 C   0  0  0  0  0  0  0  0  0  0  0  0
   16.8980   -5.5520   13.4870 C   0  0  0  0  0  0  0  0  0  0  0  0
   17.0950   -4.3810   12.7550 C   0  0  0  0  0  0  0  0  0  0  0  0
   20.4360   -3.5760   11.2190 C   0  0  0  0  0  0  0  0  0  0  0  0
   21.7510   -4.0610   11.2150 C   0  0  0  0  0  0  0  0  0  0  0  0
   25.3201   -3.9380    8.8792 H   0  0  0  0  0  0  0  0  0  0  0  0
   24.5302   -5.3309    8.0652 H   0  0  0  0  0  0  0  0  0  0  0  0
   23.7336   -3.7209    8.0652 H   0  0  0  0  0  0  0  0  0  0  0  0
   22.2564   -4.1787    7.8555 H   0  0  0  0  0  0  0  0  0  0  0  0
   19.9243   -3.3244    7.8633 H   0  0  0  0  0  0  0  0  0  0  0  0
   14.6257    0.8975    8.7810 H   0  0  0  0  0  0  0  0  0  0  0  0
   14.2330   -3.8520   10.8710 H   0  0  0  0  0  0  0  0  0  0  0  0
   13.9903   -3.4370   13.0689 H   0  0  0  0  0  0  0  0  0  0  0  0
   14.1531   -1.6602   12.7274 H   0  0  0  0  0  0  0  0  0  0  0  0
   11.8417   -1.4455   12.2033 H   0  0  0  0  0  0  0  0  0  0  0  0
   11.6112   -3.2291   12.1413 H   0  0  0  0  0  0  0  0  0  0  0  0
   10.8650   -2.4740   14.0950 H   0  0  0  0  0  0  0  0  0  0  0  0
   16.5810   -5.6227    9.6161 H   0  0  0  0  0  0  0  0  0  0  0  0
   16.2339   -7.7141   10.9351 H   0  0  0  0  0  0  0  0  0  0  0  0
   16.0427   -8.3373   15.6459 H   0  0  0  0  0  0  0  0  0  0  0  0
   17.6684   -7.6462   15.3198 H   0  0  0  0  0  0  0  0  0  0  0  0
   16.2227   -6.5800   15.3198 H   0  0  0  0  0  0  0  0  0  0  0  0
   16.9866   -5.5298   14.5832 H   0  0  0  0  0  0  0  0  0  0  0  0
   17.3366   -3.4415   13.2736 H   0  0  0  0  0  0  0  0  0  0  0  0
   19.9254   -3.4113   12.1793 H   0  0  0  0  0  0  0  0  0  0  0  0
   22.2615   -4.2700   12.1667 H   0  0  0  0  0  0  0  0  0  0  0  0
  1  2  1  0
  2  3  1  0
  3  4  2  0
  4  5  1  0
  5  6  2  0
  6  7  1  0
  7  8  1  0
  8  9  1  0
  9 10  2  0
 10 11  1  0
 11 12  2  0
 12 13  1  0
 13 14  1  0
 14 15  1  0
 15 16  1  0
 16 17  1  0
 13 18  2  0
 18 19  1  0
 19 20  1  0
 20 21  2  0
 21 22  1  0
 22 23  2  0
 23 24  1  0
 24 25  1  0
 23 26  1  0
 26 27  2  0
  6 28  1  0
 28 29  2  0
 29  3  1  0
 19  7  2  0
 27 20  1  0
 18  9  1  0
  1 30  1  0
  1 31  1  0
  1 32  1  0
  4 33  1  0
  5 34  1  0
 11 35  1  0
 14 36  1  0
 15 37  1  0
 15 38  1  0
 16 39  1  0
 16 40  1  0
 17 41  1  0
 21 42  1  0
 22 43  1  0
 25 44  1  0
 25 45  1  0
 25 46  1  0
 26 47  1  0
 27 48  1  0
 28 49  1  0
 29 50  1  0
M  END
>  <meeko>  (7) 
{"is_sidechain": [false], "free_energy": -7.392, "intermolecular_energy": -10.738, "internal_energy": -1.632}

$$$$
2br1_ligand
     RDKit          3D

 50 53  0  0  0  0  0  0  0  0999 V2000
   16.6050   -8.8750   17.8610 C   0  0  0  0  0  0  0  0  0  0  0  0
   15.8820   -7.6540   17.9560 O   0  0  0  0  0  0  0  0  0  0  0  0
   15.6040   -7.0090   16.7840 C   0  0  0  0  0  0  0  0  0  0  0  0
   16.3390   -5.8430   16.5680 C   0  0  0  0  0  0  0  0  0  0  0  0
   16.1550   -5.0820   15.4080 C   0  0  0  0  0  0  0  0  0  0  0  0
   15.2240   -5.4700   14.4380 C   0  0  0  0  0  0  0  0  0  0  0  0
   15.0060   -4.6870   13.2210 C   0  0  0  0  0  0  0  0  0  0  0  0
   13.7250   -4.2340   13.0600 O   0  0  0  0  0  0  0  0  0  0  0  0
   13.6690   -3.5320   11.8990 C   0  0  0  0  0  0  0  0  0  0  0  0
   12.5400   -2.9590   11.4640 N   0  0  0  0  0  0  0  0  0  0  0  0
   12.7400   -2.3120   10.3140 C   0  0  0  0  0  0  0  0  0  0  0  0
   13.8890   -2.1920    9.6230 N   0  0  0  0  0  0  0  0  0  0  0  0
   15.0150   -2.7820   10.0930 C   0  0  0  0  0  0  0  0  0  0  0  0
   16.2160   -2.6210    9.4070 N   0  0  0  0  0  0  0  0  0  0  0  0
   16.3590   -1.4350    8.5690 C   0  0  0  0  0  0  0  0  0  0  0  0
   16.4960   -0.1550    9.3970 C   0  0  0  0  0  0  0  0  0  0  0  0
   15.3010    0.6200    9.2970 O   0  0  0  0  0  0  0  0  0  0  0  0
   14.9150   -3.5080   11.2930 C   0  0  0  0  0  0  0  0  0  0  0  0
   15.7760   -4.2720   12.1430 C   0  0  0  0  0  0  0  0  0  0  0  0
   17.1850   -4.5600   11.9830 C   0  0  0  0  0  0  0  0  0  0  0  0
   17.6070   -5.8360   11.6000 C   0  0  0  0  0  0  0  0  0  0  0  0
   18.9730   -6.1140   11.4570 C   0  0  0  0  0  0  0  0  0  0  0  0
   19.9200   -5.1190   11.6980 C   0  0  0  0  0  0  0  0  0  0  0  0
   21.2770   -5.2580   11.5970 O   0  0  0  0  0  0  0  0  0  0  0  0
   22.0620   -4.1010   11.8560 C   0  0  0  0  0  0  0  0  0  0  0  0
   19.4930   -3.8450   12.0840 C   0  0  0  0  0  0  0  0  0  0  0  0
   18.1340   -3.5630   12.2280 C   0  0  0  0  0  0  0  0  0  0  0  0
   14.4930   -6.6470   14.6630 C   0  0  0  0  0  0  0  0  0  0  0  0
   14.6780   -7.4100   15.8240 C   0  0  0  0  0  0  0  0  0  0  0  0
   16.8267   -9.2494   18.8713 H   0  0  0  0  0  0  0  0  0  0  0  0
   16.0009   -9.6176   17.3191 H   0  0  0  0  0  0  0  0  0  0  0  0
   17.5466   -8.7024   17.3191 H   0  0  0  0  0  0  0  0  0  0  0  0
   17.0731   -5.5174   17.3197 H   0  0  0  0  0  0  0  0  0  0  0  0
   16.7489   -4.1685   15.2570 H   0  0  0  0  0  0  0  0  0  0  0  0
   11.8596   -1.8170    9.8782 H   0  0  0  0  0  0  0  0  0  0  0  0
   16.5520   -3.4770    8.9800 H   0  0  0  0  0  0  0  0  0  0  0  0
   17.2562   -1.5497    7.9430 H   0  0  0  0  0  0  0  0  0  0  0  0
   15.4511   -1.3442    7.9547 H   0  0  0  0  0  0  0  0  0  0  0  0
   16.6720   -0.4192   10.4502 H   0  0  0  0  0  0  0  0  0  0  0  0
   17.3423    0.4344    9.0144 H   0  0  0  0  0  0  0  0  0  0  0  0
   14.5670   -0.0140    9.2320 H   0  0  0  0  0  0  0  0  0  0  0  0
   16.8643   -6.6249   11.4101 H   0  0  0  0  0  0  0  0  0  0  0  0
   19.2992   -7.1198   11.1538 H   0  0  0  0  0  0  0  0  0  0  0  0
   22.1584   -3.9590   12.9425 H   0  0  0  0  0  0  0  0  0  0  0  0
   23.0607   -4.2288   11.4129 H   0  0  0  0  0  0  0  0  0  0  0  0
   21.5742   -3.2202   11.4129 H   0  0  0  0  0  0  0  0  0  0  0  0
   20.2359   -3.0568   12.2762 H   0  0  0  0  0  0  0  0  0  0  0  0
   17.8097   -2.5574   12.5339 H   0  0  0  0  0  0  0  0  0  0  0  0
   13.7597   -6.9774   13.9125 H   0  0  0  0  0  0  0  0  0  0  0  0
   14.0907   -8.3274   15.9773 H   0  0  0  0  0  0  0  0  0  0  0  0
  1  2  1  0
  2  3  1  0
  3  4  2  0
  4  5  1  0
  5  6  2  0
  6  7  1  0
  7  8  1  0
  8  9  1  0
  9 10  2  0
 10 11  1  0
 11 12  2  0
 12 13  1  0
 13 14  1  0
 14 15  1  0
 15 16  1  0
 16 17  1  0
 13 18  2  0
 18 19  1  0
 19 20  1  0
 20 21  2  0
 21 22  1  0
 22 23  2  0
 23 24  1  0
 24 25  1  0
 23 26  1  0
 26 27  2  0
  6 28  1  0
 28 29  2  0
 29  3  1  0
 19  7  2  0
 27 20  1  0
 18  9  1  0
  1 30  1  0
  1 31  1  0
  1 32  1  0
  4 33  1  0
  5 34  1  0
 11 35  1  0
 14 36  1  0
 15 37  1  0
 15 38  1  0
 16 39  1  0
 16 40  1  0
 17 41  1  0
 21 42  1  0
 22 43  1  0
 25 44  1  0
 25 45  1  0
 25 46  1  0
 26 47  1  0
 27 48  1  0
 28 49  1  0
 29 50  1  0
M  END
>  <meeko>  (8) 
{"is_sidechain": [false], "free_energy": -7.177, "intermolecular_energy": -10.403, "internal_energy": -1.659}

$$$$
2br1_ligand
     RDKit          3D

 50 53  0  0  0  0  0  0  0  0999 V2000
    8.8030   -1.0500   13.6420 C   0  0  0  0  0  0  0  0  0  0  0  0
   10.0700   -0.8410   13.0320 O   0  0  0  0  0  0  0  0  0  0  0  0
   11.0050   -1.8230   13.1990 C   0  0  0  0  0  0  0  0  0  0  0  0
   12.3160   -1.4400   12.9130 C   0  0  0  0  0  0  0  0  0  0  0  0
   13.3740   -2.3460   13.0410 C   0  0  0  0  0  0  0  0  0  0  0  0
   13.1420   -3.6630   13.4540 C   0  0  0  0  0  0  0  0  0  0  0  0
   14.2300   -4.6330   13.5880 C   0  0  0  0  0  0  0  0  0  0  0  0
   14.0160   -5.5980   14.5340 O   0  0  0  0  0  0  0  0  0  0  0  0
   15.0970   -6.4200   14.5500 C   0  0  0  0  0  0  0  0  0  0  0  0
   15.1860   -7.4680   15.3770 N   0  0  0  0  0  0  0  0  0  0  0  0
   16.3290   -8.1330   15.1930 C   0  0  0  0  0  0  0  0  0  0  0  0
   17.3080   -7.8610   14.3110 N   0  0  0  0  0  0  0  0  0  0  0  0
   17.1860   -6.7940   13.4850 C   0  0  0  0  0  0  0  0  0  0  0  0
   18.1740   -6.5360   12.5380 N   0  0  0  0  0  0  0  0  0  0  0  0
   19.2830   -7.4800   12.4500 C   0  0  0  0  0  0  0  0  0  0  0  0
   20.5570   -6.8270   11.9090 C   0  0  0  0  0  0  0  0  0  0  0  0
   20.5460   -5.4280   12.1930 O   0  0  0  0  0  0  0  0  0  0  0  0
   16.0240   -6.0090   13.6050 C   0  0  0  0  0  0  0  0  0  0  0  0
   15.4680   -4.8410   12.9950 C   0  0  0  0  0  0  0  0  0  0  0  0
   16.0210   -4.0180   11.9410 C   0  0  0  0  0  0  0  0  0  0  0  0
   15.4420   -4.0140   10.6690 C   0  0  0  0  0  0  0  0  0  0  0  0
   15.9870   -3.2250    9.6480 C   0  0  0  0  0  0  0  0  0  0  0  0
   17.1130   -2.4390    9.8940 C   0  0  0  0  0  0  0  0  0  0  0  0
   17.7420   -1.6280    8.9910 O   0  0  0  0  0  0  0  0  0  0  0  0
   19.1640   -1.6570    8.9820 C   0  0  0  0  0  0  0  0  0  0  0  0
   17.6900   -2.4480   11.1680 C   0  0  0  0  0  0  0  0  0  0  0  0
   17.1510   -3.2320   12.1890 C   0  0  0  0  0  0  0  0  0  0  0  0
   11.8210   -4.0370   13.7450 C   0  0  0  0  0  0  0  0  0  0  0  0
   10.7600   -3.1290   13.6180 C   0  0  0  0  0  0  0  0  0  0  0  0
    8.9153   -1.0315   14.7361 H   0  0  0  0  0  0  0  0  0  0  0  0
    8.1105   -0.2539   13.3309 H   0  0  0  0  0  0  0  0  0  0  0  0
    8.4029   -2.0263   13.3309 H   0  0  0  0  0  0  0  0  0  0  0  0
   12.5203   -0.4110   12.5822 H   0  0  0  0  0  0  0  0  0  0  0  0
   14.3998   -2.0198   12.8145 H   0  0  0  0  0  0  0  0  0  0  0  0
   16.4896   -9.0080   15.8399 H   0  0  0  0  0  0  0  0  0  0  0  0
   18.4520   -5.5620   12.5020 H   0  0  0  0  0  0  0  0  0  0  0  0
   19.4886   -7.8794   13.4541 H   0  0  0  0  0  0  0  0  0  0  0  0
   18.9913   -8.2794   11.7530 H   0  0  0  0  0  0  0  0  0  0  0  0
   21.4340   -7.2888   12.3860 H   0  0  0  0  0  0  0  0  0  0  0  0
   20.6043   -6.9744   10.8199 H   0  0  0  0  0  0  0  0  0  0  0  0
   19.8130   -5.0490   11.6770 H   0  0  0  0  0  0  0  0  0  0  0  0
   14.5549   -4.6328   10.4689 H   0  0  0  0  0  0  0  0  0  0  0  0
   15.5258   -3.2251    8.6493 H   0  0  0  0  0  0  0  0  0  0  0  0
   19.5371   -1.6646   10.0168 H   0  0  0  0  0  0  0  0  0  0  0  0
   19.5090   -2.5624    8.4611 H   0  0  0  0  0  0  0  0  0  0  0  0
   19.5456   -0.7665    8.4611 H   0  0  0  0  0  0  0  0  0  0  0  0
   18.5782   -1.8305   11.3674 H   0  0  0  0  0  0  0  0  0  0  0  0
   17.6140   -3.2318   13.1868 H   0  0  0  0  0  0  0  0  0  0  0  0
   11.6135   -5.0641   14.0798 H   0  0  0  0  0  0  0  0  0  0  0  0
    9.7331   -3.4482   13.8494 H   0  0  0  0  0  0  0  0  0  0  0  0
  1  2  1  0
  2  3  1  0
  3  4  2  0
  4  5  1  0
  5  6  2  0
  6  7  1  0
  7  8  1  0
  8  9  1  0
  9 10  2  0
 10 11  1  0
 11 12  2  0
 12 13  1  0
 13 14  1  0
 14 15  1  0
 15 16  1  0
 16 17  1  0
 13 18  2  0
 18 19  1  0
 19 20  1  0
 20 21  2  0
 21 22  1  0
 22 23  2  0
 23 24  1  0
 24 25  1  0
 23 26  1  0
 26 27  2  0
  6 28  1  0
 28 29  2  0
 29  3  1  0
 19  7  2  0
 27 20  1  0
 18  9  1  0
  1 30  1  0
  1 31  1  0
  1 32  1  0
  4 33  1  0
  5 34  1  0
 11 35  1  0
 14 36  1  0
 15 37  1  0
 15 38  1  0
 16 39  1  0
 16 40  1  0
 17 41  1  0
 21 42  1  0
 22 43  1  0
 25 44  1  0
 25 45  1  0
 25 46  1  0
 26 47  1  0
 27 48  1  0
 28 49  1  0
 29 50  1  0
M  END
>  <meeko>  (9) 
{"is_sidechain": [false], "free_energy": -7.16, "intermolecular_energy": -10.733, "internal_energy": -1.305}

$$$$
