2j78_ligand
     RDKit          3D

 25 25  0  0  0  0  0  0  0  0999 V2000
    1.4280   13.2010   11.2940 O   0  0  0  0  0  0  0  0  0  0  0  0
    2.0150   12.7480   10.0770 C   0  0  0  0  0  0  0  0  0  0  0  0
    1.1790   11.6350    9.4200 C   0  0  1  0  0  0  0  0  0  0  0  0
    0.1480   11.1590   10.3370 N   0  0  0  0  0  0  0  0  0  0  0  0
   -0.8670   10.3240    9.9110 C   0  0  0  0  0  0  0  0  0  0  0  0
   -1.4090    9.4360   10.6940 N   0  0  0  0  0  0  0  0  0  0  0  0
   -0.7900    9.4310   11.9560 O   0  0  0  0  0  0  0  0  0  0  0  0
   -1.4130   10.4940    8.4740 C   0  0  2  0  0  0  0  0  0  0  0  0
   -2.0370    9.3370    7.9260 O   0  0  0  0  0  0  0  0  0  0  0  0
   -0.2810   10.9180    7.5290 C   0  0  1  0  0  0  0  0  0  0  0  0
   -0.8470   11.2980    6.2580 O   0  0  0  0  0  0  0  0  0  0  0  0
    0.5260   12.0890    8.1020 C   0  0  2  0  0  0  0  0  0  0  0  0
    1.5100   12.4720    7.1290 O   0  0  0  0  0  0  0  0  0  0  0  0
    0.6460   12.6460   11.4630 H   0  0  0  0  0  0  0  0  0  0  0  0
    2.0897   13.5959    9.3802 H   0  0  0  0  0  0  0  0  0  0  0  0
    3.0093   12.3382   10.3082 H   0  0  0  0  0  0  0  0  0  0  0  0
    1.8744   10.8159    9.1845 H   0  0  0  0  0  0  0  0  0  0  0  0
    0.4700   10.8630   11.2560 H   0  0  0  0  0  0  0  0  0  0  0  0
   -0.0720    8.7840   11.8180 H   0  0  0  0  0  0  0  0  0  0  0  0
   -2.1925   11.2655    8.5594 H   0  0  0  0  0  0  0  0  0  0  0  0
   -2.2950    9.5910    7.0200 H   0  0  0  0  0  0  0  0  0  0  0  0
    0.4040   10.0662    7.4061 H   0  0  0  0  0  0  0  0  0  0  0  0
   -1.8120   11.3380    6.4200 H   0  0  0  0  0  0  0  0  0  0  0  0
   -0.1138   12.9578    8.3161 H   0  0  0  0  0  0  0  0  0  0  0  0
    2.3650   12.4810    7.6010 H   0  0  0  0  0  0  0  0  0  0  0  0
  1  2  1  0
  2  3  1  0
  3  4  1  0
  4  5  1  0
  5  6  2  0
  6  7  1  0
  5  8  1  0
  8  9  1  0
  8 10  1  0
 10 11  1  0
 10 12  1  0
 12 13  1  0
 12  3  1  0
  1 14  1  0
  2 15  1  0
  2 16  1  0
  3 17  1  6
  4 18  1  0
  7 19  1  0
  8 20  1  1
  9 21  1  0
 10 22  1  6
 11 23  1  0
 12 24  1  1
 13 25  1  0
M  END
>  <meeko>  (1) 
{"is_sidechain": [false], "free_energy": -6.309, "intermolecular_energy": -7.6, "internal_energy": -0.047}

$$$$
2j78_ligand
     RDKit          3D

 25 25  0  0  0  0  0  0  0  0999 V2000
   -0.6350    8.1810   10.6930 O   0  0  0  0  0  0  0  0  0  0  0  0
   -1.1660    9.4580   11.0380 C   0  0  0  0  0  0  0  0  0  0  0  0
   -0.7640   10.5370   10.0180 C   0  0  1  0  0  0  0  0  0  0  0  0
    0.4520   11.2210   10.4460 N   0  0  0  0  0  0  0  0  0  0  0  0
    1.1360   12.0740    9.6010 C   0  0  0  0  0  0  0  0  0  0  0  0
    1.7990   13.1050   10.0440 N   0  0  0  0  0  0  0  0  0  0  0  0
    1.6660   13.2300   11.4380 O   0  0  0  0  0  0  0  0  0  0  0  0
    1.1630   11.7550    8.0890 C   0  0  2  0  0  0  0  0  0  0  0  0
    1.4000   12.8750    7.2420 O   0  0  0  0  0  0  0  0  0  0  0  0
   -0.1640   11.1100    7.6660 C   0  0  1  0  0  0  0  0  0  0  0  0
   -0.0340   10.6090    6.3190 O   0  0  0  0  0  0  0  0  0  0  0  0
   -0.5620    9.9650    8.6030 C   0  0  2  0  0  0  0  0  0  0  0  0
   -1.7650    9.3680    8.0960 O   0  0  0  0  0  0  0  0  0  0  0  0
   -0.4790    7.6980   11.5250 H   0  0  0  0  0  0  0  0  0  0  0  0
   -2.2634    9.3904   11.0713 H   0  0  0  0  0  0  0  0  0  0  0  0
   -0.7583    9.7448   12.0186 H   0  0  0  0  0  0  0  0  0  0  0  0
   -1.5976   11.2534    9.9738 H   0  0  0  0  0  0  0  0  0  0  0  0
    0.4360   11.6130   11.3860 H   0  0  0  0  0  0  0  0  0  0  0  0
    2.0600   12.3920   11.7470 H   0  0  0  0  0  0  0  0  0  0  0  0
    2.0160   11.0724    7.9603 H   0  0  0  0  0  0  0  0  0  0  0  0
    2.0230   12.5540    6.5630 H   0  0  0  0  0  0  0  0  0  0  0  0
   -0.9525   11.8752    7.7185 H   0  0  0  0  0  0  0  0  0  0  0  0
   -0.8550   10.8950    5.8690 H   0  0  0  0  0  0  0  0  0  0  0  0
    0.2186    9.1916    8.6532 H   0  0  0  0  0  0  0  0  0  0  0  0
   -1.8540    9.6860    7.1760 H   0  0  0  0  0  0  0  0  0  0  0  0
  1  2  1  0
  2  3  1  0
  3  4  1  0
  4  5  1  0
  5  6  2  0
  6  7  1  0
  5  8  1  0
  8  9  1  0
  8 10  1  0
 10 11  1  0
 10 12  1  0
 12 13  1  0
 12  3  1  0
  1 14  1  0
  2 15  1  0
  2 16  1  0
  3 17  1  6
  4 18  1  0
  7 19  1  0
  8 20  1  1
  9 21  1  0
 10 22  1  6
 11 23  1  0
 12 24  1  1
 13 25  1  0
M  END
>  <meeko>  (2) 
{"is_sidechain": [false], "free_energy": -6.219, "intermolecular_energy": -7.299, "internal_energy": -0.24}

$$$$
2j78_ligand
     RDKit          3D

 25 25  0  0  0  0  0  0  0  0999 V2000
    2.4040   12.3490    7.6740 O   0  0  0  0  0  0  0  0  0  0  0  0
    1.1130   12.9520    7.6940 C   0  0  0  0  0  0  0  0  0  0  0  0
    0.1570   12.2210    8.6540 C   0  0  1  0  0  0  0  0  0  0  0  0
   -0.6490   11.2440    7.9300 N   0  0  0  0  0  0  0  0  0  0  0  0
   -1.4210   10.3100    8.5950 C   0  0  0  0  0  0  0  0  0  0  0  0
   -2.5390    9.8570    8.1030 N   0  0  0  0  0  0  0  0  0  0  0  0
   -2.8410   10.4800    6.8800 O   0  0  0  0  0  0  0  0  0  0  0  0
   -0.9040    9.7430    9.9380 C   0  0  2  0  0  0  0  0  0  0  0  0
   -1.9130    9.2280   10.8010 O   0  0  0  0  0  0  0  0  0  0  0  0
   -0.1300   10.8260   10.7010 C   0  0  1  0  0  0  0  0  0  0  0  0
    0.5380   10.2200   11.8270 O   0  0  0  0  0  0  0  0  0  0  0  0
    0.9010   11.5230    9.8060 C   0  0  2  0  0  0  0  0  0  0  0  0
    1.6310   12.4610   10.6120 O   0  0  0  0  0  0  0  0  0  0  0  0
    2.7950   12.5310    6.8000 H   0  0  0  0  0  0  0  0  0  0  0  0
    1.2133   13.9981    8.0191 H   0  0  0  0  0  0  0  0  0  0  0  0
    0.6915   12.8926    6.6797 H   0  0  0  0  0  0  0  0  0  0  0  0
   -0.4966   12.9888    9.0936 H   0  0  0  0  0  0  0  0  0  0  0  0
   -1.1610   11.5970    7.1240 H   0  0  0  0  0  0  0  0  0  0  0  0
   -1.9980   10.9270    6.6750 H   0  0  0  0  0  0  0  0  0  0  0  0
   -0.2618    8.8951    9.6576 H   0  0  0  0  0  0  0  0  0  0  0  0
   -2.0670    9.9310   11.4610 H   0  0  0  0  0  0  0  0  0  0  0  0
   -0.8464   11.5878   11.0423 H   0  0  0  0  0  0  0  0  0  0  0  0
   -0.1830    9.8220   12.3570 H   0  0  0  0  0  0  0  0  0  0  0  0
    1.6128   10.8064    9.3703 H   0  0  0  0  0  0  0  0  0  0  0  0
    2.1160   13.0310    9.9840 H   0  0  0  0  0  0  0  0  0  0  0  0
  1  2  1  0
  2  3  1  0
  3  4  1  0
  4  5  1  0
  5  6  2  0
  6  7  1  0
  5  8  1  0
  8  9  1  0
  8 10  1  0
 10 11  1  0
 10 12  1  0
 12 13  1  0
 12  3  1  0
  1 14  1  0
  2 15  1  0
  2 16  1  0
  3 17  1  1
  4 18  1  0
  7 19  1  0
  8 20  1  6
  9 21  1  0
 10 22  1  1
 11 23  1  0
 12 24  1  6
 13 25  1  0
M  END
>  <meeko>  (3) 
{"is_sidechain": [false], "free_energy": -5.713, "intermolecular_energy": -6.683, "internal_energy": -0.246}

$$$$
2j78_ligand
     RDKit          3D

 25 25  0  0  0  0  0  0  0  0999 V2000
    0.1060    9.9180   12.6540 O   0  0  0  0  0  0  0  0  0  0  0  0
   -0.1320   11.1080   11.9070 C   0  0  0  0  0  0  0  0  0  0  0  0
    0.0170   10.8720   10.3940 C   0  0  1  0  0  0  0  0  0  0  0  0
   -1.2930   10.7650    9.7600 N   0  0  0  0  0  0  0  0  0  0  0  0
   -1.4320   10.7730    8.3850 C   0  0  0  0  0  0  0  0  0  0  0  0
   -2.3840   10.1200    7.7810 N   0  0  0  0  0  0  0  0  0  0  0  0
   -3.1680    9.4040    8.7010 O   0  0  0  0  0  0  0  0  0  0  0  0
   -0.4590   11.6340    7.5460 C   0  0  2  0  0  0  0  0  0  0  0  0
   -0.2990   11.2170    6.1950 O   0  0  0  0  0  0  0  0  0  0  0  0
    0.9250   11.6550    8.2070 C   0  0  1  0  0  0  0  0  0  0  0  0
    1.7450   12.6430    7.5480 O   0  0  0  0  0  0  0  0  0  0  0  0
    0.8350   11.9780    9.7030 C   0  0  2  0  0  0  0  0  0  0  0  0
    2.1700   12.0540   10.2250 O   0  0  0  0  0  0  0  0  0  0  0  0
    1.0670    9.8520   12.7980 H   0  0  0  0  0  0  0  0  0  0  0  0
   -1.1535   11.4598   12.1136 H   0  0  0  0  0  0  0  0  0  0  0  0
    0.6133   11.8576   12.2112 H   0  0  0  0  0  0  0  0  0  0  0  0
    0.5657    9.9260   10.2754 H   0  0  0  0  0  0  0  0  0  0  0  0
   -1.9290   10.0800   10.1630 H   0  0  0  0  0  0  0  0  0  0  0  0
   -3.3810   10.0970    9.3560 H   0  0  0  0  0  0  0  0  0  0  0  0
   -0.9195   12.6325    7.5174 H   0  0  0  0  0  0  0  0  0  0  0  0
    0.6450   10.9800    6.1110 H   0  0  0  0  0  0  0  0  0  0  0  0
    1.3708   10.6544    8.1069 H   0  0  0  0  0  0  0  0  0  0  0  0
    2.4170   12.8910    8.2160 H   0  0  0  0  0  0  0  0  0  0  0  0
    0.3328   12.9401    9.8823 H   0  0  0  0  0  0  0  0  0  0  0  0
    2.2700   12.9620   10.5710 H   0  0  0  0  0  0  0  0  0  0  0  0
  1  2  1  0
  2  3  1  0
  3  4  1  0
  4  5  1  0
  5  6  2  0
  6  7  1  0
  5  8  1  0
  8  9  1  0
  8 10  1  0
 10 11  1  0
 10 12  1  0
 12 13  1  0
 12  3  1  0
  1 14  1  0
  2 15  1  0
  2 16  1  0
  3 17  1  1
  4 18  1  0
  7 19  1  0
  8 20  1  6
  9 21  1  0
 10 22  1  1
 11 23  1  0
 12 24  1  6
 13 25  1  0
M  END
>  <meeko>  (4) 
{"is_sidechain": [false], "free_energy": -5.285, "intermolecular_energy": -6.371, "internal_energy": -0.044}

$$$$
2j78_ligand
     RDKit          3D

 25 25  0  0  0  0  0  0  0  0999 V2000
    1.6900   12.8440    9.8370 O   0  0  0  0  0  0  0  0  0  0  0  0
    1.0390   11.9880    8.9010 C   0  0  0  0  0  0  0  0  0  0  0  0
    0.4290   10.7530    9.5850 C   0  0  1  0  0  0  0  0  0  0  0  0
    1.1200    9.5390    9.1640 N   0  0  0  0  0  0  0  0  0  0  0  0
    0.9080    8.3300    9.7990 C   0  0  0  0  0  0  0  0  0  0  0  0
    0.9840    7.1920    9.1690 N   0  0  0  0  0  0  0  0  0  0  0  0
    1.2500    7.3890    7.8030 O   0  0  0  0  0  0  0  0  0  0  0  0
    0.6300    8.3300   11.3200 C   0  0  2  0  0  0  0  0  0  0  0  0
   -0.0760    7.1920   11.8030 O   0  0  0  0  0  0  0  0  0  0  0  0
   -0.1660    9.5840   11.7070 C   0  0  1  0  0  0  0  0  0  0  0  0
   -0.2100    9.6870   13.1450 O   0  0  0  0  0  0  0  0  0  0  0  0
    0.4590   10.8550   11.1210 C   0  0  2  0  0  0  0  0  0  0  0  0
   -0.2960   11.9830   11.5920 O   0  0  0  0  0  0  0  0  0  0  0  0
    2.3910   13.3190    9.3570 H   0  0  0  0  0  0  0  0  0  0  0  0
    0.2368   12.5511    8.4016 H   0  0  0  0  0  0  0  0  0  0  0  0
    1.7894   11.6413    8.1753 H   0  0  0  0  0  0  0  0  0  0  0  0
   -0.6246   10.7090    9.2720 H   0  0  0  0  0  0  0  0  0  0  0  0
    1.1850    9.3880    8.1590 H   0  0  0  0  0  0  0  0  0  0  0  0
    1.4970    8.3330    7.7860 H   0  0  0  0  0  0  0  0  0  0  0  0
    1.6254    8.3090   11.7878 H   0  0  0  0  0  0  0  0  0  0  0  0
   -0.4440    6.7630   11.0080 H   0  0  0  0  0  0  0  0  0  0  0  0
   -1.1819    9.4892   11.2959 H   0  0  0  0  0  0  0  0  0  0  0  0
   -0.6410    8.8570   13.4390 H   0  0  0  0  0  0  0  0  0  0  0  0
    1.5057   10.9762   11.4368 H   0  0  0  0  0  0  0  0  0  0  0  0
   -0.0970   12.7130   10.9740 H   0  0  0  0  0  0  0  0  0  0  0  0
  1  2  1  0
  2  3  1  0
  3  4  1  0
  4  5  1  0
  5  6  2  0
  6  7  1  0
  5  8  1  0
  8  9  1  0
  8 10  1  0
 10 11  1  0
 10 12  1  0
 12 13  1  0
 12  3  1  0
  1 14  1  0
  2 15  1  0
  2 16  1  0
  3 17  1  6
  4 18  1  0
  7 19  1  0
  8 20  1  1
  9 21  1  0
 10 22  1  6
 11 23  1  0
 12 24  1  1
 13 25  1  0
M  END
>  <meeko>  (5) 
{"is_sidechain": [false], "free_energy": -5.234, "intermolecular_energy": -6.113, "internal_energy": -0.239}

$$$$
2j78_ligand
     RDKit          3D

 25 25  0  0  0  0  0  0  0  0999 V2000
   -0.6090    9.8690   13.1760 O   0  0  0  0  0  0  0  0  0  0  0  0
    0.2820    9.5990   12.0970 C   0  0  0  0  0  0  0  0  0  0  0  0
   -0.1600   10.3040   10.8020 C   0  0  1  0  0  0  0  0  0  0  0  0
    1.0000   10.7520   10.0400 N   0  0  0  0  0  0  0  0  0  0  0  0
    0.8780   11.2130    8.7420 C   0  0  0  0  0  0  0  0  0  0  0  0
    1.6690   12.1240    8.2520 N   0  0  0  0  0  0  0  0  0  0  0  0
    2.5810   12.5750    9.2220 O   0  0  0  0  0  0  0  0  0  0  0  0
   -0.1970   10.5790    7.8290 C   0  0  2  0  0  0  0  0  0  0  0  0
   -0.6280   11.3990    6.7480 O   0  0  0  0  0  0  0  0  0  0  0  0
   -1.4300   10.1950    8.6580 C   0  0  1  0  0  0  0  0  0  0  0  0
   -2.3150    9.4000    7.8430 O   0  0  0  0  0  0  0  0  0  0  0  0
   -1.0450    9.4090    9.9160 C   0  0  2  0  0  0  0  0  0  0  0  0
   -2.2530    9.0240   10.5910 O   0  0  0  0  0  0  0  0  0  0  0  0
   -0.4270    9.2140   13.8730 H   0  0  0  0  0  0  0  0  0  0  0  0
    1.2879    9.9514   12.3689 H   0  0  0  0  0  0  0  0  0  0  0  0
    0.2796    8.5143   11.9143 H   0  0  0  0  0  0  0  0  0  0  0  0
   -0.7621   11.1727   11.1066 H   0  0  0  0  0  0  0  0  0  0  0  0
    1.6710   11.3290   10.5440 H   0  0  0  0  0  0  0  0  0  0  0  0
    2.8660   13.4270    8.8400 H   0  0  0  0  0  0  0  0  0  0  0  0
    0.2939    9.7002    7.3855 H   0  0  0  0  0  0  0  0  0  0  0  0
   -1.0490   12.1740    7.1680 H   0  0  0  0  0  0  0  0  0  0  0  0
   -1.9309   11.1195    8.9811 H   0  0  0  0  0  0  0  0  0  0  0  0
   -2.2340    9.7820    6.9450 H   0  0  0  0  0  0  0  0  0  0  0  0
   -0.4762    8.5004    9.6690 H   0  0  0  0  0  0  0  0  0  0  0  0
   -2.4980    8.1520   10.2240 H   0  0  0  0  0  0  0  0  0  0  0  0
  1  2  1  0
  2  3  1  0
  3  4  1  0
  4  5  1  0
  5  6  2  0
  6  7  1  0
  5  8  1  0
  8  9  1  0
  8 10  1  0
 10 11  1  0
 10 12  1  0
 12 13  1  0
 12  3  1  0
  1 14  1  0
  2 15  1  0
  2 16  1  0
  3 17  1  1
  4 18  1  0
  7 19  1  0
  8 20  1  6
  9 21  1  0
 10 22  1  1
 11 23  1  0
 12 24  1  6
 13 25  1  0
M  END
>  <meeko>  (6) 
{"is_sidechain": [false], "free_energy": -5.223, "intermolecular_energy": -6.137, "internal_energy": -0.201}

$$$$
2j78_ligand
     RDKit          3D

 25 25  0  0  0  0  0  0  0  0999 V2000
    0.7680   13.1630    8.4500 O   0  0  0  0  0  0  0  0  0  0  0  0
    1.5870   11.9990    8.3760 C   0  0  0  0  0  0  0  0  0  0  0  0
    0.8220   10.7350    8.8040 C   0  0  1  0  0  0  0  0  0  0  0  0
    1.2110   10.3300   10.1510 N   0  0  0  0  0  0  0  0  0  0  0  0
    0.5110    9.3600   10.8430 C   0  0  0  0  0  0  0  0  0  0  0  0
    1.0880    8.5670   11.7000 N   0  0  0  0  0  0  0  0  0  0  0  0
    2.4710    8.8100   11.7610 O   0  0  0  0  0  0  0  0  0  0  0  0
   -1.0180    9.2590   10.6350 C   0  0  2  0  0  0  0  0  0  0  0  0
   -1.5820    7.9840   10.9270 O   0  0  0  0  0  0  0  0  0  0  0  0
   -1.3740    9.6160    9.1860 C   0  0  1  0  0  0  0  0  0  0  0  0
   -2.8070    9.7450    9.0720 O   0  0  0  0  0  0  0  0  0  0  0  0
   -0.7050   10.9220    8.7430 C   0  0  2  0  0  0  0  0  0  0  0  0
   -1.1490   11.2230    7.4110 O   0  0  0  0  0  0  0  0  0  0  0  0
    0.0590   12.9790    9.0920 H   0  0  0  0  0  0  0  0  0  0  0  0
    1.9329   11.8722    7.3395 H   0  0  0  0  0  0  0  0  0  0  0  0
    2.4362   12.1339    9.0621 H   0  0  0  0  0  0  0  0  0  0  0  0
    1.0922    9.9460    8.0867 H   0  0  0  0  0  0  0  0  0  0  0  0
    2.2090   10.2080   10.3090 H   0  0  0  0  0  0  0  0  0  0  0  0
    2.7060    8.8320   10.8130 H   0  0  0  0  0  0  0  0  0  0  0  0
   -1.4478    9.9703   11.3557 H   0  0  0  0  0  0  0  0  0  0  0  0
   -0.8780    7.3400   10.7210 H   0  0  0  0  0  0  0  0  0  0  0  0
   -1.0060    8.8118    8.5319 H   0  0  0  0  0  0  0  0  0  0  0  0
   -3.0830   10.1710    9.9090 H   0  0  0  0  0  0  0  0  0  0  0  0
   -0.9754   11.7611    9.4009 H   0  0  0  0  0  0  0  0  0  0  0  0
   -0.6760   10.6020    6.8240 H   0  0  0  0  0  0  0  0  0  0  0  0
  1  2  1  0
  2  3  1  0
  3  4  1  0
  4  5  1  0
  5  6  2  0
  6  7  1  0
  5  8  1  0
  8  9  1  0
  8 10  1  0
 10 11  1  0
 10 12  1  0
 12 13  1  0
 12  3  1  0
  1 14  1  0
  2 15  1  0
  2 16  1  0
  3 17  1  6
  4 18  1  0
  7 19  1  0
  8 20  1  1
  9 21  1  0
 10 22  1  6
 11 23  1  0
 12 24  1  1
 13 25  1  0
M  END
>  <meeko>  (7) 
{"is_sidechain": [false], "free_energy": -5.185, "intermolecular_energy": -6.038, "internal_energy": -0.256}

$$$$
2j78_ligand
     RDKit          3D

 25 25  0  0  0  0  0  0  0  0999 V2000
   -1.7910    8.2080    8.6690 O   0  0  0  0  0  0  0  0  0  0  0  0
   -2.3000    9.4610    8.2190 C   0  0  0  0  0  0  0  0  0  0  0  0
   -1.4070   10.6330    8.6660 C   0  0  1  0  0  0  0  0  0  0  0  0
   -0.8180   10.3590    9.9720 N   0  0  0  0  0  0  0  0  0  0  0  0
    0.1890   11.1520   10.4900 C   0  0  0  0  0  0  0  0  0  0  0  0
    0.3270   11.3500   11.7700 N   0  0  0  0  0  0  0  0  0  0  0  0
   -0.6910   10.7050   12.4930 O   0  0  0  0  0  0  0  0  0  0  0  0
    1.2180   11.7730    9.5170 C   0  0  2  0  0  0  0  0  0  0  0  0
    1.8700   12.9440    9.9970 O   0  0  0  0  0  0  0  0  0  0  0  0
    0.5390   12.1170    8.1850 C   0  0  1  0  0  0  0  0  0  0  0  0
    1.5500   12.4700    7.2190 O   0  0  0  0  0  0  0  0  0  0  0  0
   -0.2920   10.9440    7.6520 C   0  0  2  0  0  0  0  0  0  0  0  0
   -0.8270   11.3180    6.3730 O   0  0  0  0  0  0  0  0  0  0  0  0
   -2.0050    7.5470    7.9870 H   0  0  0  0  0  0  0  0  0  0  0  0
   -2.3512    9.4509    7.1202 H   0  0  0  0  0  0  0  0  0  0  0  0
   -3.2979    9.6034    8.6592 H   0  0  0  0  0  0  0  0  0  0  0  0
   -2.0569   11.5182    8.7298 H   0  0  0  0  0  0  0  0  0  0  0  0
   -1.4700   10.1110   10.7130 H   0  0  0  0  0  0  0  0  0  0  0  0
   -0.3350   10.7380   13.4020 H   0  0  0  0  0  0  0  0  0  0  0  0
    1.9943   11.0025    9.3998 H   0  0  0  0  0  0  0  0  0  0  0  0
    1.2240   13.3690   10.5930 H   0  0  0  0  0  0  0  0  0  0  0  0
   -0.1441   12.9624    8.3544 H   0  0  0  0  0  0  0  0  0  0  0  0
    1.2380   13.3140    6.8320 H   0  0  0  0  0  0  0  0  0  0  0  0
    0.3187   10.0380    7.5245 H   0  0  0  0  0  0  0  0  0  0  0  0
   -0.1760   11.9320    5.9810 H   0  0  0  0  0  0  0  0  0  0  0  0
  1  2  1  0
  2  3  1  0
  3  4  1  0
  4  5  1  0
  5  6  2  0
  6  7  1  0
  5  8  1  0
  8  9  1  0
  8 10  1  0
 10 11  1  0
 10 12  1  0
 12 13  1  0
 12  3  1  0
  1 14  1  0
  2 15  1  0
  2 16  1  0
  3 17  1  1
  4 18  1  0
  7 19  1  0
  8 20  1  6
  9 21  1  0
 10 22  1  1
 11 23  1  0
 12 24  1  6
 13 25  1  0
M  END
>  <meeko>  (8) 
{"is_sidechain": [false], "free_energy": -5.151, "intermolecular_energy": -6.202, "internal_energy": -0.051}

$$$$
2j78_ligand
     RDKit          3D

 25 25  0  0  0  0  0  0  0  0999 V2000
   -0.7070    7.6970   12.0530 O   0  0  0  0  0  0  0  0  0  0  0  0
   -1.4740    8.7120   11.4090 C   0  0  0  0  0  0  0  0  0  0  0  0
   -0.6670    9.4250   10.3090 C   0  0  1  0  0  0  0  0  0  0  0  0
   -1.5610   10.0760    9.3570 N   0  0  0  0  0  0  0  0  0  0  0  0
   -1.0840   10.9610    8.4090 C   0  0  0  0  0  0  0  0  0  0  0  0
   -1.6450   11.0940    7.2410 N   0  0  0  0  0  0  0  0  0  0  0  0
   -2.7200   10.2000    7.0920 O   0  0  0  0  0  0  0  0  0  0  0  0
    0.1170   11.8630    8.7740 C   0  0  2  0  0  0  0  0  0  0  0  0
    0.8720   12.3390    7.6650 O   0  0  0  0  0  0  0  0  0  0  0  0
    1.0700   11.1120    9.7130 C   0  0  1  0  0  0  0  0  0  0  0  0
    2.0500   12.0380   10.2270 O   0  0  0  0  0  0  0  0  0  0  0  0
    0.3200   10.4590   10.8800 C   0  0  2  0  0  0  0  0  0  0  0  0
    1.2870    9.8470   11.7470 O   0  0  0  0  0  0  0  0  0  0  0  0
   -1.2720    6.9060   12.1180 H   0  0  0  0  0  0  0  0  0  0  0  0
   -2.3647    8.2521   10.9561 H   0  0  0  0  0  0  0  0  0  0  0  0
   -1.7569    9.4592   12.1651 H   0  0  0  0  0  0  0  0  0  0  0  0
   -0.0797    8.6493    9.7958 H   0  0  0  0  0  0  0  0  0  0  0  0
   -2.2780    9.4840    8.9410 H   0  0  0  0  0  0  0  0  0  0  0  0
   -2.2970    9.4660    6.6080 H   0  0  0  0  0  0  0  0  0  0  0  0
   -0.3303   12.7451    9.2555 H   0  0  0  0  0  0  0  0  0  0  0  0
    0.2090   12.5940    6.9950 H   0  0  0  0  0  0  0  0  0  0  0  0
    1.5595   10.3112    9.1393 H   0  0  0  0  0  0  0  0  0  0  0  0
    2.3640   11.6290   11.0590 H   0  0  0  0  0  0  0  0  0  0  0  0
   -0.2529   11.1973   11.4603 H   0  0  0  0  0  0  0  0  0  0  0  0
    0.8700    9.0260   12.0740 H   0  0  0  0  0  0  0  0  0  0  0  0
  1  2  1  0
  2  3  1  0
  3  4  1  0
  4  5  1  0
  5  6  2  0
  6  7  1  0
  5  8  1  0
  8  9  1  0
  8 10  1  0
 10 11  1  0
 10 12  1  0
 12 13  1  0
 12  3  1  0
  1 14  1  0
  2 15  1  0
  2 16  1  0
  3 17  1  6
  4 18  1  0
  7 19  1  0
  8 20  1  1
  9 21  1  0
 10 22  1  6
 11 23  1  0
 12 24  1  1
 13 25  1  0
M  END
>  <meeko>  (9) 
{"is_sidechain": [false], "free_energy": -4.852, "intermolecular_energy": -5.64, "internal_energy": -0.252}

$$$$
