4crc_ligand
     RDKit          3D

 60 64  0  0  0  0  0  0  0  0999 V2000
  -49.6790   -9.2730  -24.2900 O   0  0  0  0  0  0  0  0  0  0  0  0
  -49.7500   -9.9750  -23.2880 C   0  0  0  0  0  0  0  0  0  0  0  0
  -48.9350   -9.6950  -22.0900 C   0  0  0  0  0  0  0  0  0  0  0  0
  -48.6130  -10.6910  -21.2510 C   0  0  0  0  0  0  0  0  0  0  0  0
  -47.8930  -10.4560  -19.9950 C   0  0  0  0  0  0  0  0  0  0  0  0
  -46.4880  -10.4330  -20.0750 C   0  0  0  0  0  0  0  0  0  0  0  0
  -45.7140  -10.2370  -18.9340 C   0  0  0  0  0  0  0  0  0  0  0  0
  -43.9990  -10.2120  -19.0540 Cl  0  0  0  0  0  0  0  0  0  0  0  0
  -46.3230  -10.0650  -17.6980 C   0  0  0  0  0  0  0  0  0  0  0  0
  -47.7180  -10.0870  -17.5970 C   0  0  0  0  0  0  0  0  0  0  0  0
  -48.5220  -10.2810  -18.7380 C   0  0  0  0  0  0  0  0  0  0  0  0
  -49.9420  -10.2830  -18.5860 N   0  0  0  0  0  0  0  0  0  0  0  0
  -50.7370  -11.1630  -17.8860 C   0  0  0  0  0  0  0  0  0  0  0  0
  -51.9960  -10.8100  -18.0020 N   0  0  0  0  0  0  0  0  0  0  0  0
  -51.9970   -9.6880  -18.7790 N   0  0  0  0  0  0  0  0  0  0  0  0
  -50.7670   -9.3600  -19.1390 N   0  0  0  0  0  0  0  0  0  0  0  0
  -50.6360  -11.0040  -23.1410 N   0  0  0  0  0  0  0  0  0  0  0  0
  -51.4070  -11.5630  -24.2560 C   0  0  1  0  0  0  0  0  0  0  0  0
  -51.7320  -13.0500  -24.0120 C   0  0  0  0  0  0  0  0  0  0  0  0
  -51.5040  -13.4840  -22.5810 C   0  0  0  0  0  0  0  0  0  0  0  0
  -50.3090  -14.1100  -22.2040 C   0  0  0  0  0  0  0  0  0  0  0  0
  -50.0940  -14.4850  -20.8760 C   0  0  0  0  0  0  0  0  0  0  0  0
  -51.0730  -14.2400  -19.9140 C   0  0  0  0  0  0  0  0  0  0  0  0
  -52.2690  -13.6250  -20.2790 C   0  0  0  0  0  0  0  0  0  0  0  0
  -52.4850  -13.2500  -21.6060 C   0  0  0  0  0  0  0  0  0  0  0  0
  -52.7100  -10.7590  -24.4990 C   0  0  0  0  0  0  0  0  0  0  0  0
  -53.8050  -11.1780  -24.1310 O   0  0  0  0  0  0  0  0  0  0  0  0
  -52.4940   -9.6000  -25.2280 N   0  0  0  0  0  0  0  0  0  0  0  0
  -53.4340   -8.6390  -25.6400 C   0  0  0  0  0  0  0  0  0  0  0  0
  -53.3770   -8.2270  -26.9770 C   0  0  0  0  0  0  0  0  0  0  0  0
  -54.2730   -7.2710  -27.4710 C   0  0  0  0  0  0  0  0  0  0  0  0
  -55.2450   -6.7080  -26.6370 C   0  0  0  0  0  0  0  0  0  0  0  0
  -56.1770   -5.7140  -27.1510 C   0  0  0  0  0  0  0  0  0  0  0  0
  -56.9940   -4.9600  -26.3350 N   0  0  0  0  0  0  0  0  0  0  0  0
  -57.7040   -4.1690  -27.1260 N   0  0  0  0  0  0  0  0  0  0  0  0
  -57.2920   -4.4720  -28.3610 N   0  0  0  0  0  0  0  0  0  0  0  0
  -56.3500   -5.4220  -28.4540 N   0  0  0  0  0  0  0  0  0  0  0  0
  -55.2990   -7.1230  -25.2990 C   0  0  0  0  0  0  0  0  0  0  0  0
  -54.4010   -8.0800  -24.8050 C   0  0  0  0  0  0  0  0  0  0  0  0
  -48.5918   -8.6702  -21.8851 H   0  0  0  0  0  0  0  0  0  0  0  0
  -48.8990  -11.7200  -21.5143 H   0  0  0  0  0  0  0  0  0  0  0  0
  -45.9961  -10.5713  -21.0491 H   0  0  0  0  0  0  0  0  0  0  0  0
  -45.7086   -9.9115  -16.7986 H   0  0  0  0  0  0  0  0  0  0  0  0
  -48.1935   -9.9511  -16.6144 H   0  0  0  0  0  0  0  0  0  0  0  0
  -50.3723  -12.0303  -17.3160 H   0  0  0  0  0  0  0  0  0  0  0  0
  -50.7310  -11.4460  -22.2310 H   0  0  0  0  0  0  0  0  0  0  0  0
  -50.7840  -11.4862  -25.1593 H   0  0  0  0  0  0  0  0  0  0  0  0
  -52.7883  -13.2229  -24.2654 H   0  0  0  0  0  0  0  0  0  0  0  0
  -51.0527  -13.6405  -24.6443 H   0  0  0  0  0  0  0  0  0  0  0  0
  -49.5342  -14.3077  -22.9594 H   0  0  0  0  0  0  0  0  0  0  0  0
  -49.1515  -14.9741  -20.5888 H   0  0  0  0  0  0  0  0  0  0  0  0
  -50.9014  -14.5320  -18.8674 H   0  0  0  0  0  0  0  0  0  0  0  0
  -53.0432  -13.4350  -19.5210 H   0  0  0  0  0  0  0  0  0  0  0  0
  -53.4319  -12.7672  -21.8894 H   0  0  0  0  0  0  0  0  0  0  0  0
  -51.5240   -9.4260  -25.5000 H   0  0  0  0  0  0  0  0  0  0  0  0
  -52.6194   -8.6594  -27.6472 H   0  0  0  0  0  0  0  0  0  0  0  0
  -54.2121   -6.9599  -28.5243 H   0  0  0  0  0  0  0  0  0  0  0  0
  -57.6730   -4.0080  -29.1800 H   0  0  0  0  0  0  0  0  0  0  0  0
  -56.0562   -6.6920  -24.6275 H   0  0  0  0  0  0  0  0  0  0  0  0
  -54.4597   -8.3919  -23.7518 H   0  0  0  0  0  0  0  0  0  0  0  0
  1  2  2  0
  2  3  1  0
  3  4  2  0
  4  5  1  0
  5  6  2  0
  6  7  1  0
  7  8  1  0
  7  9  2  0
  9 10  1  0
 10 11  2  0
 11 12  1  0
 12 13  1  0
 13 14  2  0
 14 15  1  0
 15 16  2  0
  2 17  1  0
 17 18  1  0
 18 19  1  0
 19 20  1  0
 20 21  2  0
 21 22  1  0
 22 23  2  0
 23 24  1  0
 24 25  2  0
 18 26  1  0
 26 27  2  0
 26 28  1  0
 28 29  1  0
 29 30  2  0
 30 31  1  0
 31 32  2  0
 32 33  1  0
 33 34  1  0
 34 35  2  0
 35 36  1  0
 36 37  1  0
 32 38  1  0
 38 39  2  0
 11  5  1  0
 16 12  1  0
 25 20  1  0
 39 29  1  0
 37 33  2  0
  3 40  1  0
  4 41  1  0
  6 42  1  0
  9 43  1  0
 10 44  1  0
 13 45  1  0
 17 46  1  0
 18 47  1  6
 19 48  1  0
 19 49  1  0
 21 50  1  0
 22 51  1  0
 23 52  1  0
 24 53  1  0
 25 54  1  0
 28 55  1  0
 30 56  1  0
 31 57  1  0
 36 58  1  0
 38 59  1  0
 39 60  1  0
M  END
>  <meeko>  (1) 
{"is_sidechain": [false], "free_energy": -9.814, "intermolecular_energy": -14.978, "internal_energy": -1.801}

$$$$
4crc_ligand
     RDKit          3D

 60 64  0  0  0  0  0  0  0  0999 V2000
  -49.7020  -13.7420  -22.8350 O   0  0  0  0  0  0  0  0  0  0  0  0
  -49.8370  -12.5950  -22.4270 C   0  0  0  0  0  0  0  0  0  0  0  0
  -49.2590  -12.1600  -21.1410 C   0  0  0  0  0  0  0  0  0  0  0  0
  -48.5160  -11.0450  -21.0830 C   0  0  0  0  0  0  0  0  0  0  0  0
  -47.8350  -10.6190  -19.8570 C   0  0  0  0  0  0  0  0  0  0  0  0
  -46.4310  -10.5380  -19.9170 C   0  0  0  0  0  0  0  0  0  0  0  0
  -45.6920  -10.1630  -18.7980 C   0  0  0  0  0  0  0  0  0  0  0  0
  -43.9780  -10.0700  -18.8920 Cl  0  0  0  0  0  0  0  0  0  0  0  0
  -46.3340   -9.8670  -17.6030 C   0  0  0  0  0  0  0  0  0  0  0  0
  -47.7290   -9.9430  -17.5210 C   0  0  0  0  0  0  0  0  0  0  0  0
  -48.4980  -10.3180  -18.6420 C   0  0  0  0  0  0  0  0  0  0  0  0
  -49.9190  -10.3700  -18.5130 N   0  0  0  0  0  0  0  0  0  0  0  0
  -50.8780   -9.6310  -19.1700 C   0  0  0  0  0  0  0  0  0  0  0  0
  -52.0720   -9.9870  -18.7590 N   0  0  0  0  0  0  0  0  0  0  0  0
  -51.8680  -10.9700  -17.8340 N   0  0  0  0  0  0  0  0  0  0  0  0
  -50.5760  -11.2100  -17.6760 N   0  0  0  0  0  0  0  0  0  0  0  0
  -50.4360  -11.5980  -23.1430 N   0  0  0  0  0  0  0  0  0  0  0  0
  -51.2280  -11.8450  -24.3530 C   0  0  1  0  0  0  0  0  0  0  0  0
  -52.4780  -12.6870  -24.0330 C   0  0  0  0  0  0  0  0  0  0  0  0
  -52.5610  -13.9650  -24.8400 C   0  0  0  0  0  0  0  0  0  0  0  0
  -52.1610  -15.1880  -24.2860 C   0  0  0  0  0  0  0  0  0  0  0  0
  -52.2640  -16.3670  -25.0270 C   0  0  0  0  0  0  0  0  0  0  0  0
  -52.7640  -16.3340  -26.3280 C   0  0  0  0  0  0  0  0  0  0  0  0
  -53.1580  -15.1220  -26.8900 C   0  0  0  0  0  0  0  0  0  0  0  0
  -53.0560  -13.9420  -26.1520 C   0  0  0  0  0  0  0  0  0  0  0  0
  -51.6330  -10.5160  -25.0410 C   0  0  0  0  0  0  0  0  0  0  0  0
  -50.7950   -9.6940  -25.4040 O   0  0  0  0  0  0  0  0  0  0  0  0
  -53.0080  -10.3480  -25.1080 N   0  0  0  0  0  0  0  0  0  0  0  0
  -53.7310   -9.2700  -25.6490 C   0  0  0  0  0  0  0  0  0  0  0  0
  -53.8590   -9.2280  -27.0430 C   0  0  0  0  0  0  0  0  0  0  0  0
  -54.5600   -8.1890  -27.6670 C   0  0  0  0  0  0  0  0  0  0  0  0
  -55.1460   -7.1700  -26.9080 C   0  0  0  0  0  0  0  0  0  0  0  0
  -55.8750   -6.0880  -27.5570 C   0  0  0  0  0  0  0  0  0  0  0  0
  -55.8140   -5.8530  -28.9140 N   0  0  0  0  0  0  0  0  0  0  0  0
  -56.5880   -4.8060  -29.1590 N   0  0  0  0  0  0  0  0  0  0  0  0
  -57.0750   -4.4620  -27.9630 N   0  0  0  0  0  0  0  0  0  0  0  0
  -56.6760   -5.2100  -26.9240 N   0  0  0  0  0  0  0  0  0  0  0  0
  -55.0150   -7.2150  -25.5140 C   0  0  0  0  0  0  0  0  0  0  0  0
  -54.3130   -8.2560  -24.8900 C   0  0  0  0  0  0  0  0  0  0  0  0
  -49.4375  -12.7501  -20.2300 H   0  0  0  0  0  0  0  0  0  0  0  0
  -48.4140  -10.4281  -21.9880 H   0  0  0  0  0  0  0  0  0  0  0  0
  -45.9121  -10.7735  -20.8579 H   0  0  0  0  0  0  0  0  0  0  0  0
  -45.7463   -9.5728  -16.7209 H   0  0  0  0  0  0  0  0  0  0  0  0
  -48.2314   -9.7075  -16.5712 H   0  0  0  0  0  0  0  0  0  0  0  0
  -50.6734   -8.8584  -19.9258 H   0  0  0  0  0  0  0  0  0  0  0  0
  -50.3830  -10.6430  -22.7990 H   0  0  0  0  0  0  0  0  0  0  0  0
  -50.5961  -12.4133  -25.0513 H   0  0  0  0  0  0  0  0  0  0  0  0
  -52.4585  -12.9491  -22.9649 H   0  0  0  0  0  0  0  0  0  0  0  0
  -53.3565  -12.0788  -24.2943 H   0  0  0  0  0  0  0  0  0  0  0  0
  -51.7633  -15.2197  -23.2609 H   0  0  0  0  0  0  0  0  0  0  0  0
  -51.9501  -17.3234  -24.5835 H   0  0  0  0  0  0  0  0  0  0  0  0
  -52.8472  -17.2638  -26.9098 H   0  0  0  0  0  0  0  0  0  0  0  0
  -53.5502  -15.0949  -27.9173 H   0  0  0  0  0  0  0  0  0  0  0  0
  -53.3659  -12.9875  -26.6023 H   0  0  0  0  0  0  0  0  0  0  0  0
  -53.5640  -11.1090  -24.7110 H   0  0  0  0  0  0  0  0  0  0  0  0
  -53.4035  -10.0206  -27.6548 H   0  0  0  0  0  0  0  0  0  0  0  0
  -54.6508   -8.1737  -28.7631 H   0  0  0  0  0  0  0  0  0  0  0  0
  -57.7110   -3.6780  -27.8510 H   0  0  0  0  0  0  0  0  0  0  0  0
  -55.4691   -6.4228  -24.9006 H   0  0  0  0  0  0  0  0  0  0  0  0
  -54.2209   -8.2726  -23.7940 H   0  0  0  0  0  0  0  0  0  0  0  0
  1  2  2  0
  2  3  1  0
  3  4  2  0
  4  5  1  0
  5  6  2  0
  6  7  1  0
  7  8  1  0
  7  9  2  0
  9 10  1  0
 10 11  2  0
 11 12  1  0
 12 13  1  0
 13 14  2  0
 14 15  1  0
 15 16  2  0
  2 17  1  0
 17 18  1  0
 18 19  1  0
 19 20  1  0
 20 21  2  0
 21 22  1  0
 22 23  2  0
 23 24  1  0
 24 25  2  0
 18 26  1  0
 26 27  2  0
 26 28  1  0
 28 29  1  0
 29 30  2  0
 30 31  1  0
 31 32  2  0
 32 33  1  0
 33 34  1  0
 34 35  2  0
 35 36  1  0
 36 37  1  0
 32 38  1  0
 38 39  2  0
 11  5  1  0
 16 12  1  0
 25 20  1  0
 39 29  1  0
 37 33  2  0
  3 40  1  0
  4 41  1  0
  6 42  1  0
  9 43  1  0
 10 44  1  0
 13 45  1  0
 17 46  1  0
 18 47  1  6
 19 48  1  0
 19 49  1  0
 21 50  1  0
 22 51  1  0
 23 52  1  0
 24 53  1  0
 25 54  1  0
 28 55  1  0
 30 56  1  0
 31 57  1  0
 36 58  1  0
 38 59  1  0
 39 60  1  0
M  END
>  <meeko>  (2) 
{"is_sidechain": [false], "free_energy": -9.204, "intermolecular_energy": -14.782, "internal_energy": -1.067}

$$$$
4crc_ligand
     RDKit          3D

 60 64  0  0  0  0  0  0  0  0999 V2000
  -57.0060  -11.1300  -22.2260 O   0  0  0  0  0  0  0  0  0  0  0  0
  -55.9300  -11.0460  -22.8070 C   0  0  0  0  0  0  0  0  0  0  0  0
  -55.7720  -10.2290  -24.0260 C   0  0  0  0  0  0  0  0  0  0  0  0
  -54.7150   -9.4130  -24.1530 C   0  0  0  0  0  0  0  0  0  0  0  0
  -54.5590   -8.5050  -25.2940 C   0  0  0  0  0  0  0  0  0  0  0  0
  -55.4920   -7.4560  -25.3920 C   0  0  0  0  0  0  0  0  0  0  0  0
  -55.4390   -6.5550  -26.4510 C   0  0  0  0  0  0  0  0  0  0  0  0
  -56.5890   -5.2800  -26.5520 Cl  0  0  0  0  0  0  0  0  0  0  0  0
  -54.4630   -6.6820  -27.4300 C   0  0  0  0  0  0  0  0  0  0  0  0
  -53.5270   -7.7190  -27.3530 C   0  0  0  0  0  0  0  0  0  0  0  0
  -53.5590   -8.6430  -26.2880 C   0  0  0  0  0  0  0  0  0  0  0  0
  -52.5750   -9.6770  -26.2460 N   0  0  0  0  0  0  0  0  0  0  0  0
  -52.3690  -10.7140  -27.1280 C   0  0  0  0  0  0  0  0  0  0  0  0
  -51.3570  -11.4460  -26.7230 N   0  0  0  0  0  0  0  0  0  0  0  0
  -50.9120  -10.8600  -25.5730 N   0  0  0  0  0  0  0  0  0  0  0  0
  -51.6370   -9.7940  -25.2740 N   0  0  0  0  0  0  0  0  0  0  0  0
  -54.7720  -11.6040  -22.3470 N   0  0  0  0  0  0  0  0  0  0  0  0
  -54.7330  -12.5930  -21.2640 C   0  0  1  0  0  0  0  0  0  0  0  0
  -54.6930  -14.0270  -21.8280 C   0  0  0  0  0  0  0  0  0  0  0  0
  -53.3210  -14.4380  -22.3180 C   0  0  0  0  0  0  0  0  0  0  0  0
  -52.8370  -13.9850  -23.5520 C   0  0  0  0  0  0  0  0  0  0  0  0
  -51.5610  -14.3460  -23.9880 C   0  0  0  0  0  0  0  0  0  0  0  0
  -50.7580  -15.1670  -23.1960 C   0  0  0  0  0  0  0  0  0  0  0  0
  -51.2330  -15.6290  -21.9700 C   0  0  0  0  0  0  0  0  0  0  0  0
  -52.5080  -15.2690  -21.5340 C   0  0  0  0  0  0  0  0  0  0  0  0
  -53.5260  -12.3490  -20.3220 C   0  0  0  0  0  0  0  0  0  0  0  0
  -53.5430  -12.7030  -19.1460 O   0  0  0  0  0  0  0  0  0  0  0  0
  -52.5080  -11.6350  -20.9350 N   0  0  0  0  0  0  0  0  0  0  0  0
  -51.2770  -11.2260  -20.3890 C   0  0  0  0  0  0  0  0  0  0  0  0
  -50.1560  -12.0040  -20.6990 C   0  0  0  0  0  0  0  0  0  0  0  0
  -48.8920  -11.6720  -20.1960 C   0  0  0  0  0  0  0  0  0  0  0  0
  -48.7260  -10.5530  -19.3710 C   0  0  0  0  0  0  0  0  0  0  0  0
  -47.4110  -10.2070  -18.8490 C   0  0  0  0  0  0  0  0  0  0  0  0
  -46.2520  -10.3470  -19.5830 N   0  0  0  0  0  0  0  0  0  0  0  0
  -45.2550   -9.9450  -18.8090 N   0  0  0  0  0  0  0  0  0  0  0  0
  -45.8430   -9.5850  -17.6640 N   0  0  0  0  0  0  0  0  0  0  0  0
  -47.1760   -9.7220  -17.6150 N   0  0  0  0  0  0  0  0  0  0  0  0
  -49.8510   -9.7770  -19.0630 C   0  0  0  0  0  0  0  0  0  0  0  0
  -51.1160  -10.1110  -19.5670 C   0  0  0  0  0  0  0  0  0  0  0  0
  -56.5205  -10.2892  -24.8298 H   0  0  0  0  0  0  0  0  0  0  0  0
  -53.9382   -9.4253  -23.3743 H   0  0  0  0  0  0  0  0  0  0  0  0
  -56.2713   -7.3472  -24.6234 H   0  0  0  0  0  0  0  0  0  0  0  0
  -54.4256   -5.9678  -28.2657 H   0  0  0  0  0  0  0  0  0  0  0  0
  -52.7568   -7.8148  -28.1325 H   0  0  0  0  0  0  0  0  0  0  0  0
  -52.9626  -10.9010  -28.0350 H   0  0  0  0  0  0  0  0  0  0  0  0
  -53.8950  -11.3710  -22.8070 H   0  0  0  0  0  0  0  0  0  0  0  0
  -55.6550  -12.4759  -20.6756 H   0  0  0  0  0  0  0  0  0  0  0  0
  -55.0039  -14.7231  -21.0351 H   0  0  0  0  0  0  0  0  0  0  0  0
  -55.3712  -14.0564  -22.6936 H   0  0  0  0  0  0  0  0  0  0  0  0
  -53.4671  -13.3400  -24.1821 H   0  0  0  0  0  0  0  0  0  0  0  0
  -51.1883  -13.9827  -24.9571 H   0  0  0  0  0  0  0  0  0  0  0  0
  -49.7516  -15.4492  -23.5386 H   0  0  0  0  0  0  0  0  0  0  0  0
  -50.6017  -16.2782  -21.3455 H   0  0  0  0  0  0  0  0  0  0  0  0
  -52.8788  -15.6400  -20.5671 H   0  0  0  0  0  0  0  0  0  0  0  0
  -52.6770  -11.3730  -21.9080 H   0  0  0  0  0  0  0  0  0  0  0  0
  -50.2690  -12.8868  -21.3454 H   0  0  0  0  0  0  0  0  0  0  0  0
  -48.0224  -12.2954  -20.4511 H   0  0  0  0  0  0  0  0  0  0  0  0
  -45.3070   -9.2300  -16.8780 H   0  0  0  0  0  0  0  0  0  0  0  0
  -49.7404   -8.8936  -18.4169 H   0  0  0  0  0  0  0  0  0  0  0  0
  -51.9872   -9.4895  -19.3124 H   0  0  0  0  0  0  0  0  0  0  0  0
  1  2  2  0
  2  3  1  0
  3  4  2  0
  4  5  1  0
  5  6  2  0
  6  7  1  0
  7  8  1  0
  7  9  2  0
  9 10  1  0
 10 11  2  0
 11 12  1  0
 12 13  1  0
 13 14  2  0
 14 15  1  0
 15 16  2  0
  2 17  1  0
 17 18  1  0
 18 19  1  0
 19 20  1  0
 20 21  2  0
 21 22  1  0
 22 23  2  0
 23 24  1  0
 24 25  2  0
 18 26  1  0
 26 27  2  0
 26 28  1  0
 28 29  1  0
 29 30  2  0
 30 31  1  0
 31 32  2  0
 32 33  1  0
 33 34  1  0
 34 35  2  0
 35 36  1  0
 36 37  1  0
 32 38  1  0
 38 39  2  0
 11  5  1  0
 16 12  1  0
 25 20  1  0
 39 29  1  0
 37 33  2  0
  3 40  1  0
  4 41  1  0
  6 42  1  0
  9 43  1  0
 10 44  1  0
 13 45  1  0
 17 46  1  0
 18 47  1  1
 19 48  1  0
 19 49  1  0
 21 50  1  0
 22 51  1  0
 23 52  1  0
 24 53  1  0
 25 54  1  0
 28 55  1  0
 30 56  1  0
 31 57  1  0
 36 58  1  0
 38 59  1  0
 39 60  1  0
M  END
>  <meeko>  (3) 
{"is_sidechain": [false], "free_energy": -9.14, "intermolecular_energy": -13.905, "internal_energy": -1.846}

$$$$
4crc_ligand
     RDKit          3D

 60 64  0  0  0  0  0  0  0  0999 V2000
  -51.9980  -11.9480  -27.7120 O   0  0  0  0  0  0  0  0  0  0  0  0
  -52.8600  -12.3120  -26.9200 C   0  0  0  0  0  0  0  0  0  0  0  0
  -53.8000  -13.4020  -27.2490 C   0  0  0  0  0  0  0  0  0  0  0  0
  -54.4490  -14.0460  -26.2680 C   0  0  0  0  0  0  0  0  0  0  0  0
  -55.3160  -15.1990  -26.5270 C   0  0  0  0  0  0  0  0  0  0  0  0
  -56.5430  -14.9290  -27.1630 C   0  0  0  0  0  0  0  0  0  0  0  0
  -57.4440  -15.9550  -27.4330 C   0  0  0  0  0  0  0  0  0  0  0  0
  -58.9370  -15.6040  -28.2110 Cl  0  0  0  0  0  0  0  0  0  0  0  0
  -57.1440  -17.2630  -27.0740 C   0  0  0  0  0  0  0  0  0  0  0  0
  -55.9310  -17.5520  -26.4390 C   0  0  0  0  0  0  0  0  0  0  0  0
  -55.0010  -16.5300  -26.1570 C   0  0  0  0  0  0  0  0  0  0  0  0
  -53.7720  -16.8760  -25.5190 N   0  0  0  0  0  0  0  0  0  0  0  0
  -53.4940  -16.9880  -24.1750 C   0  0  0  0  0  0  0  0  0  0  0  0
  -52.2370  -17.3270  -24.0080 N   0  0  0  0  0  0  0  0  0  0  0  0
  -51.7140  -17.4380  -25.2640 N   0  0  0  0  0  0  0  0  0  0  0  0
  -52.6270  -17.1690  -26.1830 N   0  0  0  0  0  0  0  0  0  0  0  0
  -52.9760  -11.8310  -25.6480 N   0  0  0  0  0  0  0  0  0  0  0  0
  -52.2710  -10.6340  -25.1760 C   0  0  1  0  0  0  0  0  0  0  0  0
  -53.2480   -9.6380  -24.5230 C   0  0  0  0  0  0  0  0  0  0  0  0
  -53.7430   -8.5730  -25.4770 C   0  0  0  0  0  0  0  0  0  0  0  0
  -54.6770   -7.6160  -25.0600 C   0  0  0  0  0  0  0  0  0  0  0  0
  -55.1090   -6.6200  -25.9390 C   0  0  0  0  0  0  0  0  0  0  0  0
  -54.6150   -6.5740  -27.2420 C   0  0  0  0  0  0  0  0  0  0  0  0
  -53.6910   -7.5250  -27.6690 C   0  0  0  0  0  0  0  0  0  0  0  0
  -53.2580   -8.5210  -26.7920 C   0  0  0  0  0  0  0  0  0  0  0  0
  -51.1360  -11.0040  -24.1860 C   0  0  0  0  0  0  0  0  0  0  0  0
  -50.4620  -12.0230  -24.3280 O   0  0  0  0  0  0  0  0  0  0  0  0
  -51.0460  -10.1190  -23.1230 N   0  0  0  0  0  0  0  0  0  0  0  0
  -50.1510  -10.1450  -22.0390 C   0  0  0  0  0  0  0  0  0  0  0  0
  -48.8170   -9.8170  -22.3090 C   0  0  0  0  0  0  0  0  0  0  0  0
  -47.8580   -9.8200  -21.2890 C   0  0  0  0  0  0  0  0  0  0  0  0
  -48.2150  -10.1530  -19.9770 C   0  0  0  0  0  0  0  0  0  0  0  0
  -47.2170  -10.1560  -18.9160 C   0  0  0  0  0  0  0  0  0  0  0  0
  -47.5460  -10.1900  -17.5770 N   0  0  0  0  0  0  0  0  0  0  0  0
  -46.4080  -10.1810  -16.9000 N   0  0  0  0  0  0  0  0  0  0  0  0
  -45.4590  -10.1440  -17.8400 N   0  0  0  0  0  0  0  0  0  0  0  0
  -45.8850  -10.1250  -19.1110 N   0  0  0  0  0  0  0  0  0  0  0  0
  -49.5510  -10.4810  -19.7110 C   0  0  0  0  0  0  0  0  0  0  0  0
  -50.5100  -10.4780  -20.7330 C   0  0  0  0  0  0  0  0  0  0  0  0
  -53.9679  -13.6857  -28.2984 H   0  0  0  0  0  0  0  0  0  0  0  0
  -54.3263  -13.6965  -25.2322 H   0  0  0  0  0  0  0  0  0  0  0  0
  -56.7920  -13.8965  -27.4494 H   0  0  0  0  0  0  0  0  0  0  0  0
  -57.8592  -18.0707  -27.2887 H   0  0  0  0  0  0  0  0  0  0  0  0
  -55.6999  -18.5896  -26.1562 H   0  0  0  0  0  0  0  0  0  0  0  0
  -54.2168  -16.8188  -23.3632 H   0  0  0  0  0  0  0  0  0  0  0  0
  -53.6220  -12.2830  -25.0070 H   0  0  0  0  0  0  0  0  0  0  0  0
  -51.8172  -10.1506  -26.0537 H   0  0  0  0  0  0  0  0  0  0  0  0
  -54.1157  -10.1977  -24.1438 H   0  0  0  0  0  0  0  0  0  0  0  0
  -52.7013   -9.1256  -23.7177 H   0  0  0  0  0  0  0  0  0  0  0  0
  -55.0727   -7.6490  -24.0342 H   0  0  0  0  0  0  0  0  0  0  0  0
  -55.8404   -5.8705  -25.6025 H   0  0  0  0  0  0  0  0  0  0  0  0
  -54.9545   -5.7876  -27.9321 H   0  0  0  0  0  0  0  0  0  0  0  0
  -53.3025   -7.4911  -28.6975 H   0  0  0  0  0  0  0  0  0  0  0  0
  -52.5304   -9.2713  -27.1351 H   0  0  0  0  0  0  0  0  0  0  0  0
  -51.7190   -9.3500  -23.1320 H   0  0  0  0  0  0  0  0  0  0  0  0
  -48.5188   -9.5538  -23.3346 H   0  0  0  0  0  0  0  0  0  0  0  0
  -46.8149   -9.5584  -21.5205 H   0  0  0  0  0  0  0  0  0  0  0  0
  -44.4720  -10.1320  -17.6010 H   0  0  0  0  0  0  0  0  0  0  0  0
  -49.8512  -10.7444  -18.6861 H   0  0  0  0  0  0  0  0  0  0  0  0
  -51.5534  -10.7402  -20.5035 H   0  0  0  0  0  0  0  0  0  0  0  0
  1  2  2  0
  2  3  1  0
  3  4  2  0
  4  5  1  0
  5  6  2  0
  6  7  1  0
  7  8  1  0
  7  9  2  0
  9 10  1  0
 10 11  2  0
 11 12  1  0
 12 13  1  0
 13 14  2  0
 14 15  1  0
 15 16  2  0
  2 17  1  0
 17 18  1  0
 18 19  1  0
 19 20  1  0
 20 21  2  0
 21 22  1  0
 22 23  2  0
 23 24  1  0
 24 25  2  0
 18 26  1  0
 26 27  2  0
 26 28  1  0
 28 29  1  0
 29 30  2  0
 30 31  1  0
 31 32  2  0
 32 33  1  0
 33 34  1  0
 34 35  2  0
 35 36  1  0
 36 37  1  0
 32 38  1  0
 38 39  2  0
 11  5  1  0
 16 12  1  0
 25 20  1  0
 39 29  1  0
 37 33  2  0
  3 40  1  0
  4 41  1  0
  6 42  1  0
  9 43  1  0
 10 44  1  0
 13 45  1  0
 17 46  1  0
 18 47  1  6
 19 48  1  0
 19 49  1  0
 21 50  1  0
 22 51  1  0
 23 52  1  0
 24 53  1  0
 25 54  1  0
 28 55  1  0
 30 56  1  0
 31 57  1  0
 36 58  1  0
 38 59  1  0
 39 60  1  0
M  END
>  <meeko>  (4) 
{"is_sidechain": [false], "free_energy": -9.087, "intermolecular_energy": -14.04, "internal_energy": -1.629}

$$$$
4crc_ligand
     RDKit          3D

 60 64  0  0  0  0  0  0  0  0999 V2000
  -50.0900  -10.3240  -24.0960 O   0  0  0  0  0  0  0  0  0  0  0  0
  -50.0650  -10.8620  -22.9950 C   0  0  0  0  0  0  0  0  0  0  0  0
  -49.2640  -10.3110  -21.8840 C   0  0  0  0  0  0  0  0  0  0  0  0
  -48.6220  -11.1390  -21.0460 C   0  0  0  0  0  0  0  0  0  0  0  0
  -47.8950  -10.6540  -19.8690 C   0  0  0  0  0  0  0  0  0  0  0  0
  -46.4920  -10.6100  -19.9740 C   0  0  0  0  0  0  0  0  0  0  0  0
  -45.7120  -10.1840  -18.9030 C   0  0  0  0  0  0  0  0  0  0  0  0
  -44.0000  -10.1380  -19.0520 Cl  0  0  0  0  0  0  0  0  0  0  0  0
  -46.3110   -9.7980  -17.7110 C   0  0  0  0  0  0  0  0  0  0  0  0
  -47.7050   -9.8360  -17.5850 C   0  0  0  0  0  0  0  0  0  0  0  0
  -48.5150  -10.2610  -18.6580 C   0  0  0  0  0  0  0  0  0  0  0  0
  -49.9330  -10.2710  -18.4850 N   0  0  0  0  0  0  0  0  0  0  0  0
  -50.7100  -11.1280  -17.7380 C   0  0  0  0  0  0  0  0  0  0  0  0
  -51.9730  -10.7930  -17.8500 N   0  0  0  0  0  0  0  0  0  0  0  0
  -51.9970   -9.7040  -18.6730 N   0  0  0  0  0  0  0  0  0  0  0  0
  -50.7740   -9.3800  -19.0630 N   0  0  0  0  0  0  0  0  0  0  0  0
  -50.8300  -11.9410  -22.6580 N   0  0  0  0  0  0  0  0  0  0  0  0
  -51.5570  -12.7480  -23.6450 C   0  0  1  0  0  0  0  0  0  0  0  0
  -52.3430  -13.8830  -22.9590 C   0  0  0  0  0  0  0  0  0  0  0  0
  -52.0370  -15.2510  -23.5300 C   0  0  0  0  0  0  0  0  0  0  0  0
  -52.3220  -15.5470  -24.8690 C   0  0  0  0  0  0  0  0  0  0  0  0
  -52.0140  -16.8030  -25.3970 C   0  0  0  0  0  0  0  0  0  0  0  0
  -51.4230  -17.7740  -24.5900 C   0  0  0  0  0  0  0  0  0  0  0  0
  -51.1420  -17.4920  -23.2550 C   0  0  0  0  0  0  0  0  0  0  0  0
  -51.4500  -16.2380  -22.7260 C   0  0  0  0  0  0  0  0  0  0  0  0
  -52.5090  -11.8710  -24.4980 C   0  0  0  0  0  0  0  0  0  0  0  0
  -52.6260  -12.0360  -25.7100 O   0  0  0  0  0  0  0  0  0  0  0  0
  -53.1150  -10.8680  -23.7580 N   0  0  0  0  0  0  0  0  0  0  0  0
  -54.0230   -9.8870  -24.1970 C   0  0  0  0  0  0  0  0  0  0  0  0
  -53.5130   -8.8690  -25.0120 C   0  0  0  0  0  0  0  0  0  0  0  0
  -54.3450   -7.8500  -25.4910 C   0  0  0  0  0  0  0  0  0  0  0  0
  -55.7060   -7.8290  -25.1620 C   0  0  0  0  0  0  0  0  0  0  0  0
  -56.5720   -6.7690  -25.6600 C   0  0  0  0  0  0  0  0  0  0  0  0
  -57.9470   -6.8670  -25.6690 N   0  0  0  0  0  0  0  0  0  0  0  0
  -58.4100   -5.7380  -26.1840 N   0  0  0  0  0  0  0  0  0  0  0  0
  -57.3170   -5.0200  -26.4570 N   0  0  0  0  0  0  0  0  0  0  0  0
  -56.1420   -5.5950  -26.1620 N   0  0  0  0  0  0  0  0  0  0  0  0
  -56.2110   -8.8490  -24.3450 C   0  0  0  0  0  0  0  0  0  0  0  0
  -55.3770   -9.8690  -23.8660 C   0  0  0  0  0  0  0  0  0  0  0  0
  -49.1936   -9.2223  -21.7434 H   0  0  0  0  0  0  0  0  0  0  0  0
  -48.6418  -12.2199  -21.2493 H   0  0  0  0  0  0  0  0  0  0  0  0
  -46.0068  -10.9156  -20.9127 H   0  0  0  0  0  0  0  0  0  0  0  0
  -45.6909   -9.4627  -16.8666 H   0  0  0  0  0  0  0  0  0  0  0  0
  -48.1737   -9.5307  -16.6378 H   0  0  0  0  0  0  0  0  0  0  0  0
  -50.3287  -11.9672  -17.1377 H   0  0  0  0  0  0  0  0  0  0  0  0
  -50.8610  -12.2410  -21.6870 H   0  0  0  0  0  0  0  0  0  0  0  0
  -50.8117  -13.1978  -24.3175 H   0  0  0  0  0  0  0  0  0  0  0  0
  -52.0894  -13.8864  -21.8886 H   0  0  0  0  0  0  0  0  0  0  0  0
  -53.4122  -13.6895  -23.1301 H   0  0  0  0  0  0  0  0  0  0  0  0
  -52.7914  -14.7854  -25.5090 H   0  0  0  0  0  0  0  0  0  0  0  0
  -52.2380  -17.0261  -26.4506 H   0  0  0  0  0  0  0  0  0  0  0  0
  -51.1787  -18.7621  -25.0070 H   0  0  0  0  0  0  0  0  0  0  0  0
  -50.6770  -18.2584  -22.6174 H   0  0  0  0  0  0  0  0  0  0  0  0
  -51.2305  -16.0223  -21.6699 H   0  0  0  0  0  0  0  0  0  0  0  0
  -52.8680  -10.8400  -22.7670 H   0  0  0  0  0  0  0  0  0  0  0  0
  -52.4459   -8.8699  -25.2791 H   0  0  0  0  0  0  0  0  0  0  0  0
  -53.9262   -7.0594  -26.1310 H   0  0  0  0  0  0  0  0  0  0  0  0
  -57.3760   -4.0930  -26.8660 H   0  0  0  0  0  0  0  0  0  0  0  0
  -57.2775   -8.8495  -24.0754 H   0  0  0  0  0  0  0  0  0  0  0  0
  -55.7936  -10.6600  -23.2250 H   0  0  0  0  0  0  0  0  0  0  0  0
  1  2  2  0
  2  3  1  0
  3  4  2  0
  4  5  1  0
  5  6  2  0
  6  7  1  0
  7  8  1  0
  7  9  2  0
  9 10  1  0
 10 11  2  0
 11 12  1  0
 12 13  1  0
 13 14  2  0
 14 15  1  0
 15 16  2  0
  2 17  1  0
 17 18  1  0
 18 19  1  0
 19 20  1  0
 20 21  2  0
 21 22  1  0
 22 23  2  0
 23 24  1  0
 24 25  2  0
 18 26  1  0
 26 27  2  0
 26 28  1  0
 28 29  1  0
 29 30  2  0
 30 31  1  0
 31 32  2  0
 32 33  1  0
 33 34  1  0
 34 35  2  0
 35 36  1  0
 36 37  1  0
 32 38  1  0
 38 39  2  0
 11  5  1  0
 16 12  1  0
 25 20  1  0
 39 29  1  0
 37 33  2  0
  3 40  1  0
  4 41  1  0
  6 42  1  0
  9 43  1  0
 10 44  1  0
 13 45  1  0
 17 46  1  0
 18 47  1  6
 19 48  1  0
 19 49  1  0
 21 50  1  0
 22 51  1  0
 23 52  1  0
 24 53  1  0
 25 54  1  0
 28 55  1  0
 30 56  1  0
 31 57  1  0
 36 58  1  0
 38 59  1  0
 39 60  1  0
M  END
>  <meeko>  (5) 
{"is_sidechain": [false], "free_energy": -8.88, "intermolecular_energy": -14.348, "internal_energy": -1.006}

$$$$
4crc_ligand
     RDKit          3D

 60 64  0  0  0  0  0  0  0  0999 V2000
  -51.7110   -9.4270  -25.4910 O   0  0  0  0  0  0  0  0  0  0  0  0
  -52.9020   -9.6670  -25.6490 C   0  0  0  0  0  0  0  0  0  0  0  0
  -53.8100   -8.6900  -26.2810 C   0  0  0  0  0  0  0  0  0  0  0  0
  -55.1330   -8.7730  -26.0770 C   0  0  0  0  0  0  0  0  0  0  0  0
  -56.0880   -7.8940  -26.7570 C   0  0  0  0  0  0  0  0  0  0  0  0
  -56.1260   -6.5560  -26.3220 C   0  0  0  0  0  0  0  0  0  0  0  0
  -57.0150   -5.6480  -26.8920 C   0  0  0  0  0  0  0  0  0  0  0  0
  -57.0450   -4.0180  -26.3450 Cl  0  0  0  0  0  0  0  0  0  0  0  0
  -57.8800   -6.0540  -27.8990 C   0  0  0  0  0  0  0  0  0  0  0  0
  -57.8600   -7.3810  -28.3450 C   0  0  0  0  0  0  0  0  0  0  0  0
  -56.9670   -8.3170  -27.7840 C   0  0  0  0  0  0  0  0  0  0  0  0
  -56.9750   -9.6560  -28.2810 N   0  0  0  0  0  0  0  0  0  0  0  0
  -58.0330  -10.5280  -28.4060 C   0  0  0  0  0  0  0  0  0  0  0  0
  -57.6140  -11.6660  -28.9070 N   0  0  0  0  0  0  0  0  0  0  0  0
  -56.2720  -11.5100  -29.1080 N   0  0  0  0  0  0  0  0  0  0  0  0
  -55.8750  -10.3040  -28.7350 N   0  0  0  0  0  0  0  0  0  0  0  0
  -53.4820  -10.8680  -25.3550 N   0  0  0  0  0  0  0  0  0  0  0  0
  -52.8150  -11.9080  -24.5650 C   0  0  1  0  0  0  0  0  0  0  0  0
  -51.7610  -12.6520  -25.4080 C   0  0  0  0  0  0  0  0  0  0  0  0
  -52.3120  -13.2000  -26.7060 C   0  0  0  0  0  0  0  0  0  0  0  0
  -53.1950  -14.2880  -26.7060 C   0  0  0  0  0  0  0  0  0  0  0  0
  -53.7200  -14.7720  -27.9060 C   0  0  0  0  0  0  0  0  0  0  0  0
  -53.3660  -14.1760  -29.1160 C   0  0  0  0  0  0  0  0  0  0  0  0
  -52.4830  -13.0980  -29.1270 C   0  0  0  0  0  0  0  0  0  0  0  0
  -51.9570  -12.6130  -27.9300 C   0  0  0  0  0  0  0  0  0  0  0  0
  -52.1650  -11.3150  -23.2880 C   0  0  0  0  0  0  0  0  0  0  0  0
  -52.8150  -10.6590  -22.4780 O   0  0  0  0  0  0  0  0  0  0  0  0
  -50.7980  -11.5380  -23.2330 N   0  0  0  0  0  0  0  0  0  0  0  0
  -49.8870  -11.1400  -22.2380 C   0  0  0  0  0  0  0  0  0  0  0  0
  -49.8460  -11.9110  -21.0700 C   0  0  0  0  0  0  0  0  0  0  0  0
  -48.9720  -11.5850  -20.0270 C   0  0  0  0  0  0  0  0  0  0  0  0
  -48.1210  -10.4790  -20.1310 C   0  0  0  0  0  0  0  0  0  0  0  0
  -47.2100  -10.1400  -19.0450 C   0  0  0  0  0  0  0  0  0  0  0  0
  -45.8390  -10.2180  -19.1650 N   0  0  0  0  0  0  0  0  0  0  0  0
  -45.3280   -9.8430  -18.0020 N   0  0  0  0  0  0  0  0  0  0  0  0
  -46.3920   -9.5590  -17.2450 N   0  0  0  0  0  0  0  0  0  0  0  0
  -47.5910   -9.7220  -17.8230 N   0  0  0  0  0  0  0  0  0  0  0  0
  -48.1650   -9.7100  -21.3010 C   0  0  0  0  0  0  0  0  0  0  0  0
  -49.0420  -10.0370  -22.3450 C   0  0  0  0  0  0  0  0  0  0  0  0
  -53.4013   -7.8932  -26.9198 H   0  0  0  0  0  0  0  0  0  0  0  0
  -55.5148   -9.5280  -25.3740 H   0  0  0  0  0  0  0  0  0  0  0  0
  -55.4464   -6.2239  -25.5234 H   0  0  0  0  0  0  0  0  0  0  0  0
  -58.5807   -5.3336  -28.3463 H   0  0  0  0  0  0  0  0  0  0  0  0
  -58.5489   -7.6970  -29.1422 H   0  0  0  0  0  0  0  0  0  0  0  0
  -59.0734  -10.3043  -28.1276 H   0  0  0  0  0  0  0  0  0  0  0  0
  -54.4410  -11.0370  -25.6470 H   0  0  0  0  0  0  0  0  0  0  0  0
  -53.5841  -12.6303  -24.2539 H   0  0  0  0  0  0  0  0  0  0  0  0
  -50.9446  -11.9531  -25.6426 H   0  0  0  0  0  0  0  0  0  0  0  0
  -51.4139  -13.5097  -24.8132 H   0  0  0  0  0  0  0  0  0  0  0  0
  -53.4763  -14.7637  -25.7549 H   0  0  0  0  0  0  0  0  0  0  0  0
  -54.4143  -15.6252  -27.8968 H   0  0  0  0  0  0  0  0  0  0  0  0
  -53.7831  -14.5562  -30.0602 H   0  0  0  0  0  0  0  0  0  0  0  0
  -52.2005  -12.6290  -30.0811 H   0  0  0  0  0  0  0  0  0  0  0  0
  -51.2583  -11.7636  -27.9455 H   0  0  0  0  0  0  0  0  0  0  0  0
  -50.4050  -12.0610  -24.0190 H   0  0  0  0  0  0  0  0  0  0  0  0
  -50.5087  -12.7834  -20.9711 H   0  0  0  0  0  0  0  0  0  0  0  0
  -48.9537  -12.2034  -19.1175 H   0  0  0  0  0  0  0  0  0  0  0  0
  -46.2950   -9.2400  -16.2860 H   0  0  0  0  0  0  0  0  0  0  0  0
  -47.5025   -8.8377  -21.4021 H   0  0  0  0  0  0  0  0  0  0  0  0
  -49.0632   -9.4188  -23.2546 H   0  0  0  0  0  0  0  0  0  0  0  0
  1  2  2  0
  2  3  1  0
  3  4  2  0
  4  5  1  0
  5  6  2  0
  6  7  1  0
  7  8  1  0
  7  9  2  0
  9 10  1  0
 10 11  2  0
 11 12  1  0
 12 13  1  0
 13 14  2  0
 14 15  1  0
 15 16  2  0
  2 17  1  0
 17 18  1  0
 18 19  1  0
 19 20  1  0
 20 21  2  0
 21 22  1  0
 22 23  2  0
 23 24  1  0
 24 25  2  0
 18 26  1  0
 26 27  2  0
 26 28  1  0
 28 29  1  0
 29 30  2  0
 30 31  1  0
 31 32  2  0
 32 33  1  0
 33 34  1  0
 34 35  2  0
 35 36  1  0
 36 37  1  0
 32 38  1  0
 38 39  2  0
 11  5  1  0
 16 12  1  0
 25 20  1  0
 39 29  1  0
 37 33  2  0
  3 40  1  0
  4 41  1  0
  6 42  1  0
  9 43  1  0
 10 44  1  0
 13 45  1  0
 17 46  1  0
 18 47  1  1
 19 48  1  0
 19 49  1  0
 21 50  1  0
 22 51  1  0
 23 52  1  0
 24 53  1  0
 25 54  1  0
 28 55  1  0
 30 56  1  0
 31 57  1  0
 36 58  1  0
 38 59  1  0
 39 60  1  0
M  END
>  <meeko>  (6) 
{"is_sidechain": [false], "free_energy": -8.744, "intermolecular_energy": -13.891, "internal_energy": -1.254}

$$$$
4crc_ligand
     RDKit          3D

 60 64  0  0  0  0  0  0  0  0999 V2000
  -51.7040   -9.3300  -25.6930 O   0  0  0  0  0  0  0  0  0  0  0  0
  -52.9170   -9.5040  -25.6660 C   0  0  0  0  0  0  0  0  0  0  0  0
  -53.8570   -8.4650  -26.1290 C   0  0  0  0  0  0  0  0  0  0  0  0
  -55.1530   -8.5350  -25.7910 C   0  0  0  0  0  0  0  0  0  0  0  0
  -56.1490   -7.5890  -26.3030 C   0  0  0  0  0  0  0  0  0  0  0  0
  -55.7560   -6.8000  -27.4010 C   0  0  0  0  0  0  0  0  0  0  0  0
  -56.6240   -5.8580  -27.9460 C   0  0  0  0  0  0  0  0  0  0  0  0
  -56.1240   -4.9050  -29.2870 Cl  0  0  0  0  0  0  0  0  0  0  0  0
  -57.8930   -5.6830  -27.4090 C   0  0  0  0  0  0  0  0  0  0  0  0
  -58.3020   -6.4560  -26.3160 C   0  0  0  0  0  0  0  0  0  0  0  0
  -57.4410   -7.4170  -25.7490 C   0  0  0  0  0  0  0  0  0  0  0  0
  -57.9090   -8.1900  -24.6430 N   0  0  0  0  0  0  0  0  0  0  0  0
  -58.6350   -9.3600  -24.6470 C   0  0  0  0  0  0  0  0  0  0  0  0
  -58.8630   -9.7450  -23.4140 N   0  0  0  0  0  0  0  0  0  0  0  0
  -58.2670   -8.8100  -22.6170 N   0  0  0  0  0  0  0  0  0  0  0  0
  -57.6890   -7.8680  -23.3450 N   0  0  0  0  0  0  0  0  0  0  0  0
  -53.5080  -10.6810  -25.3060 N   0  0  0  0  0  0  0  0  0  0  0  0
  -52.7840  -11.7750  -24.6500 C   0  0  1  0  0  0  0  0  0  0  0  0
  -51.7240  -12.3790  -25.5920 C   0  0  0  0  0  0  0  0  0  0  0  0
  -52.3170  -13.0080  -26.8330 C   0  0  0  0  0  0  0  0  0  0  0  0
  -52.0040  -12.5120  -28.1060 C   0  0  0  0  0  0  0  0  0  0  0  0
  -52.5350  -13.1140  -29.2490 C   0  0  0  0  0  0  0  0  0  0  0  0
  -53.3850  -14.2130  -29.1310 C   0  0  0  0  0  0  0  0  0  0  0  0
  -53.7080  -14.7090  -27.8700 C   0  0  0  0  0  0  0  0  0  0  0  0
  -53.1790  -14.1090  -26.7260 C   0  0  0  0  0  0  0  0  0  0  0  0
  -52.1240  -11.3000  -23.3290 C   0  0  0  0  0  0  0  0  0  0  0  0
  -52.7910  -10.8510  -22.4000 O   0  0  0  0  0  0  0  0  0  0  0  0
  -50.7400  -11.3660  -23.3710 N   0  0  0  0  0  0  0  0  0  0  0  0
  -49.8190  -11.0120  -22.3690 C   0  0  0  0  0  0  0  0  0  0  0  0
  -49.7740  -11.8260  -21.2310 C   0  0  0  0  0  0  0  0  0  0  0  0
  -48.8880  -11.5450  -20.1830 C   0  0  0  0  0  0  0  0  0  0  0  0
  -48.0300  -10.4420  -20.2530 C   0  0  0  0  0  0  0  0  0  0  0  0
  -47.1080  -10.1490  -19.1640 C   0  0  0  0  0  0  0  0  0  0  0  0
  -45.7430  -10.3060  -19.2750 N   0  0  0  0  0  0  0  0  0  0  0  0
  -45.2190   -9.9550  -18.1100 N   0  0  0  0  0  0  0  0  0  0  0  0
  -46.2690   -9.6070  -17.3610 N   0  0  0  0  0  0  0  0  0  0  0  0
  -47.4710   -9.7030  -17.9470 N   0  0  0  0  0  0  0  0  0  0  0  0
  -48.0780   -9.6290  -21.3940 C   0  0  0  0  0  0  0  0  0  0  0  0
  -48.9660   -9.9110  -22.4420 C   0  0  0  0  0  0  0  0  0  0  0  0
  -53.4949   -7.6333  -26.7512 H   0  0  0  0  0  0  0  0  0  0  0  0
  -55.4802   -9.3305  -25.1053 H   0  0  0  0  0  0  0  0  0  0  0  0
  -54.7525   -6.9293  -27.8327 H   0  0  0  0  0  0  0  0  0  0  0  0
  -58.5760   -4.9375  -27.8423 H   0  0  0  0  0  0  0  0  0  0  0  0
  -59.3077   -6.3116  -25.8945 H   0  0  0  0  0  0  0  0  0  0  0  0
  -58.9729   -9.8918  -25.5486 H   0  0  0  0  0  0  0  0  0  0  0  0
  -54.5090  -10.7930  -25.4450 H   0  0  0  0  0  0  0  0  0  0  0  0
  -53.5178  -12.5570  -24.4051 H   0  0  0  0  0  0  0  0  0  0  0  0
  -51.0348  -11.5792  -25.9009 H   0  0  0  0  0  0  0  0  0  0  0  0
  -51.2097  -13.1766  -25.0358 H   0  0  0  0  0  0  0  0  0  0  0  0
  -51.3363  -11.6435  -28.2055 H   0  0  0  0  0  0  0  0  0  0  0  0
  -52.2821  -12.7202  -30.2445 H   0  0  0  0  0  0  0  0  0  0  0  0
  -53.7999  -14.6877  -30.0324 H   0  0  0  0  0  0  0  0  0  0  0  0
  -54.3806  -15.5743  -27.7756 H   0  0  0  0  0  0  0  0  0  0  0  0
  -53.4403  -14.5029  -25.7327 H   0  0  0  0  0  0  0  0  0  0  0  0
  -50.3420  -11.7190  -24.2440 H   0  0  0  0  0  0  0  0  0  0  0  0
  -50.4424  -12.6967  -21.1589 H   0  0  0  0  0  0  0  0  0  0  0  0
  -48.8666  -12.1971  -19.2974 H   0  0  0  0  0  0  0  0  0  0  0  0
  -46.1600   -9.2880  -16.4030 H   0  0  0  0  0  0  0  0  0  0  0  0
  -47.4101   -8.7581  -21.4682 H   0  0  0  0  0  0  0  0  0  0  0  0
  -48.9900   -9.2593  -23.3278 H   0  0  0  0  0  0  0  0  0  0  0  0
  1  2  2  0
  2  3  1  0
  3  4  2  0
  4  5  1  0
  5  6  2  0
  6  7  1  0
  7  8  1  0
  7  9  2  0
  9 10  1  0
 10 11  2  0
 11 12  1  0
 12 13  1  0
 13 14  2  0
 14 15  1  0
 15 16  2  0
  2 17  1  0
 17 18  1  0
 18 19  1  0
 19 20  1  0
 20 21  2  0
 21 22  1  0
 22 23  2  0
 23 24  1  0
 24 25  2  0
 18 26  1  0
 26 27  2  0
 26 28  1  0
 28 29  1  0
 29 30  2  0
 30 31  1  0
 31 32  2  0
 32 33  1  0
 33 34  1  0
 34 35  2  0
 35 36  1  0
 36 37  1  0
 32 38  1  0
 38 39  2  0
 11  5  1  0
 16 12  1  0
 25 20  1  0
 39 29  1  0
 37 33  2  0
  3 40  1  0
  4 41  1  0
  6 42  1  0
  9 43  1  0
 10 44  1  0
 13 45  1  0
 17 46  1  0
 18 47  1  1
 19 48  1  0
 19 49  1  0
 21 50  1  0
 22 51  1  0
 23 52  1  0
 24 53  1  0
 25 54  1  0
 28 55  1  0
 30 56  1  0
 31 57  1  0
 36 58  1  0
 38 59  1  0
 39 60  1  0
M  END
>  <meeko>  (7) 
{"is_sidechain": [false], "free_energy": -8.541, "intermolecular_energy": -13.435, "internal_energy": -1.402}

$$$$
4crc_ligand
     RDKit          3D

 60 64  0  0  0  0  0  0  0  0999 V2000
  -51.1160   -9.3030  -19.2810 O   0  0  0  0  0  0  0  0  0  0  0  0
  -50.8330  -10.4870  -19.4270 C   0  0  0  0  0  0  0  0  0  0  0  0
  -51.4320  -11.5340  -18.5770 C   0  0  0  0  0  0  0  0  0  0  0  0
  -52.5070  -12.2120  -19.0050 C   0  0  0  0  0  0  0  0  0  0  0  0
  -53.2020  -13.1910  -18.1640 C   0  0  0  0  0  0  0  0  0  0  0  0
  -54.0190  -12.6710  -17.1430 C   0  0  0  0  0  0  0  0  0  0  0  0
  -54.7050  -13.5200  -16.2790 C   0  0  0  0  0  0  0  0  0  0  0  0
  -55.6970  -12.8630  -15.0380 Cl  0  0  0  0  0  0  0  0  0  0  0  0
  -54.5880  -14.8970  -16.4130 C   0  0  0  0  0  0  0  0  0  0  0  0
  -53.7800  -15.4350  -17.4200 C   0  0  0  0  0  0  0  0  0  0  0  0
  -53.0780  -14.5950  -18.3090 C   0  0  0  0  0  0  0  0  0  0  0  0
  -52.2750  -15.1910  -19.3280 N   0  0  0  0  0  0  0  0  0  0  0  0
  -52.6670  -15.7580  -20.5200 C   0  0  0  0  0  0  0  0  0  0  0  0
  -51.6140  -16.1930  -21.1720 N   0  0  0  0  0  0  0  0  0  0  0  0
  -50.5400  -15.8920  -20.3850 N   0  0  0  0  0  0  0  0  0  0  0  0
  -50.9240  -15.2880  -19.2710 N   0  0  0  0  0  0  0  0  0  0  0  0
  -50.0320  -10.9600  -20.4260 N   0  0  0  0  0  0  0  0  0  0  0  0
  -49.2000  -10.0910  -21.2660 C   0  0  1  0  0  0  0  0  0  0  0  0
  -47.7550  -10.6220  -21.3480 C   0  0  0  0  0  0  0  0  0  0  0  0
  -46.9540  -10.3710  -20.0890 C   0  0  0  0  0  0  0  0  0  0  0  0
  -47.5890   -9.9900  -18.9000 C   0  0  0  0  0  0  0  0  0  0  0  0
  -46.8470   -9.7840  -17.7360 C   0  0  0  0  0  0  0  0  0  0  0  0
  -45.4620   -9.9540  -17.7500 C   0  0  0  0  0  0  0  0  0  0  0  0
  -44.8200  -10.3240  -18.9290 C   0  0  0  0  0  0  0  0  0  0  0  0
  -45.5610  -10.5300  -20.0940 C   0  0  0  0  0  0  0  0  0  0  0  0
  -49.8010   -9.9390  -22.6870 C   0  0  0  0  0  0  0  0  0  0  0  0
  -49.3280   -9.1560  -23.5070 O   0  0  0  0  0  0  0  0  0  0  0  0
  -50.9410  -10.7050  -22.8680 N   0  0  0  0  0  0  0  0  0  0  0  0
  -51.7500  -10.8100  -24.0150 C   0  0  0  0  0  0  0  0  0  0  0  0
  -51.5100  -11.8970  -24.8640 C   0  0  0  0  0  0  0  0  0  0  0  0
  -52.2660  -12.0770  -26.0280 C   0  0  0  0  0  0  0  0  0  0  0  0
  -53.2770  -11.1710  -26.3670 C   0  0  0  0  0  0  0  0  0  0  0  0
  -54.0640  -11.3580  -27.5790 C   0  0  0  0  0  0  0  0  0  0  0  0
  -54.7650  -10.3360  -28.1840 N   0  0  0  0  0  0  0  0  0  0  0  0
  -55.3600  -10.8530  -29.2480 N   0  0  0  0  0  0  0  0  0  0  0  0
  -54.9990  -12.1400  -29.2420 N   0  0  0  0  0  0  0  0  0  0  0  0
  -54.1990  -12.5250  -28.2370 N   0  0  0  0  0  0  0  0  0  0  0  0
  -53.5140  -10.0840  -25.5150 C   0  0  0  0  0  0  0  0  0  0  0  0
  -52.7570   -9.9050  -24.3490 C   0  0  0  0  0  0  0  0  0  0  0  0
  -50.9967  -11.7584  -17.5921 H   0  0  0  0  0  0  0  0  0  0  0  0
  -52.8804  -12.0269  -20.0230 H   0  0  0  0  0  0  0  0  0  0  0  0
  -54.1166  -11.5816  -17.0263 H   0  0  0  0  0  0  0  0  0  0  0  0
  -55.1306  -15.5646  -15.7275 H   0  0  0  0  0  0  0  0  0  0  0  0
  -53.6910  -16.5268  -17.5197 H   0  0  0  0  0  0  0  0  0  0  0  0
  -53.7061  -15.8349  -20.8728 H   0  0  0  0  0  0  0  0  0  0  0  0
  -49.9600  -11.9640  -20.5670 H   0  0  0  0  0  0  0  0  0  0  0  0
  -49.1794   -9.0971  -20.7952 H   0  0  0  0  0  0  0  0  0  0  0  0
  -47.7910  -11.7064  -21.5288 H   0  0  0  0  0  0  0  0  0  0  0  0
  -47.2550  -10.0825  -22.1659 H   0  0  0  0  0  0  0  0  0  0  0  0
  -48.6802   -9.8522  -18.8836 H   0  0  0  0  0  0  0  0  0  0  0  0
  -47.3546   -9.4872  -16.8063 H   0  0  0  0  0  0  0  0  0  0  0  0
  -44.8783   -9.7960  -16.8311 H   0  0  0  0  0  0  0  0  0  0  0  0
  -43.7278  -10.4541  -18.9424 H   0  0  0  0  0  0  0  0  0  0  0  0
  -45.0480  -10.8193  -21.0231 H   0  0  0  0  0  0  0  0  0  0  0  0
  -51.2290  -11.2650  -22.0630 H   0  0  0  0  0  0  0  0  0  0  0  0
  -50.7180  -12.6180  -24.6133 H   0  0  0  0  0  0  0  0  0  0  0  0
  -52.0637  -12.9381  -26.6819 H   0  0  0  0  0  0  0  0  0  0  0  0
  -55.3150  -12.7860  -29.9580 H   0  0  0  0  0  0  0  0  0  0  0  0
  -54.3049   -9.3614  -25.7646 H   0  0  0  0  0  0  0  0  0  0  0  0
  -52.9585   -9.0452  -23.6932 H   0  0  0  0  0  0  0  0  0  0  0  0
  1  2  2  0
  2  3  1  0
  3  4  2  0
  4  5  1  0
  5  6  2  0
  6  7  1  0
  7  8  1  0
  7  9  2  0
  9 10  1  0
 10 11  2  0
 11 12  1  0
 12 13  1  0
 13 14  2  0
 14 15  1  0
 15 16  2  0
  2 17  1  0
 17 18  1  0
 18 19  1  0
 19 20  1  0
 20 21  2  0
 21 22  1  0
 22 23  2  0
 23 24  1  0
 24 25  2  0
 18 26  1  0
 26 27  2  0
 26 28  1  0
 28 29  1  0
 29 30  2  0
 30 31  1  0
 31 32  2  0
 32 33  1  0
 33 34  1  0
 34 35  2  0
 35 36  1  0
 36 37  1  0
 32 38  1  0
 38 39  2  0
 11  5  1  0
 16 12  1  0
 25 20  1  0
 39 29  1  0
 37 33  2  0
  3 40  1  0
  4 41  1  0
  6 42  1  0
  9 43  1  0
 10 44  1  0
 13 45  1  0
 17 46  1  0
 18 47  1  1
 19 48  1  0
 19 49  1  0
 21 50  1  0
 22 51  1  0
 23 52  1  0
 24 53  1  0
 25 54  1  0
 28 55  1  0
 30 56  1  0
 31 57  1  0
 36 58  1  0
 38 59  1  0
 39 60  1  0
M  END
>  <meeko>  (8) 
{"is_sidechain": [false], "free_energy": -8.506, "intermolecular_energy": -13.584, "internal_energy": -1.198}

$$$$
4crc_ligand
     RDKit          3D

 60 64  0  0  0  0  0  0  0  0999 V2000
  -50.4730   -9.6890  -22.6360 O   0  0  0  0  0  0  0  0  0  0  0  0
  -50.4230  -10.8330  -23.0730 C   0  0  0  0  0  0  0  0  0  0  0  0
  -51.1440  -11.2230  -24.3010 C   0  0  0  0  0  0  0  0  0  0  0  0
  -51.7960  -10.2960  -25.0180 C   0  0  0  0  0  0  0  0  0  0  0  0
  -52.6110  -10.6400  -26.1880 C   0  0  0  0  0  0  0  0  0  0  0  0
  -52.2340  -11.7980  -26.8940 C   0  0  0  0  0  0  0  0  0  0  0  0
  -52.9320  -12.1960  -28.0300 C   0  0  0  0  0  0  0  0  0  0  0  0
  -52.4560  -13.6140  -28.8780 Cl  0  0  0  0  0  0  0  0  0  0  0  0
  -54.0120  -11.4500  -28.4850 C   0  0  0  0  0  0  0  0  0  0  0  0
  -54.4020  -10.2950  -27.7980 C   0  0  0  0  0  0  0  0  0  0  0  0
  -53.7110   -9.8740  -26.6430 C   0  0  0  0  0  0  0  0  0  0  0  0
  -54.1540   -8.6940  -25.9700 N   0  0  0  0  0  0  0  0  0  0  0  0
  -55.1330   -8.5590  -25.0120 C   0  0  0  0  0  0  0  0  0  0  0  0
  -55.2300   -7.3000  -24.6520 N   0  0  0  0  0  0  0  0  0  0  0  0
  -54.2950   -6.6310  -25.3880 N   0  0  0  0  0  0  0  0  0  0  0  0
  -53.6400   -7.4590  -26.1860 N   0  0  0  0  0  0  0  0  0  0  0  0
  -49.6390  -11.8170  -22.5420 N   0  0  0  0  0  0  0  0  0  0  0  0
  -48.9850  -11.7020  -21.2340 C   0  0  1  0  0  0  0  0  0  0  0  0
  -48.4750  -10.2670  -20.9950 C   0  0  0  0  0  0  0  0  0  0  0  0
  -47.4940  -10.1650  -19.8480 C   0  0  0  0  0  0  0  0  0  0  0  0
  -47.9270   -9.8000  -18.5670 C   0  0  0  0  0  0  0  0  0  0  0  0
  -47.0210   -9.7330  -17.5060 C   0  0  0  0  0  0  0  0  0  0  0  0
  -45.6740  -10.0260  -17.7180 C   0  0  0  0  0  0  0  0  0  0  0  0
  -45.2320  -10.3830  -18.9900 C   0  0  0  0  0  0  0  0  0  0  0  0
  -46.1360  -10.4510  -20.0500 C   0  0  0  0  0  0  0  0  0  0  0  0
  -49.9370  -12.1340  -20.0890 C   0  0  0  0  0  0  0  0  0  0  0  0
  -49.7420  -13.1590  -19.4390 O   0  0  0  0  0  0  0  0  0  0  0  0
  -51.0330  -11.2950  -19.9620 N   0  0  0  0  0  0  0  0  0  0  0  0
  -52.0980  -11.3830  -19.0480 C   0  0  0  0  0  0  0  0  0  0  0  0
  -53.1810  -12.1920  -19.4110 C   0  0  0  0  0  0  0  0  0  0  0  0
  -54.2860  -12.3340  -18.5620 C   0  0  0  0  0  0  0  0  0  0  0  0
  -54.3290  -11.6660  -17.3330 C   0  0  0  0  0  0  0  0  0  0  0  0
  -55.4780  -11.8140  -16.4500 C   0  0  0  0  0  0  0  0  0  0  0  0
  -56.5240  -10.9160  -16.4240 N   0  0  0  0  0  0  0  0  0  0  0  0
  -57.3850  -11.3520  -15.5160 N   0  0  0  0  0  0  0  0  0  0  0  0
  -56.8330  -12.4730  -15.0430 N   0  0  0  0  0  0  0  0  0  0  0  0
  -55.6510  -12.8200  -15.5720 N   0  0  0  0  0  0  0  0  0  0  0  0
  -53.2440  -10.8560  -16.9740 C   0  0  0  0  0  0  0  0  0  0  0  0
  -52.1380  -10.7150  -17.8250 C   0  0  0  0  0  0  0  0  0  0  0  0
  -51.1464  -12.2734  -24.6276 H   0  0  0  0  0  0  0  0  0  0  0  0
  -51.7168   -9.2406  -24.7181 H   0  0  0  0  0  0  0  0  0  0  0  0
  -51.3786  -12.3945  -26.5440 H   0  0  0  0  0  0  0  0  0  0  0  0
  -54.5601  -11.7670  -29.3845 H   0  0  0  0  0  0  0  0  0  0  0  0
  -55.2579   -9.7084  -28.1633 H   0  0  0  0  0  0  0  0  0  0  0  0
  -55.7421   -9.3815  -24.6089 H   0  0  0  0  0  0  0  0  0  0  0  0
  -49.5420  -12.6960  -23.0440 H   0  0  0  0  0  0  0  0  0  0  0  0
  -48.1207  -12.3824  -21.2362 H   0  0  0  0  0  0  0  0  0  0  0  0
  -47.9786   -9.9155  -21.9115 H   0  0  0  0  0  0  0  0  0  0  0  0
  -49.3474   -9.6499  -20.7340 H   0  0  0  0  0  0  0  0  0  0  0  0
  -48.9877   -9.5645  -18.3953 H   0  0  0  0  0  0  0  0  0  0  0  0
  -47.3702   -9.4489  -16.5023 H   0  0  0  0  0  0  0  0  0  0  0  0
  -44.9613   -9.9753  -16.8816 H   0  0  0  0  0  0  0  0  0  0  0  0
  -44.1693  -10.6114  -19.1585 H   0  0  0  0  0  0  0  0  0  0  0  0
  -45.7809  -10.7313  -21.0527 H   0  0  0  0  0  0  0  0  0  0  0  0
  -51.0680  -10.5130  -20.6200 H   0  0  0  0  0  0  0  0  0  0  0  0
  -53.1641  -12.7226  -20.3744 H   0  0  0  0  0  0  0  0  0  0  0  0
  -55.1268  -12.9758  -18.8637 H   0  0  0  0  0  0  0  0  0  0  0  0
  -57.2850  -13.0270  -14.3220 H   0  0  0  0  0  0  0  0  0  0  0  0
  -53.2596  -10.3233  -16.0117 H   0  0  0  0  0  0  0  0  0  0  0  0
  -51.2965  -10.0730  -17.5254 H   0  0  0  0  0  0  0  0  0  0  0  0
  1  2  2  0
  2  3  1  0
  3  4  2  0
  4  5  1  0
  5  6  2  0
  6  7  1  0
  7  8  1  0
  7  9  2  0
  9 10  1  0
 10 11  2  0
 11 12  1  0
 12 13  1  0
 13 14  2  0
 14 15  1  0
 15 16  2  0
  2 17  1  0
 17 18  1  0
 18 19  1  0
 19 20  1  0
 20 21  2  0
 21 22  1  0
 22 23  2  0
 23 24  1  0
 24 25  2  0
 18 26  1  0
 26 27  2  0
 26 28  1  0
 28 29  1  0
 29 30  2  0
 30 31  1  0
 31 32  2  0
 32 33  1  0
 33 34  1  0
 34 35  2  0
 35 36  1  0
 36 37  1  0
 32 38  1  0
 38 39  2  0
 11  5  1  0
 16 12  1  0
 25 20  1  0
 39 29  1  0
 37 33  2  0
  3 40  1  0
  4 41  1  0
  6 42  1  0
  9 43  1  0
 10 44  1  0
 13 45  1  0
 17 46  1  0
 18 47  1  6
 19 48  1  0
 19 49  1  0
 21 50  1  0
 22 51  1  0
 23 52  1  0
 24 53  1  0
 25 54  1  0
 28 55  1  0
 30 56  1  0
 31 57  1  0
 36 58  1  0
 38 59  1  0
 39 60  1  0
M  END
>  <meeko>  (9) 
{"is_sidechain": [false], "free_energy": -8.417, "intermolecular_energy": -13.914, "internal_energy": -0.734}

$$$$
