3nw9_ligand
     RDKit          3D

 62 66  0  0  0  0  0  0  0  0999 V2000
   -8.4550   22.2480    9.6280 C   0  0  0  0  0  0  0  0  0  0  0  0
   -7.2670   22.5540   10.4800 C   0  0  0  0  0  0  0  0  0  0  0  0
   -6.6890   23.7880   10.3690 N   0  0  0  0  0  0  0  0  0  0  0  0
   -5.6070   24.0690   11.1270 C   0  0  0  0  0  0  0  0  0  0  0  0
   -4.9890   23.2700   12.0200 N   0  0  0  0  0  0  0  0  0  0  0  0
   -5.5870   22.0700   12.0820 C   0  0  0  0  0  0  0  0  0  0  0  0
   -6.6960   21.6390   11.3720 C   0  0  0  0  0  0  0  0  0  0  0  0
   -7.0170   20.3440   11.7100 N   0  0  0  0  0  0  0  0  0  0  0  0
   -6.1090   19.9900   12.5980 C   0  0  0  0  0  0  0  0  0  0  0  0
   -5.2370   21.0080   12.8740 N   0  0  0  0  0  0  0  0  0  0  0  0
   -4.1180   20.9970   13.8000 C   0  0  2  0  0  0  0  0  0  0  0  0
   -3.1480   20.0160   13.3540 O   0  0  0  0  0  0  0  0  0  0  0  0
   -3.0030   19.0280   14.3880 C   0  0  2  0  0  0  0  0  0  0  0  0
   -2.8510   17.6910   13.7260 C   0  0  0  0  0  0  0  0  0  0  0  0
   -3.5940   16.6110   14.0270 C   0  0  0  0  0  0  0  0  0  0  0  0
   -3.4500   15.2740   13.3750 C   0  0  0  0  0  0  0  0  0  0  0  0
   -2.2780   14.6440   13.9330 N   0  0  0  0  0  0  0  0  0  0  0  0
   -2.2790   13.3190   14.3090 C   0  0  0  0  0  0  0  0  0  0  0  0
   -3.2420   12.5710   14.1620 O   0  0  0  0  0  0  0  0  0  0  0  0
   -1.0580   12.7910   14.9780 C   0  0  0  0  0  0  0  0  0  0  0  0
   -1.1290   12.0130   16.1470 C   0  0  0  0  0  0  0  0  0  0  0  0
    0.0340   11.5020   16.7600 C   0  0  0  0  0  0  0  0  0  0  0  0
   -0.0550   10.6820   17.9800 C   0  0  0  0  0  0  0  0  0  0  0  0
    0.6500    9.4690   18.0900 C   0  0  0  0  0  0  0  0  0  0  0  0
    0.5680    8.6940   19.2490 C   0  0  0  0  0  0  0  0  0  0  0  0
   -0.2200    9.1260   20.3080 C   0  0  0  0  0  0  0  0  0  0  0  0
   -0.2970    8.3830   21.4200 F   0  0  0  0  0  0  0  0  0  0  0  0
   -0.9280   10.3180   20.2290 C   0  0  0  0  0  0  0  0  0  0  0  0
   -0.8460   11.0920   19.0690 C   0  0  0  0  0  0  0  0  0  0  0  0
    1.2790   11.7940   16.1800 C   0  0  0  0  0  0  0  0  0  0  0  0
    1.3490   12.5820   15.0400 C   0  0  0  0  0  0  0  0  0  0  0  0
    2.5740   12.8660   14.5050 O   0  0  0  0  0  0  0  0  0  0  0  0
    0.1980   13.0910   14.4410 C   0  0  0  0  0  0  0  0  0  0  0  0
    0.3890   13.8760   13.3300 O   0  0  0  0  0  0  0  0  0  0  0  0
   -4.2550   19.1340   15.2650 C   0  0  1  0  0  0  0  0  0  0  0  0
   -4.0730   18.6560   16.5930 O   0  0  0  0  0  0  0  0  0  0  0  0
   -4.5150   20.6290   15.2370 C   0  0  1  0  0  0  0  0  0  0  0  0
   -3.6470   21.2700   16.1900 O   0  0  0  0  0  0  0  0  0  0  0  0
   -9.3195   22.0253   10.2707 H   0  0  0  0  0  0  0  0  0  0  0  0
   -8.6842   23.1164    8.9929 H   0  0  0  0  0  0  0  0  0  0  0  0
   -8.2362   21.3769    8.9929 H   0  0  0  0  0  0  0  0  0  0  0  0
   -5.1770   25.0735   11.0001 H   0  0  0  0  0  0  0  0  0  0  0  0
   -6.0583   18.9940   13.0622 H   0  0  0  0  0  0  0  0  0  0  0  0
   -3.7129   22.0197   13.8105 H   0  0  0  0  0  0  0  0  0  0  0  0
   -2.1185   19.1743   15.0254 H   0  0  0  0  0  0  0  0  0  0  0  0
   -2.0834   17.5870   12.9450 H   0  0  0  0  0  0  0  0  0  0  0  0
   -4.3613   16.7194   14.8077 H   0  0  0  0  0  0  0  0  0  0  0  0
   -4.3394   14.6594   13.5778 H   0  0  0  0  0  0  0  0  0  0  0  0
   -3.3497   15.3830   12.2850 H   0  0  0  0  0  0  0  0  0  0  0  0
   -1.5660   15.2650   14.2910 H   0  0  0  0  0  0  0  0  0  0  0  0
   -2.1116   11.7985   16.5926 H   0  0  0  0  0  0  0  0  0  0  0  0
    1.2743    9.1265   17.2516 H   0  0  0  0  0  0  0  0  0  0  0  0
    1.1239    7.7476   19.3226 H   0  0  0  0  0  0  0  0  0  0  0  0
   -1.5490   10.6504   21.0739 H   0  0  0  0  0  0  0  0  0  0  0  0
   -1.4079   12.0356   19.0060 H   0  0  0  0  0  0  0  0  0  0  0  0
    2.2008   11.3972   16.6303 H   0  0  0  0  0  0  0  0  0  0  0  0
    2.5130   13.8050   14.2320 H   0  0  0  0  0  0  0  0  0  0  0  0
   -0.0620   14.7360   13.4990 H   0  0  0  0  0  0  0  0  0  0  0  0
   -5.0847   18.5120   14.8978 H   0  0  0  0  0  0  0  0  0  0  0  0
   -4.2710   19.4020   17.1910 H   0  0  0  0  0  0  0  0  0  0  0  0
   -5.5427   20.9277   15.4911 H   0  0  0  0  0  0  0  0  0  0  0  0
   -3.9500   22.1960   16.2550 H   0  0  0  0  0  0  0  0  0  0  0  0
  1  2  1  0
  2  3  2  0
  3  4  1  0
  4  5  2  0
  5  6  1  0
  6  7  2  0
  7  8  1  0
  8  9  2  0
  9 10  1  0
 10 11  1  0
 11 12  1  0
 12 13  1  0
 13 14  1  0
 14 15  2  0
 15 16  1  0
 16 17  1  0
 17 18  1  0
 18 19  2  0
 18 20  1  0
 20 21  2  0
 21 22  1  0
 22 23  1  0
 23 24  2  0
 24 25  1  0
 25 26  2  0
 26 27  1  0
 26 28  1  0
 28 29  2  0
 22 30  2  0
 30 31  1  0
 31 32  1  0
 31 33  2  0
 33 34  1  0
 13 35  1  0
 35 36  1  0
 35 37  1  0
 37 38  1  0
  7  2  1  0
 37 11  1  0
 10  6  1  0
 33 20  1  0
 29 23  1  0
  1 39  1  0
  1 40  1  0
  1 41  1  0
  4 42  1  0
  9 43  1  0
 11 44  1  1
 13 45  1  1
 14 46  1  0
 15 47  1  0
 16 48  1  0
 16 49  1  0
 17 50  1  0
 21 51  1  0
 24 52  1  0
 25 53  1  0
 28 54  1  0
 29 55  1  0
 30 56  1  0
 32 57  1  0
 34 58  1  0
 35 59  1  6
 36 60  1  0
 37 61  1  1
 38 62  1  0
M  END
>  <meeko>  (1) 
{"is_sidechain": [false], "free_energy": -10.176, "intermolecular_energy": -14.935, "internal_energy": -1.159}

$$$$
3nw9_ligand
     RDKit          3D

 62 66  0  0  0  0  0  0  0  0999 V2000
   -8.1710   21.6460    8.8790 C   0  0  0  0  0  0  0  0  0  0  0  0
   -7.3460   22.2110    9.9880 C   0  0  0  0  0  0  0  0  0  0  0  0
   -7.0690   23.5510    9.9740 N   0  0  0  0  0  0  0  0  0  0  0  0
   -6.3140   24.0670   10.9670 C   0  0  0  0  0  0  0  0  0  0  0  0
   -5.7720   23.4230   12.0200 N   0  0  0  0  0  0  0  0  0  0  0  0
   -6.0630   22.1130   11.9810 C   0  0  0  0  0  0  0  0  0  0  0  0
   -6.8210   21.4430   11.0330 C   0  0  0  0  0  0  0  0  0  0  0  0
   -6.9010   20.1030   11.3350 N   0  0  0  0  0  0  0  0  0  0  0  0
   -6.1910   19.9590   12.4360 C   0  0  0  0  0  0  0  0  0  0  0  0
   -5.6850   21.1510   12.8790 N   0  0  0  0  0  0  0  0  0  0  0  0
   -4.8690   21.3910   14.0570 C   0  0  2  0  0  0  0  0  0  0  0  0
   -3.5400   20.8620   13.8230 O   0  0  0  0  0  0  0  0  0  0  0  0
   -3.2810   19.8500   14.8100 C   0  0  2  0  0  0  0  0  0  0  0  0
   -2.5190   18.7430   14.1430 C   0  0  0  0  0  0  0  0  0  0  0  0
   -2.9010   17.4540   14.1490 C   0  0  0  0  0  0  0  0  0  0  0  0
   -2.1480   16.3440   13.4890 C   0  0  0  0  0  0  0  0  0  0  0  0
   -2.9290   15.1400   13.6440 N   0  0  0  0  0  0  0  0  0  0  0  0
   -2.3770   13.9790   14.1390 C   0  0  0  0  0  0  0  0  0  0  0  0
   -1.2130   13.8890   14.5220 O   0  0  0  0  0  0  0  0  0  0  0  0
   -3.2320   12.7620   14.1570 C   0  0  0  0  0  0  0  0  0  0  0  0
   -3.9980   12.3750   13.0430 C   0  0  0  0  0  0  0  0  0  0  0  0
   -4.7900   11.2090   13.0650 C   0  0  0  0  0  0  0  0  0  0  0  0
   -5.5820   10.8120   11.8900 C   0  0  0  0  0  0  0  0  0  0  0  0
   -5.2640    9.6500   11.1610 C   0  0  0  0  0  0  0  0  0  0  0  0
   -6.0180    9.2720   10.0480 C   0  0  0  0  0  0  0  0  0  0  0  0
   -7.0970   10.0530    9.6540 C   0  0  0  0  0  0  0  0  0  0  0  0
   -7.8210    9.6900    8.5870 F   0  0  0  0  0  0  0  0  0  0  0  0
   -7.4350   11.2060   10.3520 C   0  0  0  0  0  0  0  0  0  0  0  0
   -6.6790   11.5830   11.4640 C   0  0  0  0  0  0  0  0  0  0  0  0
   -4.8060   10.4340   14.2370 C   0  0  0  0  0  0  0  0  0  0  0  0
   -4.0680   10.8290   15.3440 C   0  0  0  0  0  0  0  0  0  0  0  0
   -4.1140   10.0670   16.4770 O   0  0  0  0  0  0  0  0  0  0  0  0
   -3.2930   11.9860   15.3200 C   0  0  0  0  0  0  0  0  0  0  0  0
   -2.6210   12.2910   16.4800 O   0  0  0  0  0  0  0  0  0  0  0  0
   -4.6470   19.4100   15.3460 C   0  0  1  0  0  0  0  0  0  0  0  0
   -4.6030   18.8460   16.6520 O   0  0  0  0  0  0  0  0  0  0  0  0
   -5.4130   20.7200   15.3260 C   0  0  1  0  0  0  0  0  0  0  0  0
   -5.0640   21.4810   16.4980 O   0  0  0  0  0  0  0  0  0  0  0  0
   -9.0091   21.0720    9.3012 H   0  0  0  0  0  0  0  0  0  0  0  0
   -8.5633   22.4659    8.2594 H   0  0  0  0  0  0  0  0  0  0  0  0
   -7.5483   20.9838    8.2594 H   0  0  0  0  0  0  0  0  0  0  0  0
   -6.1164   25.1476   10.9098 H   0  0  0  0  0  0  0  0  0  0  0  0
   -6.0248   18.9951   12.9392 H   0  0  0  0  0  0  0  0  0  0  0  0
   -4.8701   22.4788   14.2207 H   0  0  0  0  0  0  0  0  0  0  0  0
   -2.6702   20.1975   15.6563 H   0  0  0  0  0  0  0  0  0  0  0  0
   -1.5891   19.0024   13.6158 H   0  0  0  0  0  0  0  0  0  0  0  0
   -3.8321   17.1984   14.6760 H   0  0  0  0  0  0  0  0  0  0  0  0
   -2.0092   16.5671   12.4208 H   0  0  0  0  0  0  0  0  0  0  0  0
   -1.1545   16.2237   13.9456 H   0  0  0  0  0  0  0  0  0  0  0  0
   -3.7950   15.1000   13.1270 H   0  0  0  0  0  0  0  0  0  0  0  0
   -3.9788   12.9955   12.1349 H   0  0  0  0  0  0  0  0  0  0  0  0
   -4.4096    9.0313   11.4726 H   0  0  0  0  0  0  0  0  0  0  0  0
   -5.7592    8.3619    9.4871 H   0  0  0  0  0  0  0  0  0  0  0  0
   -8.2915   11.8171   10.0311 H   0  0  0  0  0  0  0  0  0  0  0  0
   -6.9453   12.4969   12.0153 H   0  0  0  0  0  0  0  0  0  0  0  0
   -5.4048    9.5121   14.2772 H   0  0  0  0  0  0  0  0  0  0  0  0
   -4.9940   10.2510   16.8640 H   0  0  0  0  0  0  0  0  0  0  0  0
   -2.0250   11.5320   16.6800 H   0  0  0  0  0  0  0  0  0  0  0  0
   -5.0954   18.6008   14.7509 H   0  0  0  0  0  0  0  0  0  0  0  0
   -3.6640   18.8310   16.9220 H   0  0  0  0  0  0  0  0  0  0  0  0
   -6.5083   20.6183   15.3258 H   0  0  0  0  0  0  0  0  0  0  0  0
   -4.0910   21.4450   16.5680 H   0  0  0  0  0  0  0  0  0  0  0  0
  1  2  1  0
  2  3  2  0
  3  4  1  0
  4  5  2  0
  5  6  1  0
  6  7  2  0
  7  8  1  0
  8  9  2  0
  9 10  1  0
 10 11  1  0
 11 12  1  0
 12 13  1  0
 13 14  1  0
 14 15  2  0
 15 16  1  0
 16 17  1  0
 17 18  1  0
 18 19  2  0
 18 20  1  0
 20 21  2  0
 21 22  1  0
 22 23  1  0
 23 24  2  0
 24 25  1  0
 25 26  2  0
 26 27  1  0
 26 28  1  0
 28 29  2  0
 22 30  2  0
 30 31  1  0
 31 32  1  0
 31 33  2  0
 33 34  1  0
 13 35  1  0
 35 36  1  0
 35 37  1  0
 37 38  1  0
  7  2  1  0
 37 11  1  0
 10  6  1  0
 33 20  1  0
 29 23  1  0
  1 39  1  0
  1 40  1  0
  1 41  1  0
  4 42  1  0
  9 43  1  0
 11 44  1  1
 13 45  1  1
 14 46  1  0
 15 47  1  0
 16 48  1  0
 16 49  1  0
 17 50  1  0
 21 51  1  0
 24 52  1  0
 25 53  1  0
 28 54  1  0
 29 55  1  0
 30 56  1  0
 32 57  1  0
 34 58  1  0
 35 59  1  6
 36 60  1  0
 37 61  1  6
 38 62  1  0
M  END
>  <meeko>  (2) 
{"is_sidechain": [false], "free_energy": -10.114, "intermolecular_energy": -14.849, "internal_energy": -1.154}

$$$$
3nw9_ligand
     RDKit          3D

 62 66  0  0  0  0  0  0  0  0999 V2000
   -8.4870   22.2170    9.3280 C   0  0  0  0  0  0  0  0  0  0  0  0
   -7.3700   22.5430   10.2640 C   0  0  0  0  0  0  0  0  0  0  0  0
   -6.8480   23.8070   10.2360 N   0  0  0  0  0  0  0  0  0  0  0  0
   -5.8300   24.1070   11.0710 C   0  0  0  0  0  0  0  0  0  0  0  0
   -5.2290   23.3030   11.9710 N   0  0  0  0  0  0  0  0  0  0  0  0
   -5.7690   22.0740   11.9500 C   0  0  0  0  0  0  0  0  0  0  0  0
   -6.8110   21.6200   11.1550 C   0  0  0  0  0  0  0  0  0  0  0  0
   -7.0870   20.3000   11.4250 N   0  0  0  0  0  0  0  0  0  0  0  0
   -6.2190   19.9530   12.3540 C   0  0  0  0  0  0  0  0  0  0  0  0
   -5.4170   20.9990   12.7220 N   0  0  0  0  0  0  0  0  0  0  0  0
   -4.3580   21.0030   13.7170 C   0  0  2  0  0  0  0  0  0  0  0  0
   -3.3490   20.0360   13.3320 O   0  0  0  0  0  0  0  0  0  0  0  0
   -3.2550   19.0500   14.3740 C   0  0  2  0  0  0  0  0  0  0  0  0
   -3.0440   17.7140   13.7240 C   0  0  0  0  0  0  0  0  0  0  0  0
   -3.0650   16.5430   14.3830 C   0  0  0  0  0  0  0  0  0  0  0  0
   -2.8540   15.2070   13.7450 C   0  0  0  0  0  0  0  0  0  0  0  0
   -4.1550   14.6690   13.4300 N   0  0  0  0  0  0  0  0  0  0  0  0
   -4.3990   13.3130   13.4440 C   0  0  0  0  0  0  0  0  0  0  0  0
   -3.5590   12.4740   13.7620 O   0  0  0  0  0  0  0  0  0  0  0  0
   -5.7400   12.8490   12.9960 C   0  0  0  0  0  0  0  0  0  0  0  0
   -6.9080   13.5850   13.2640 C   0  0  0  0  0  0  0  0  0  0  0  0
   -8.1720   13.1440   12.8170 C   0  0  0  0  0  0  0  0  0  0  0  0
   -9.3860   13.9270   13.0980 C   0  0  0  0  0  0  0  0  0  0  0  0
   -9.7010   14.3300   14.4100 C   0  0  0  0  0  0  0  0  0  0  0  0
  -10.8510   15.0760   14.6740 C   0  0  0  0  0  0  0  0  0  0  0  0
  -11.6960   15.4270   13.6300 C   0  0  0  0  0  0  0  0  0  0  0  0
  -12.7990   16.1430   13.8830 F   0  0  0  0  0  0  0  0  0  0  0  0
  -11.4130   15.0430   12.3250 C   0  0  0  0  0  0  0  0  0  0  0  0
  -10.2630   14.2960   12.0620 C   0  0  0  0  0  0  0  0  0  0  0  0
   -8.2440   11.9400   12.0980 C   0  0  0  0  0  0  0  0  0  0  0  0
   -7.0930   11.2030   11.8550 C   0  0  0  0  0  0  0  0  0  0  0  0
   -7.1920   10.0260   11.1680 O   0  0  0  0  0  0  0  0  0  0  0  0
   -5.8480   11.6380   12.3040 C   0  0  0  0  0  0  0  0  0  0  0  0
   -4.7820   10.8170   12.0250 O   0  0  0  0  0  0  0  0  0  0  0  0
   -4.5600   19.1380   15.1710 C   0  0  1  0  0  0  0  0  0  0  0  0
   -4.4550   18.6630   16.5080 O   0  0  0  0  0  0  0  0  0  0  0  0
   -4.8390   20.6300   15.1260 C   0  0  1  0  0  0  0  0  0  0  0  0
   -4.0410   21.2830   16.1310 O   0  0  0  0  0  0  0  0  0  0  0  0
   -9.3853   21.9548    9.9063 H   0  0  0  0  0  0  0  0  0  0  0  0
   -8.7009   23.0902    8.6941 H   0  0  0  0  0  0  0  0  0  0  0  0
   -8.1976   21.3658    8.6941 H   0  0  0  0  0  0  0  0  0  0  0  0
   -5.4431   25.1349   11.0092 H   0  0  0  0  0  0  0  0  0  0  0  0
   -6.1476   18.9425   12.7827 H   0  0  0  0  0  0  0  0  0  0  0  0
   -3.9682   22.0310   13.7534 H   0  0  0  0  0  0  0  0  0  0  0  0
   -2.4137   19.2092   15.0646 H   0  0  0  0  0  0  0  0  0  0  0  0
   -2.8606   17.6918   12.6396 H   0  0  0  0  0  0  0  0  0  0  0  0
   -3.2503   16.5690   15.4670 H   0  0  0  0  0  0  0  0  0  0  0  0
   -2.2607   15.3190   12.8255 H   0  0  0  0  0  0  0  0  0  0  0  0
   -2.3094   14.5341   14.4237 H   0  0  0  0  0  0  0  0  0  0  0  0
   -4.7850   15.2840   12.9370 H   0  0  0  0  0  0  0  0  0  0  0  0
   -6.8350   14.5233   13.8335 H   0  0  0  0  0  0  0  0  0  0  0  0
   -9.0318   14.0532   15.2380 H   0  0  0  0  0  0  0  0  0  0  0  0
  -11.0863   15.3840   15.7035 H   0  0  0  0  0  0  0  0  0  0  0  0
  -12.0899   15.3254   11.5052 H   0  0  0  0  0  0  0  0  0  0  0  0
  -10.0395   13.9914   11.0289 H   0  0  0  0  0  0  0  0  0  0  0  0
   -9.2147   11.5800   11.7264 H   0  0  0  0  0  0  0  0  0  0  0  0
   -6.4500    9.4810   11.5000 H   0  0  0  0  0  0  0  0  0  0  0  0
   -5.0070    9.9200   12.3650 H   0  0  0  0  0  0  0  0  0  0  0  0
   -5.3558   18.5040   14.7530 H   0  0  0  0  0  0  0  0  0  0  0  0
   -3.6680   19.0890   16.8990 H   0  0  0  0  0  0  0  0  0  0  0  0
   -5.8846   20.9144   15.3154 H   0  0  0  0  0  0  0  0  0  0  0  0
   -3.7570   20.5840   16.7510 H   0  0  0  0  0  0  0  0  0  0  0  0
  1  2  1  0
  2  3  2  0
  3  4  1  0
  4  5  2  0
  5  6  1  0
  6  7  2  0
  7  8  1  0
  8  9  2  0
  9 10  1  0
 10 11  1  0
 11 12  1  0
 12 13  1  0
 13 14  1  0
 14 15  2  0
 15 16  1  0
 16 17  1  0
 17 18  1  0
 18 19  2  0
 18 20  1  0
 20 21  2  0
 21 22  1  0
 22 23  1  0
 23 24  2  0
 24 25  1  0
 25 26  2  0
 26 27  1  0
 26 28  1  0
 28 29  2  0
 22 30  2  0
 30 31  1  0
 31 32  1  0
 31 33  2  0
 33 34  1  0
 13 35  1  0
 35 36  1  0
 35 37  1  0
 37 38  1  0
  7  2  1  0
 37 11  1  0
 10  6  1  0
 33 20  1  0
 29 23  1  0
  1 39  1  0
  1 40  1  0
  1 41  1  0
  4 42  1  0
  9 43  1  0
 11 44  1  1
 13 45  1  1
 14 46  1  0
 15 47  1  0
 16 48  1  0
 16 49  1  0
 17 50  1  0
 21 51  1  0
 24 52  1  0
 25 53  1  0
 28 54  1  0
 29 55  1  0
 30 56  1  0
 32 57  1  0
 34 58  1  0
 35 59  1  6
 36 60  1  0
 37 61  1  6
 38 62  1  0
M  END
>  <meeko>  (3) 
{"is_sidechain": [false], "free_energy": -9.699, "intermolecular_energy": -14.137, "internal_energy": -1.257}

$$$$
3nw9_ligand
     RDKit          3D

 62 66  0  0  0  0  0  0  0  0999 V2000
   -8.3060   21.9200    9.2230 C   0  0  0  0  0  0  0  0  0  0  0  0
   -7.3000   22.3720   10.2310 C   0  0  0  0  0  0  0  0  0  0  0  0
   -6.9040   23.6800   10.2100 N   0  0  0  0  0  0  0  0  0  0  0  0
   -5.9860   24.0940   11.1110 C   0  0  0  0  0  0  0  0  0  0  0  0
   -5.3800   23.3700   12.0730 N   0  0  0  0  0  0  0  0  0  0  0  0
   -5.7950   22.0930   12.0430 C   0  0  0  0  0  0  0  0  0  0  0  0
   -6.7240   21.5250   11.1850 C   0  0  0  0  0  0  0  0  0  0  0  0
   -6.8900   20.1880   11.4660 N   0  0  0  0  0  0  0  0  0  0  0  0
   -6.0660   19.9460   12.4650 C   0  0  0  0  0  0  0  0  0  0  0  0
   -5.4000   21.0720   12.8660 N   0  0  0  0  0  0  0  0  0  0  0  0
   -4.4260   21.1990   13.9360 C   0  0  2  0  0  0  0  0  0  0  0  0
   -3.2550   20.4110   13.6010 O   0  0  0  0  0  0  0  0  0  0  0  0
   -3.0830   19.4110   14.6190 C   0  0  2  0  0  0  0  0  0  0  0  0
   -2.6240   18.1490   13.9510 C   0  0  0  0  0  0  0  0  0  0  0  0
   -3.2480   16.9640   14.0680 C   0  0  0  0  0  0  0  0  0  0  0  0
   -2.7980   15.7000   13.4070 C   0  0  0  0  0  0  0  0  0  0  0  0
   -2.6930   14.6900   14.4320 N   0  0  0  0  0  0  0  0  0  0  0  0
   -3.5030   13.5750   14.4340 C   0  0  0  0  0  0  0  0  0  0  0  0
   -4.3300   13.3340   13.5580 O   0  0  0  0  0  0  0  0  0  0  0  0
   -3.3960   12.6480   15.5930 C   0  0  0  0  0  0  0  0  0  0  0  0
   -2.2050   11.9580   15.8850 C   0  0  0  0  0  0  0  0  0  0  0  0
   -2.1110   11.0960   16.9970 C   0  0  0  0  0  0  0  0  0  0  0  0
   -0.8570   10.3850   17.2960 C   0  0  0  0  0  0  0  0  0  0  0  0
   -0.5910    9.8970   18.5890 C   0  0  0  0  0  0  0  0  0  0  0  0
    0.5970    9.2190   18.8700 C   0  0  0  0  0  0  0  0  0  0  0  0
    1.5300    9.0240   17.8600 C   0  0  0  0  0  0  0  0  0  0  0  0
    2.6690    8.3730   18.1300 F   0  0  0  0  0  0  0  0  0  0  0  0
    1.2970    9.4940   16.5740 C   0  0  0  0  0  0  0  0  0  0  0  0
    0.1090   10.1730   16.2950 C   0  0  0  0  0  0  0  0  0  0  0  0
   -3.2410   10.9320   17.8140 C   0  0  0  0  0  0  0  0  0  0  0  0
   -4.4230   11.5960   17.5110 C   0  0  0  0  0  0  0  0  0  0  0  0
   -5.5130   11.4060   18.3120 O   0  0  0  0  0  0  0  0  0  0  0  0
   -4.5140   12.4400   16.4070 C   0  0  0  0  0  0  0  0  0  0  0  0
   -5.7380   13.0270   16.1920 O   0  0  0  0  0  0  0  0  0  0  0  0
   -4.4380   19.2700   15.3200 C   0  0  1  0  0  0  0  0  0  0  0  0
   -4.3540   18.7650   16.6470 O   0  0  0  0  0  0  0  0  0  0  0  0
   -4.9390   20.7030   15.2950 C   0  0  1  0  0  0  0  0  0  0  0  0
   -4.3230   21.4300   16.3730 O   0  0  0  0  0  0  0  0  0  0  0  0
   -9.1911   21.5223    9.7412 H   0  0  0  0  0  0  0  0  0  0  0  0
   -8.6019   22.7717    8.5929 H   0  0  0  0  0  0  0  0  0  0  0  0
   -7.8657   21.1332    8.5929 H   0  0  0  0  0  0  0  0  0  0  0  0
   -5.6973   25.1538   11.0521 H   0  0  0  0  0  0  0  0  0  0  0  0
   -5.9294   18.9552   12.9229 H   0  0  0  0  0  0  0  0  0  0  0  0
   -4.2037   22.2723   14.0285 H   0  0  0  0  0  0  0  0  0  0  0  0
   -2.3258   19.6689   15.3741 H   0  0  0  0  0  0  0  0  0  0  0  0
   -1.7200   18.1960   13.3261 H   0  0  0  0  0  0  0  0  0  0  0  0
   -4.1521   16.9210   14.6931 H   0  0  0  0  0  0  0  0  0  0  0  0
   -3.5320   15.3907   12.6483 H   0  0  0  0  0  0  0  0  0  0  0  0
   -1.8295   15.8472   12.9066 H   0  0  0  0  0  0  0  0  0  0  0  0
   -2.2150   14.9620   15.2790 H   0  0  0  0  0  0  0  0  0  0  0  0
   -1.3297   12.0937   15.2328 H   0  0  0  0  0  0  0  0  0  0  0  0
   -1.3293   10.0519   19.3895 H   0  0  0  0  0  0  0  0  0  0  0  0
    0.7925    8.8419   19.8847 H   0  0  0  0  0  0  0  0  0  0  0  0
    2.0425    9.3327   15.7814 H   0  0  0  0  0  0  0  0  0  0  0  0
   -0.0744   10.5478   15.2772 H   0  0  0  0  0  0  0  0  0  0  0  0
   -3.1903   10.2764   18.6958 H   0  0  0  0  0  0  0  0  0  0  0  0
   -6.0510   10.7340   17.8430 H   0  0  0  0  0  0  0  0  0  0  0  0
   -5.8590   13.0990   15.2160 H   0  0  0  0  0  0  0  0  0  0  0  0
   -5.0964   18.5393   14.8274 H   0  0  0  0  0  0  0  0  0  0  0  0
   -5.1580   18.2330   16.7990 H   0  0  0  0  0  0  0  0  0  0  0  0
   -6.0265   20.8179   15.4141 H   0  0  0  0  0  0  0  0  0  0  0  0
   -4.6400   21.0170   17.1990 H   0  0  0  0  0  0  0  0  0  0  0  0
  1  2  1  0
  2  3  2  0
  3  4  1  0
  4  5  2  0
  5  6  1  0
  6  7  2  0
  7  8  1  0
  8  9  2  0
  9 10  1  0
 10 11  1  0
 11 12  1  0
 12 13  1  0
 13 14  1  0
 14 15  2  0
 15 16  1  0
 16 17  1  0
 17 18  1  0
 18 19  2  0
 18 20  1  0
 20 21  2  0
 21 22  1  0
 22 23  1  0
 23 24  2  0
 24 25  1  0
 25 26  2  0
 26 27  1  0
 26 28  1  0
 28 29  2  0
 22 30  2  0
 30 31  1  0
 31 32  1  0
 31 33  2  0
 33 34  1  0
 13 35  1  0
 35 36  1  0
 35 37  1  0
 37 38  1  0
  7  2  1  0
 37 11  1  0
 10  6  1  0
 33 20  1  0
 29 23  1  0
  1 39  1  0
  1 40  1  0
  1 41  1  0
  4 42  1  0
  9 43  1  0
 11 44  1  1
 13 45  1  1
 14 46  1  0
 15 47  1  0
 16 48  1  0
 16 49  1  0
 17 50  1  0
 21 51  1  0
 24 52  1  0
 25 53  1  0
 28 54  1  0
 29 55  1  0
 30 56  1  0
 32 57  1  0
 34 58  1  0
 35 59  1  6
 36 60  1  0
 37 61  1  6
 38 62  1  0
M  END
>  <meeko>  (4) 
{"is_sidechain": [false], "free_energy": -9.281, "intermolecular_energy": -13.541, "internal_energy": -1.239}

$$$$
3nw9_ligand
     RDKit          3D

 62 66  0  0  0  0  0  0  0  0999 V2000
   -1.5610   10.7100   16.5170 C   0  0  0  0  0  0  0  0  0  0  0  0
   -1.5300   11.1280   17.9510 C   0  0  0  0  0  0  0  0  0  0  0  0
   -0.7970   10.3780   18.8290 N   0  0  0  0  0  0  0  0  0  0  0  0
   -0.7740   10.7410   20.1300 C   0  0  0  0  0  0  0  0  0  0  0  0
   -1.3950   11.7870   20.7120 N   0  0  0  0  0  0  0  0  0  0  0  0
   -2.1080   12.4810   19.8110 C   0  0  0  0  0  0  0  0  0  0  0  0
   -2.2280   12.2320   18.4520 C   0  0  0  0  0  0  0  0  0  0  0  0
   -3.0440   13.1670   17.8580 N   0  0  0  0  0  0  0  0  0  0  0  0
   -3.4250   13.9590   18.8390 C   0  0  0  0  0  0  0  0  0  0  0  0
   -2.8660   13.6000   20.0350 N   0  0  0  0  0  0  0  0  0  0  0  0
   -3.0410   14.2370   21.3290 C   0  0  2  0  0  0  0  0  0  0  0  0
   -4.3700   14.8150   21.3920 O   0  0  0  0  0  0  0  0  0  0  0  0
   -4.2320   16.2320   21.5870 C   0  0  2  0  0  0  0  0  0  0  0  0
   -5.2950   16.9120   20.7760 C   0  0  0  0  0  0  0  0  0  0  0  0
   -5.1130   17.3730   19.5270 C   0  0  0  0  0  0  0  0  0  0  0  0
   -6.1650   18.0530   18.7110 C   0  0  0  0  0  0  0  0  0  0  0  0
   -5.5180   18.6100   17.5480 N   0  0  0  0  0  0  0  0  0  0  0  0
   -5.8430   19.8600   17.0690 C   0  0  0  0  0  0  0  0  0  0  0  0
   -6.6590   20.6040   17.6080 O   0  0  0  0  0  0  0  0  0  0  0  0
   -5.2010   20.3010   15.8010 C   0  0  0  0  0  0  0  0  0  0  0  0
   -5.9560   20.6020   14.6530 C   0  0  0  0  0  0  0  0  0  0  0  0
   -5.3380   21.0370   13.4620 C   0  0  0  0  0  0  0  0  0  0  0  0
   -6.1390   21.3560   12.2690 C   0  0  0  0  0  0  0  0  0  0  0  0
   -6.1800   22.6650   11.7530 C   0  0  0  0  0  0  0  0  0  0  0  0
   -6.9380   22.9650   10.6190 C   0  0  0  0  0  0  0  0  0  0  0  0
   -7.6610   21.9600    9.9910 C   0  0  0  0  0  0  0  0  0  0  0  0
   -8.3880   22.2480    8.9030 F   0  0  0  0  0  0  0  0  0  0  0  0
   -7.6420   20.6590   10.4780 C   0  0  0  0  0  0  0  0  0  0  0  0
   -6.8840   20.3600   11.6120 C   0  0  0  0  0  0  0  0  0  0  0  0
   -3.9390   21.1590   13.4410 C   0  0  0  0  0  0  0  0  0  0  0  0
   -3.1940   20.8390   14.5670 C   0  0  0  0  0  0  0  0  0  0  0  0
   -1.8330   20.9500   14.5150 O   0  0  0  0  0  0  0  0  0  0  0  0
   -3.8080   20.4030   15.7390 C   0  0  0  0  0  0  0  0  0  0  0  0
   -2.9700   20.0930   16.7840 O   0  0  0  0  0  0  0  0  0  0  0  0
   -2.8090   16.5920   21.1470 C   0  0  1  0  0  0  0  0  0  0  0  0
   -2.3030   17.7820   21.7420 O   0  0  0  0  0  0  0  0  0  0  0  0
   -2.0360   15.3660   21.5980 C   0  0  1  0  0  0  0  0  0  0  0  0
   -1.7590   15.4830   23.0060 O   0  0  0  0  0  0  0  0  0  0  0  0
   -1.6422    9.6147   16.4560 H   0  0  0  0  0  0  0  0  0  0  0  0
   -2.4275   11.1702   16.0196 H   0  0  0  0  0  0  0  0  0  0  0  0
   -0.6361   11.0373   16.0196 H   0  0  0  0  0  0  0  0  0  0  0  0
   -0.1744   10.1045   20.7973 H   0  0  0  0  0  0  0  0  0  0  0  0
   -4.1117   14.8089   18.7117 H   0  0  0  0  0  0  0  0  0  0  0  0
   -2.8822   13.4543   22.0854 H   0  0  0  0  0  0  0  0  0  0  0  0
   -4.3662   16.5544   22.6301 H   0  0  0  0  0  0  0  0  0  0  0  0
   -6.2871   17.0416   21.2330 H   0  0  0  0  0  0  0  0  0  0  0  0
   -4.1199   17.2407   19.0729 H   0  0  0  0  0  0  0  0  0  0  0  0
   -6.9302   17.3254   18.4029 H   0  0  0  0  0  0  0  0  0  0  0  0
   -6.6589   18.8431   19.2957 H   0  0  0  0  0  0  0  0  0  0  0  0
   -5.0370   17.9550   16.9480 H   0  0  0  0  0  0  0  0  0  0  0  0
   -7.0504   20.4960   14.6847 H   0  0  0  0  0  0  0  0  0  0  0  0
   -5.6074   23.4622   12.2495 H   0  0  0  0  0  0  0  0  0  0  0  0
   -6.9620   23.9920   10.2256 H   0  0  0  0  0  0  0  0  0  0  0  0
   -8.2198   19.8703    9.9740 H   0  0  0  0  0  0  0  0  0  0  0  0
   -6.8693   19.3298   11.9974 H   0  0  0  0  0  0  0  0  0  0  0  0
   -3.4325   21.5092   12.5295 H   0  0  0  0  0  0  0  0  0  0  0  0
   -1.5020   20.0870   14.8390 H   0  0  0  0  0  0  0  0  0  0  0  0
   -3.2820   19.2390   17.1650 H   0  0  0  0  0  0  0  0  0  0  0  0
   -2.7405   16.8137   20.0717 H   0  0  0  0  0  0  0  0  0  0  0  0
   -1.5670   18.0900   21.1780 H   0  0  0  0  0  0  0  0  0  0  0  0
   -1.0697   15.2132   21.0951 H   0  0  0  0  0  0  0  0  0  0  0  0
   -2.5410   15.1250   23.4690 H   0  0  0  0  0  0  0  0  0  0  0  0
  1  2  1  0
  2  3  2  0
  3  4  1  0
  4  5  2  0
  5  6  1  0
  6  7  2  0
  7  8  1  0
  8  9  2  0
  9 10  1  0
 10 11  1  0
 11 12  1  0
 12 13  1  0
 13 14  1  0
 14 15  2  0
 15 16  1  0
 16 17  1  0
 17 18  1  0
 18 19  2  0
 18 20  1  0
 20 21  2  0
 21 22  1  0
 22 23  1  0
 23 24  2  0
 24 25  1  0
 25 26  2  0
 26 27  1  0
 26 28  1  0
 28 29  2  0
 22 30  2  0
 30 31  1  0
 31 32  1  0
 31 33  2  0
 33 34  1  0
 13 35  1  0
 35 36  1  0
 35 37  1  0
 37 38  1  0
  7  2  1  0
 37 11  1  0
 10  6  1  0
 33 20  1  0
 29 23  1  0
  1 39  1  0
  1 40  1  0
  1 41  1  0
  4 42  1  0
  9 43  1  0
 11 44  1  1
 13 45  1  1
 14 46  1  0
 15 47  1  0
 16 48  1  0
 16 49  1  0
 17 50  1  0
 21 51  1  0
 24 52  1  0
 25 53  1  0
 28 54  1  0
 29 55  1  0
 30 56  1  0
 32 57  1  0
 34 58  1  0
 35 59  1  6
 36 60  1  0
 37 61  1  6
 38 62  1  0
M  END
>  <meeko>  (5) 
{"is_sidechain": [false], "free_energy": -9.031, "intermolecular_energy": -12.94, "internal_energy": -1.474}

$$$$
3nw9_ligand
     RDKit          3D

 62 66  0  0  0  0  0  0  0  0999 V2000
    1.3160   13.7740   14.3730 C   0  0  0  0  0  0  0  0  0  0  0  0
   -0.1460   14.0790   14.3420 C   0  0  0  0  0  0  0  0  0  0  0  0
   -0.5540   15.2470   13.7590 N   0  0  0  0  0  0  0  0  0  0  0  0
   -1.8730   15.5350   13.7380 C   0  0  0  0  0  0  0  0  0  0  0  0
   -2.8920   14.8010   14.2290 N   0  0  0  0  0  0  0  0  0  0  0  0
   -2.4380   13.6740   14.7990 C   0  0  0  0  0  0  0  0  0  0  0  0
   -1.1230   13.2450   14.8970 C   0  0  0  0  0  0  0  0  0  0  0  0
   -1.0550   12.0340   15.5470 N   0  0  0  0  0  0  0  0  0  0  0  0
   -2.3030   11.7410   15.8530 C   0  0  0  0  0  0  0  0  0  0  0  0
   -3.1790   12.6910   15.3990 N   0  0  0  0  0  0  0  0  0  0  0  0
   -4.6250   12.7080   15.5360 C   0  0  2  0  0  0  0  0  0  0  0  0
   -5.0800   14.0840   15.5370 O   0  0  0  0  0  0  0  0  0  0  0  0
   -5.7410   14.3340   16.7890 C   0  0  2  0  0  0  0  0  0  0  0  0
   -5.3880   15.7260   17.2250 C   0  0  0  0  0  0  0  0  0  0  0  0
   -6.0270   16.3970   18.1980 C   0  0  0  0  0  0  0  0  0  0  0  0
   -5.6840   17.7840   18.6390 C   0  0  0  0  0  0  0  0  0  0  0  0
   -5.1110   18.4680   17.5050 N   0  0  0  0  0  0  0  0  0  0  0  0
   -5.7100   19.5790   16.9530 C   0  0  0  0  0  0  0  0  0  0  0  0
   -6.7340   20.0920   17.3990 O   0  0  0  0  0  0  0  0  0  0  0  0
   -5.1040   20.1480   15.7190 C   0  0  0  0  0  0  0  0  0  0  0  0
   -5.8780   20.4580   14.5860 C   0  0  0  0  0  0  0  0  0  0  0  0
   -5.2940   21.0140   13.4290 C   0  0  0  0  0  0  0  0  0  0  0  0
   -6.1160   21.3410   12.2520 C   0  0  0  0  0  0  0  0  0  0  0  0
   -6.8820   20.3520   11.6060 C   0  0  0  0  0  0  0  0  0  0  0  0
   -7.6650   20.6650   10.4930 C   0  0  0  0  0  0  0  0  0  0  0  0
   -7.6890   21.9680   10.0160 C   0  0  0  0  0  0  0  0  0  0  0  0
   -8.4400   22.2680    8.9480 F   0  0  0  0  0  0  0  0  0  0  0  0
   -6.9430   22.9660   10.6310 C   0  0  0  0  0  0  0  0  0  0  0  0
   -6.1600   22.6520   11.7440 C   0  0  0  0  0  0  0  0  0  0  0  0
   -3.9100   21.2500   13.4250 C   0  0  0  0  0  0  0  0  0  0  0  0
   -3.1440   20.9210   14.5360 C   0  0  0  0  0  0  0  0  0  0  0  0
   -1.7960   21.1440   14.5000 O   0  0  0  0  0  0  0  0  0  0  0  0
   -3.7230   20.3650   15.6730 C   0  0  0  0  0  0  0  0  0  0  0  0
   -2.8660   20.0600   16.7030 O   0  0  0  0  0  0  0  0  0  0  0  0
   -5.2550   13.2520   17.7580 C   0  0  1  0  0  0  0  0  0  0  0  0
   -6.1520   12.9920   18.8320 O   0  0  0  0  0  0  0  0  0  0  0  0
   -5.1260   12.0560   16.8320 C   0  0  1  0  0  0  0  0  0  0  0  0
   -6.4280   11.4710   16.6430 O   0  0  0  0  0  0  0  0  0  0  0  0
    1.6538   13.7035   15.4175 H   0  0  0  0  0  0  0  0  0  0  0  0
    1.5020   12.8177   13.8622 H   0  0  0  0  0  0  0  0  0  0  0  0
    1.8688   14.5762   13.8622 H   0  0  0  0  0  0  0  0  0  0  0  0
   -2.1508   16.4866   13.2611 H   0  0  0  0  0  0  0  0  0  0  0  0
   -2.6053   10.8402   16.4073 H   0  0  0  0  0  0  0  0  0  0  0  0
   -5.0252   12.1300   14.6900 H   0  0  0  0  0  0  0  0  0  0  0  0
   -6.8383   14.2829   16.7323 H   0  0  0  0  0  0  0  0  0  0  0  0
   -4.5529   16.2290   16.7155 H   0  0  0  0  0  0  0  0  0  0  0  0
   -6.8610   15.8905   18.7058 H   0  0  0  0  0  0  0  0  0  0  0  0
   -6.5916   18.3072   18.9744 H   0  0  0  0  0  0  0  0  0  0  0  0
   -4.9731   17.7601   19.4781 H   0  0  0  0  0  0  0  0  0  0  0  0
   -4.4280   17.9520   16.9710 H   0  0  0  0  0  0  0  0  0  0  0  0
   -6.9604   20.2628   14.6028 H   0  0  0  0  0  0  0  0  0  0  0  0
   -6.8634   19.3188   11.9831 H   0  0  0  0  0  0  0  0  0  0  0  0
   -8.2593   19.8833    9.9972 H   0  0  0  0  0  0  0  0  0  0  0  0
   -6.9689   23.9954   10.2442 H   0  0  0  0  0  0  0  0  0  0  0  0
   -5.5688   23.4417   12.2307 H   0  0  0  0  0  0  0  0  0  0  0  0
   -3.4315   21.6961   12.5407 H   0  0  0  0  0  0  0  0  0  0  0  0
   -1.7040   22.0410   14.1180 H   0  0  0  0  0  0  0  0  0  0  0  0
   -2.1100   19.5590   16.3150 H   0  0  0  0  0  0  0  0  0  0  0  0
   -4.3299   13.5352   18.2814 H   0  0  0  0  0  0  0  0  0  0  0  0
   -6.1430   12.0260   18.9810 H   0  0  0  0  0  0  0  0  0  0  0  0
   -4.4668   11.2540   17.1957 H   0  0  0  0  0  0  0  0  0  0  0  0
   -6.8160   11.3750   17.5340 H   0  0  0  0  0  0  0  0  0  0  0  0
  1  2  1  0
  2  3  2  0
  3  4  1  0
  4  5  2  0
  5  6  1  0
  6  7  2  0
  7  8  1  0
  8  9  2  0
  9 10  1  0
 10 11  1  0
 11 12  1  0
 12 13  1  0
 13 14  1  0
 14 15  2  0
 15 16  1  0
 16 17  1  0
 17 18  1  0
 18 19  2  0
 18 20  1  0
 20 21  2  0
 21 22  1  0
 22 23  1  0
 23 24  2  0
 24 25  1  0
 25 26  2  0
 26 27  1  0
 26 28  1  0
 28 29  2  0
 22 30  2  0
 30 31  1  0
 31 32  1  0
 31 33  2  0
 33 34  1  0
 13 35  1  0
 35 36  1  0
 35 37  1  0
 37 38  1  0
  7  2  1  0
 37 11  1  0
 10  6  1  0
 33 20  1  0
 29 23  1  0
  1 39  1  0
  1 40  1  0
  1 41  1  0
  4 42  1  0
  9 43  1  0
 11 44  1  6
 13 45  1  6
 14 46  1  0
 15 47  1  0
 16 48  1  0
 16 49  1  0
 17 50  1  0
 21 51  1  0
 24 52  1  0
 25 53  1  0
 28 54  1  0
 29 55  1  0
 30 56  1  0
 32 57  1  0
 34 58  1  0
 35 59  1  1
 36 60  1  0
 37 61  1  1
 38 62  1  0
M  END
>  <meeko>  (6) 
{"is_sidechain": [false], "free_energy": -9.012, "intermolecular_energy": -13.111, "internal_energy": -1.274}

$$$$
3nw9_ligand
     RDKit          3D

 62 66  0  0  0  0  0  0  0  0999 V2000
  -11.9440   15.5480   12.6350 C   0  0  0  0  0  0  0  0  0  0  0  0
  -10.9970   15.0690   13.6870 C   0  0  0  0  0  0  0  0  0  0  0  0
  -11.2080   15.4650   14.9790 N   0  0  0  0  0  0  0  0  0  0  0  0
  -10.3500   15.0460   15.9340 C   0  0  0  0  0  0  0  0  0  0  0  0
   -9.2680   14.2550   15.7890 N   0  0  0  0  0  0  0  0  0  0  0  0
   -9.1000   13.9050   14.5040 C   0  0  0  0  0  0  0  0  0  0  0  0
   -9.8920   14.2540   13.4210 C   0  0  0  0  0  0  0  0  0  0  0  0
   -9.4010   13.6980   12.2620 N   0  0  0  0  0  0  0  0  0  0  0  0
   -8.3220   13.0380   12.6320 C   0  0  0  0  0  0  0  0  0  0  0  0
   -8.1120   13.1120   13.9820 N   0  0  0  0  0  0  0  0  0  0  0  0
   -7.0390   12.5070   14.7520 C   0  0  2  0  0  0  0  0  0  0  0  0
   -6.0680   13.5300   15.0870 O   0  0  0  0  0  0  0  0  0  0  0  0
   -4.8070   13.1550   14.5060 C   0  0  2  0  0  0  0  0  0  0  0  0
   -4.1430   14.4040   14.0070 C   0  0  0  0  0  0  0  0  0  0  0  0
   -2.8640   14.7310   14.2570 C   0  0  0  0  0  0  0  0  0  0  0  0
   -2.1930   15.9730   13.7660 C   0  0  0  0  0  0  0  0  0  0  0  0
   -3.1740   17.0310   13.7860 N   0  0  0  0  0  0  0  0  0  0  0  0
   -2.8640   18.2950   14.2370 C   0  0  0  0  0  0  0  0  0  0  0  0
   -1.7410   18.6290   14.6080 O   0  0  0  0  0  0  0  0  0  0  0  0
   -3.9700   19.2870   14.3250 C   0  0  0  0  0  0  0  0  0  0  0  0
   -4.6750   19.7160   13.1860 C   0  0  0  0  0  0  0  0  0  0  0  0
   -5.7350   20.6420   13.2840 C   0  0  0  0  0  0  0  0  0  0  0  0
   -6.4680   21.0780   12.0850 C   0  0  0  0  0  0  0  0  0  0  0  0
   -7.2280   20.1650   11.3280 C   0  0  0  0  0  0  0  0  0  0  0  0
   -7.9270   20.5810   10.1930 C   0  0  0  0  0  0  0  0  0  0  0  0
   -7.8730   21.9130    9.8040 C   0  0  0  0  0  0  0  0  0  0  0  0
   -8.5440   22.3110    8.7160 F   0  0  0  0  0  0  0  0  0  0  0  0
   -7.1310   22.8370   10.5290 C   0  0  0  0  0  0  0  0  0  0  0  0
   -6.4320   22.4200   11.6640 C   0  0  0  0  0  0  0  0  0  0  0  0
   -6.0730   21.1380   14.5530 C   0  0  0  0  0  0  0  0  0  0  0  0
   -5.3620   20.7310   15.6730 C   0  0  0  0  0  0  0  0  0  0  0  0
   -5.7000   21.2410   16.8950 O   0  0  0  0  0  0  0  0  0  0  0  0
   -4.3110   19.8220   15.5710 C   0  0  0  0  0  0  0  0  0  0  0  0
   -3.6640   19.5080   16.7420 O   0  0  0  0  0  0  0  0  0  0  0  0
   -5.1250   12.1500   13.3960 C   0  0  1  0  0  0  0  0  0  0  0  0
   -4.0460   11.2790   13.0760 O   0  0  0  0  0  0  0  0  0  0  0  0
   -6.2960   11.3960   13.9990 C   0  0  1  0  0  0  0  0  0  0  0  0
   -5.7890   10.4060   14.9150 O   0  0  0  0  0  0  0  0  0  0  0  0
  -12.8279   15.9951   13.1134 H   0  0  0  0  0  0  0  0  0  0  0  0
  -11.4452   16.3022   12.0086 H   0  0  0  0  0  0  0  0  0  0  0  0
  -12.2560   14.6993   12.0086 H   0  0  0  0  0  0  0  0  0  0  0  0
  -10.5599   15.3930   16.9565 H   0  0  0  0  0  0  0  0  0  0  0  0
   -7.6671   12.4918   11.9371 H   0  0  0  0  0  0  0  0  0  0  0  0
   -7.5067   12.0590   15.6411 H   0  0  0  0  0  0  0  0  0  0  0  0
   -4.1114   12.6815   15.2145 H   0  0  0  0  0  0  0  0  0  0  0  0
   -4.7416   15.0967   13.3972 H   0  0  0  0  0  0  0  0  0  0  0  0
   -2.2684   14.0352   14.8663 H   0  0  0  0  0  0  0  0  0  0  0  0
   -1.3497   16.2298   14.4240 H   0  0  0  0  0  0  0  0  0  0  0  0
   -1.8012   15.8262   12.7487 H   0  0  0  0  0  0  0  0  0  0  0  0
   -4.1400   16.7450   13.7270 H   0  0  0  0  0  0  0  0  0  0  0  0
   -4.3941   19.3214   12.1984 H   0  0  0  0  0  0  0  0  0  0  0  0
   -7.2715   19.1097   11.6352 H   0  0  0  0  0  0  0  0  0  0  0  0
   -8.5169   19.8580    9.6105 H   0  0  0  0  0  0  0  0  0  0  0  0
   -7.0943   23.8895   10.2114 H   0  0  0  0  0  0  0  0  0  0  0  0
   -5.8444   23.1520   12.2375 H   0  0  0  0  0  0  0  0  0  0  0  0
   -6.9037   21.8512   14.6598 H   0  0  0  0  0  0  0  0  0  0  0  0
   -5.3030   20.6220   17.5410 H   0  0  0  0  0  0  0  0  0  0  0  0
   -4.2440   19.8030   17.4840 H   0  0  0  0  0  0  0  0  0  0  0  0
   -5.3338   12.6360   12.4315 H   0  0  0  0  0  0  0  0  0  0  0  0
   -3.3080   11.5120   13.6720 H   0  0  0  0  0  0  0  0  0  0  0  0
   -6.9311   10.8654   13.2743 H   0  0  0  0  0  0  0  0  0  0  0  0
   -6.4530    9.6910   14.9400 H   0  0  0  0  0  0  0  0  0  0  0  0
  1  2  1  0
  2  3  2  0
  3  4  1  0
  4  5  2  0
  5  6  1  0
  6  7  2  0
  7  8  1  0
  8  9  2  0
  9 10  1  0
 10 11  1  0
 11 12  1  0
 12 13  1  0
 13 14  1  0
 14 15  2  0
 15 16  1  0
 16 17  1  0
 17 18  1  0
 18 19  2  0
 18 20  1  0
 20 21  2  0
 21 22  1  0
 22 23  1  0
 23 24  2  0
 24 25  1  0
 25 26  2  0
 26 27  1  0
 26 28  1  0
 28 29  2  0
 22 30  2  0
 30 31  1  0
 31 32  1  0
 31 33  2  0
 33 34  1  0
 13 35  1  0
 35 36  1  0
 35 37  1  0
 37 38  1  0
  7  2  1  0
 37 11  1  0
 10  6  1  0
 33 20  1  0
 29 23  1  0
  1 39  1  0
  1 40  1  0
  1 41  1  0
  4 42  1  0
  9 43  1  0
 11 44  1  1
 13 45  1  1
 14 46  1  0
 15 47  1  0
 16 48  1  0
 16 49  1  0
 17 50  1  0
 21 51  1  0
 24 52  1  0
 25 53  1  0
 28 54  1  0
 29 55  1  0
 30 56  1  0
 32 57  1  0
 34 58  1  0
 35 59  1  6
 36 60  1  0
 37 61  1  6
 38 62  1  0
M  END
>  <meeko>  (7) 
{"is_sidechain": [false], "free_energy": -8.947, "intermolecular_energy": -12.695, "internal_energy": -1.595}

$$$$
3nw9_ligand
     RDKit          3D

 62 66  0  0  0  0  0  0  0  0999 V2000
   -5.3260   17.0960   20.4370 C   0  0  0  0  0  0  0  0  0  0  0  0
   -4.0230   16.3860   20.6090 C   0  0  0  0  0  0  0  0  0  0  0  0
   -3.0410   16.9980   21.3380 N   0  0  0  0  0  0  0  0  0  0  0  0
   -1.8560   16.3680   21.4890 C   0  0  0  0  0  0  0  0  0  0  0  0
   -1.4880   15.1650   21.0040 N   0  0  0  0  0  0  0  0  0  0  0  0
   -2.4800   14.6130   20.2890 C   0  0  0  0  0  0  0  0  0  0  0  0
   -3.7420   15.1350   20.0480 C   0  0  0  0  0  0  0  0  0  0  0  0
   -4.4840   14.2730   19.2730 N   0  0  0  0  0  0  0  0  0  0  0  0
   -3.6830   13.2540   19.0350 C   0  0  0  0  0  0  0  0  0  0  0  0
   -2.4690   13.4020   19.6490 N   0  0  0  0  0  0  0  0  0  0  0  0
   -1.3400   12.4870   19.6250 C   0  0  2  0  0  0  0  0  0  0  0  0
   -0.4910   12.8190   18.4970 O   0  0  0  0  0  0  0  0  0  0  0  0
   -0.4350   11.6740   17.6290 C   0  0  2  0  0  0  0  0  0  0  0  0
   -0.4410   12.1720   16.2140 C   0  0  0  0  0  0  0  0  0  0  0  0
   -1.5510   12.5220   15.5420 C   0  0  0  0  0  0  0  0  0  0  0  0
   -1.5690   13.0180   14.1320 C   0  0  0  0  0  0  0  0  0  0  0  0
   -1.5800   14.4600   14.1800 N   0  0  0  0  0  0  0  0  0  0  0  0
   -0.4340   15.1990   13.9790 C   0  0  0  0  0  0  0  0  0  0  0  0
    0.6560   14.7020   13.7050 O   0  0  0  0  0  0  0  0  0  0  0  0
   -0.5240   16.6730   14.1600 C   0  0  0  0  0  0  0  0  0  0  0  0
   -1.7570   17.3260   14.3360 C   0  0  0  0  0  0  0  0  0  0  0  0
   -1.8270   18.7220   14.5250 C   0  0  0  0  0  0  0  0  0  0  0  0
   -3.1230   19.3930   14.7150 C   0  0  0  0  0  0  0  0  0  0  0  0
   -4.1150   19.3490   13.7170 C   0  0  0  0  0  0  0  0  0  0  0  0
   -5.3460   19.9820   13.9000 C   0  0  0  0  0  0  0  0  0  0  0  0
   -5.5960   20.6650   15.0830 C   0  0  0  0  0  0  0  0  0  0  0  0
   -6.7780   21.2720   15.2590 F   0  0  0  0  0  0  0  0  0  0  0  0
   -4.6380   20.7270   16.0860 C   0  0  0  0  0  0  0  0  0  0  0  0
   -3.4070   20.0940   15.9010 C   0  0  0  0  0  0  0  0  0  0  0  0
   -0.6310   19.4580   14.5280 C   0  0  0  0  0  0  0  0  0  0  0  0
    0.5840   18.8140   14.3310 C   0  0  0  0  0  0  0  0  0  0  0  0
    1.7320   19.5550   14.3210 O   0  0  0  0  0  0  0  0  0  0  0  0
    0.6480   17.4370   14.1370 C   0  0  0  0  0  0  0  0  0  0  0  0
    1.9010   16.9110   13.9300 O   0  0  0  0  0  0  0  0  0  0  0  0
   -1.6500   10.8090   17.9750 C   0  0  1  0  0  0  0  0  0  0  0  0
   -1.4970    9.4350   17.6400 O   0  0  0  0  0  0  0  0  0  0  0  0
   -1.7480   11.0150   19.4750 C   0  0  1  0  0  0  0  0  0  0  0  0
   -0.7980   10.1500   20.1260 O   0  0  0  0  0  0  0  0  0  0  0  0
   -5.7507   17.3274   21.4250 H   0  0  0  0  0  0  0  0  0  0  0  0
   -5.1637   18.0304   19.8797 H   0  0  0  0  0  0  0  0  0  0  0  0
   -6.0231   16.4530   19.8797 H   0  0  0  0  0  0  0  0  0  0  0  0
   -1.0977   16.9021   22.0805 H   0  0  0  0  0  0  0  0  0  0  0  0
   -3.9577   12.3871   18.4161 H   0  0  0  0  0  0  0  0  0  0  0  0
   -0.8259   12.6001   20.5909 H   0  0  0  0  0  0  0  0  0  0  0  0
    0.4717   11.0634   17.7522 H   0  0  0  0  0  0  0  0  0  0  0  0
    0.5244   12.2560   15.6934 H   0  0  0  0  0  0  0  0  0  0  0  0
   -2.5142   12.4375   16.0666 H   0  0  0  0  0  0  0  0  0  0  0  0
   -0.6733   12.6667   13.5988 H   0  0  0  0  0  0  0  0  0  0  0  0
   -2.4549   12.6411   13.5999 H   0  0  0  0  0  0  0  0  0  0  0  0
   -2.3750   14.8860   14.6340 H   0  0  0  0  0  0  0  0  0  0  0  0
   -2.6855   16.7362   14.3261 H   0  0  0  0  0  0  0  0  0  0  0  0
   -3.9175   18.8082   12.7797 H   0  0  0  0  0  0  0  0  0  0  0  0
   -6.1127   19.9400   13.1123 H   0  0  0  0  0  0  0  0  0  0  0  0
   -4.8470   21.2705   17.0192 H   0  0  0  0  0  0  0  0  0  0  0  0
   -2.6476   20.1444   16.6952 H   0  0  0  0  0  0  0  0  0  0  0  0
   -0.6563   20.5462   14.6866 H   0  0  0  0  0  0  0  0  0  0  0  0
    1.4380   20.4700   14.5120 H   0  0  0  0  0  0  0  0  0  0  0  0
    1.9540   16.0730   14.4460 H   0  0  0  0  0  0  0  0  0  0  0  0
   -2.5489   11.0939   17.4086 H   0  0  0  0  0  0  0  0  0  0  0  0
   -0.9610    9.3990   16.8250 H   0  0  0  0  0  0  0  0  0  0  0  0
   -2.7330   10.7934   19.9117 H   0  0  0  0  0  0  0  0  0  0  0  0
   -0.7180   10.4730   21.0440 H   0  0  0  0  0  0  0  0  0  0  0  0
  1  2  1  0
  2  3  2  0
  3  4  1  0
  4  5  2  0
  5  6  1  0
  6  7  2  0
  7  8  1  0
  8  9  2  0
  9 10  1  0
 10 11  1  0
 11 12  1  0
 12 13  1  0
 13 14  1  0
 14 15  2  0
 15 16  1  0
 16 17  1  0
 17 18  1  0
 18 19  2  0
 18 20  1  0
 20 21  2  0
 21 22  1  0
 22 23  1  0
 23 24  2  0
 24 25  1  0
 25 26  2  0
 26 27  1  0
 26 28  1  0
 28 29  2  0
 22 30  2  0
 30 31  1  0
 31 32  1  0
 31 33  2  0
 33 34  1  0
 13 35  1  0
 35 36  1  0
 35 37  1  0
 37 38  1  0
  7  2  1  0
 37 11  1  0
 10  6  1  0
 33 20  1  0
 29 23  1  0
  1 39  1  0
  1 40  1  0
  1 41  1  0
  4 42  1  0
  9 43  1  0
 11 44  1  1
 13 45  1  1
 14 46  1  0
 15 47  1  0
 16 48  1  0
 16 49  1  0
 17 50  1  0
 21 51  1  0
 24 52  1  0
 25 53  1  0
 28 54  1  0
 29 55  1  0
 30 56  1  0
 32 57  1  0
 34 58  1  0
 35 59  1  6
 36 60  1  0
 37 61  1  1
 38 62  1  0
M  END
>  <meeko>  (8) 
{"is_sidechain": [false], "free_energy": -8.909, "intermolecular_energy": -12.514, "internal_energy": -1.72}

$$$$
3nw9_ligand
     RDKit          3D

 62 66  0  0  0  0  0  0  0  0999 V2000
   -3.7560   12.3560   13.0080 C   0  0  0  0  0  0  0  0  0  0  0  0
   -5.2130   12.6360   13.1840 C   0  0  0  0  0  0  0  0  0  0  0  0
   -6.0290   12.5340   12.0910 N   0  0  0  0  0  0  0  0  0  0  0  0
   -7.3450   12.7960   12.2390 C   0  0  0  0  0  0  0  0  0  0  0  0
   -8.0000   13.1580   13.3610 N   0  0  0  0  0  0  0  0  0  0  0  0
   -7.1540   13.2540   14.3980 C   0  0  0  0  0  0  0  0  0  0  0  0
   -5.7880   13.0180   14.4010 C   0  0  0  0  0  0  0  0  0  0  0  0
   -5.2630   13.2170   15.6580 N   0  0  0  0  0  0  0  0  0  0  0  0
   -6.2880   13.5830   16.4000 C   0  0  0  0  0  0  0  0  0  0  0  0
   -7.4580   13.5960   15.6890 N   0  0  0  0  0  0  0  0  0  0  0  0
   -8.7880   13.9350   16.1660 C   0  0  2  0  0  0  0  0  0  0  0  0
   -8.8530   15.3650   16.3980 O   0  0  0  0  0  0  0  0  0  0  0  0
   -9.1510   15.5790   17.7880 C   0  0  2  0  0  0  0  0  0  0  0  0
   -8.3600   16.7690   18.2480 C   0  0  0  0  0  0  0  0  0  0  0  0
   -7.0200   16.8480   18.1990 C   0  0  0  0  0  0  0  0  0  0  0  0
   -6.2220   18.0280   18.6560 C   0  0  0  0  0  0  0  0  0  0  0  0
   -5.5700   18.5840   17.4960 N   0  0  0  0  0  0  0  0  0  0  0  0
   -5.8450   19.8600   17.0540 C   0  0  0  0  0  0  0  0  0  0  0  0
   -6.6180   20.6250   17.6250 O   0  0  0  0  0  0  0  0  0  0  0  0
   -5.2060   20.3030   15.7850 C   0  0  0  0  0  0  0  0  0  0  0  0
   -5.9620   20.6020   14.6370 C   0  0  0  0  0  0  0  0  0  0  0  0
   -5.3450   21.0400   13.4470 C   0  0  0  0  0  0  0  0  0  0  0  0
   -6.1480   21.3570   12.2550 C   0  0  0  0  0  0  0  0  0  0  0  0
   -6.1990   22.6680   11.7430 C   0  0  0  0  0  0  0  0  0  0  0  0
   -6.9590   22.9660   10.6090 C   0  0  0  0  0  0  0  0  0  0  0  0
   -7.6730   21.9570    9.9770 C   0  0  0  0  0  0  0  0  0  0  0  0
   -8.4010   22.2430    8.8900 F   0  0  0  0  0  0  0  0  0  0  0  0
   -7.6430   20.6540   10.4590 C   0  0  0  0  0  0  0  0  0  0  0  0
   -6.8850   20.3570   11.5930 C   0  0  0  0  0  0  0  0  0  0  0  0
   -3.9470   21.1670   13.4250 C   0  0  0  0  0  0  0  0  0  0  0  0
   -3.2010   20.8490   14.5520 C   0  0  0  0  0  0  0  0  0  0  0  0
   -1.8400   20.9640   14.4990 O   0  0  0  0  0  0  0  0  0  0  0  0
   -3.8130   20.4100   15.7230 C   0  0  0  0  0  0  0  0  0  0  0  0
   -2.9740   20.1030   16.7680 O   0  0  0  0  0  0  0  0  0  0  0  0
   -8.7770   14.2830   18.5140 C   0  0  1  0  0  0  0  0  0  0  0  0
   -9.4680   14.0890   19.7430 O   0  0  0  0  0  0  0  0  0  0  0  0
   -9.1620   13.2390   17.4820 C   0  0  1  0  0  0  0  0  0  0  0  0
  -10.5820   13.0130   17.5570 O   0  0  0  0  0  0  0  0  0  0  0  0
   -3.2785   12.2642   13.9947 H   0  0  0  0  0  0  0  0  0  0  0  0
   -3.6279   11.4168   12.4499 H   0  0  0  0  0  0  0  0  0  0  0  0
   -3.2889   13.1808   12.4499 H   0  0  0  0  0  0  0  0  0  0  0  0
   -7.9596   12.7026   11.3315 H   0  0  0  0  0  0  0  0  0  0  0  0
   -6.2128   13.8470   17.4652 H   0  0  0  0  0  0  0  0  0  0  0  0
   -9.4927   13.5984   15.3913 H   0  0  0  0  0  0  0  0  0  0  0  0
  -10.2099   15.7978   17.9899 H   0  0  0  0  0  0  0  0  0  0  0  0
   -8.9126   17.6307   18.6506 H   0  0  0  0  0  0  0  0  0  0  0  0
   -6.4711   15.9848   17.7946 H   0  0  0  0  0  0  0  0  0  0  0  0
   -6.8865   18.7783   19.1094 H   0  0  0  0  0  0  0  0  0  0  0  0
   -5.4806   17.7264   19.4106 H   0  0  0  0  0  0  0  0  0  0  0  0
   -5.1290   17.9240   16.8720 H   0  0  0  0  0  0  0  0  0  0  0  0
   -7.0560   20.4920   14.6682 H   0  0  0  0  0  0  0  0  0  0  0  0
   -5.6330   23.4680   12.2425 H   0  0  0  0  0  0  0  0  0  0  0  0
   -6.9914   23.9941   10.2193 H   0  0  0  0  0  0  0  0  0  0  0  0
   -8.2126   19.8621    9.9505 H   0  0  0  0  0  0  0  0  0  0  0  0
   -6.8633   19.3257   11.9751 H   0  0  0  0  0  0  0  0  0  0  0  0
   -3.4419   21.5190   12.5134 H   0  0  0  0  0  0  0  0  0  0  0  0
   -1.6070   20.7300   13.5770 H   0  0  0  0  0  0  0  0  0  0  0  0
   -2.0850   20.4680   16.5460 H   0  0  0  0  0  0  0  0  0  0  0  0
   -7.7223   14.2596   18.8255 H   0  0  0  0  0  0  0  0  0  0  0  0
   -8.9070   14.4690   20.4460 H   0  0  0  0  0  0  0  0  0  0  0  0
   -8.6759   12.2601   17.6065 H   0  0  0  0  0  0  0  0  0  0  0  0
  -10.6980   12.1300   17.9580 H   0  0  0  0  0  0  0  0  0  0  0  0
  1  2  1  0
  2  3  2  0
  3  4  1  0
  4  5  2  0
  5  6  1  0
  6  7  2  0
  7  8  1  0
  8  9  2  0
  9 10  1  0
 10 11  1  0
 11 12  1  0
 12 13  1  0
 13 14  1  0
 14 15  2  0
 15 16  1  0
 16 17  1  0
 17 18  1  0
 18 19  2  0
 18 20  1  0
 20 21  2  0
 21 22  1  0
 22 23  1  0
 23 24  2  0
 24 25  1  0
 25 26  2  0
 26 27  1  0
 26 28  1  0
 28 29  2  0
 22 30  2  0
 30 31  1  0
 31 32  1  0
 31 33  2  0
 33 34  1  0
 13 35  1  0
 35 36  1  0
 35 37  1  0
 37 38  1  0
  7  2  1  0
 37 11  1  0
 10  6  1  0
 33 20  1  0
 29 23  1  0
  1 39  1  0
  1 40  1  0
  1 41  1  0
  4 42  1  0
  9 43  1  0
 11 44  1  6
 13 45  1  6
 14 46  1  0
 15 47  1  0
 16 48  1  0
 16 49  1  0
 17 50  1  0
 21 51  1  0
 24 52  1  0
 25 53  1  0
 28 54  1  0
 29 55  1  0
 30 56  1  0
 32 57  1  0
 34 58  1  0
 35 59  1  1
 36 60  1  0
 37 61  1  1
 38 62  1  0
M  END
>  <meeko>  (9) 
{"is_sidechain": [false], "free_energy": -8.781, "intermolecular_energy": -12.53, "internal_energy": -1.516}

$$$$
