3f3d_ligand
     RDKit          3D

 20 19  0  0  0  0  0  0  0  0999 V2000
   43.1870   38.1890   36.1890 C   0  0  0  0  0  0  0  0  0  0  0  0
   42.8720   36.4440   36.5540 S   0  0  0  0  0  0  0  0  0  0  0  0
   41.4720   36.6620   37.7060 C   0  0  0  0  0  0  0  0  0  0  0  0
   40.3820   35.6240   37.4260 C   0  0  0  0  0  0  0  0  0  0  0  0
   40.1490   34.6650   38.5890 C   0  0  2  0  0  0  0  0  0  0  0  0
   40.2650   35.4500   39.8920 N   0  0  0  0  0  0  0  0  0  0  0  0
   41.1660   33.4830   38.6610 C   0  0  0  0  0  0  0  0  0  0  0  0
   41.5650   33.1160   39.7840 O   0  0  0  0  0  0  0  0  0  0  0  0
   41.3780   33.0450   37.4800 O   0  0  0  0  0  0  0  0  0  0  0  0
   43.2879   38.7482   37.1309 H   0  0  0  0  0  0  0  0  0  0  0  0
   44.1161   38.2800   35.6072 H   0  0  0  0  0  0  0  0  0  0  0  0
   42.3484   38.5991   35.6072 H   0  0  0  0  0  0  0  0  0  0  0  0
   41.8306   36.5410   38.7388 H   0  0  0  0  0  0  0  0  0  0  0  0
   41.0498   37.6682   37.5672 H   0  0  0  0  0  0  0  0  0  0  0  0
   39.4410   36.1537   37.2164 H   0  0  0  0  0  0  0  0  0  0  0  0
   40.7182   35.0215   36.5693 H   0  0  0  0  0  0  0  0  0  0  0  0
   39.1518   34.2277   38.4330 H   0  0  0  0  0  0  0  0  0  0  0  0
   40.8990   36.2450   39.8510 H   0  0  0  0  0  0  0  0  0  0  0  0
   40.4020   34.8450   40.7030 H   0  0  0  0  0  0  0  0  0  0  0  0
   39.2750   35.7910   39.9910 H   0  0  0  0  0  0  0  0  0  0  0  0
  1  2  1  0
  2  3  1  0
  3  4  1  0
  4  5  1  0
  5  6  1  0
  5  7  1  0
  7  8  2  0
  7  9  1  0
  1 10  1  0
  1 11  1  0
  1 12  1  0
  3 13  1  0
  3 14  1  0
  4 15  1  0
  4 16  1  0
  5 17  1  6
  6 18  1  0
  6 19  1  0
  6 20  1  0
M  CHG  2   6   1   9  -1
M  END
>  <meeko>  (1) 
{"is_sidechain": [false], "free_energy": -4.395, "intermolecular_energy": -5.551, "internal_energy": -0.152}

$$$$
3f3d_ligand
     RDKit          3D

 20 19  0  0  0  0  0  0  0  0999 V2000
   40.2390   33.0170   39.1750 C   0  0  0  0  0  0  0  0  0  0  0  0
   41.3440   34.0870   40.1290 S   0  0  0  0  0  0  0  0  0  0  0  0
   40.2050   35.4940   40.3730 C   0  0  0  0  0  0  0  0  0  0  0  0
   39.8480   35.6410   41.8550 C   0  0  0  0  0  0  0  0  0  0  0  0
   38.6760   34.7650   42.2830 C   0  0  2  0  0  0  0  0  0  0  0  0
   37.7240   35.6090   43.1250 N   0  0  0  0  0  0  0  0  0  0  0  0
   39.0820   33.5220   43.1370 C   0  0  0  0  0  0  0  0  0  0  0  0
   39.5200   33.7150   44.2880 O   0  0  0  0  0  0  0  0  0  0  0  0
   38.8250   32.4610   42.4750 O   0  0  0  0  0  0  0  0  0  0  0  0
   39.6225   32.4200   39.8631 H   0  0  0  0  0  0  0  0  0  0  0  0
   39.5867   33.6356   38.5411 H   0  0  0  0  0  0  0  0  0  0  0  0
   40.8363   32.3451   38.5411 H   0  0  0  0  0  0  0  0  0  0  0  0
   40.6897   36.4176   40.0236 H   0  0  0  0  0  0  0  0  0  0  0  0
   39.2838   35.3108   39.8005 H   0  0  0  0  0  0  0  0  0  0  0  0
   40.7276   35.3648   42.4550 H   0  0  0  0  0  0  0  0  0  0  0  0
   39.5483   36.6871   42.0156 H   0  0  0  0  0  0  0  0  0  0  0  0
   38.2175   34.3890   41.3565 H   0  0  0  0  0  0  0  0  0  0  0  0
   36.7770   35.6700   42.7580 H   0  0  0  0  0  0  0  0  0  0  0  0
   38.1290   36.5070   43.3940 H   0  0  0  0  0  0  0  0  0  0  0  0
   37.7230   35.0510   44.0170 H   0  0  0  0  0  0  0  0  0  0  0  0
  1  2  1  0
  2  3  1  0
  3  4  1  0
  4  5  1  0
  5  6  1  0
  5  7  1  0
  7  8  2  0
  7  9  1  0
  1 10  1  0
  1 11  1  0
  1 12  1  0
  3 13  1  0
  3 14  1  0
  4 15  1  0
  4 16  1  0
  5 17  1  6
  6 18  1  0
  6 19  1  0
  6 20  1  0
M  CHG  2   6   1   9  -1
M  END
>  <meeko>  (2) 
{"is_sidechain": [false], "free_energy": -4.376, "intermolecular_energy": -5.482, "internal_energy": -0.196}

$$$$
3f3d_ligand
     RDKit          3D

 20 19  0  0  0  0  0  0  0  0999 V2000
   37.3930   38.2050   44.4870 C   0  0  0  0  0  0  0  0  0  0  0  0
   37.6470   36.4470   44.1350 S   0  0  0  0  0  0  0  0  0  0  0  0
   39.0750   36.6060   43.0070 C   0  0  0  0  0  0  0  0  0  0  0  0
   40.1680   35.6040   43.3830 C   0  0  0  0  0  0  0  0  0  0  0  0
   40.6070   34.7220   42.2180 C   0  0  2  0  0  0  0  0  0  0  0  0
   40.1570   35.3820   40.9180 N   0  0  0  0  0  0  0  0  0  0  0  0
   40.0100   33.2800   42.2430 C   0  0  0  0  0  0  0  0  0  0  0  0
   39.1850   32.9980   43.1350 O   0  0  0  0  0  0  0  0  0  0  0  0
   40.4680   32.6240   41.2490 O   0  0  0  0  0  0  0  0  0  0  0  0
   37.3704   38.3614   45.5756 H   0  0  0  0  0  0  0  0  0  0  0  0
   38.2161   38.7892   44.0496 H   0  0  0  0  0  0  0  0  0  0  0  0
   36.4382   38.5323   44.0496 H   0  0  0  0  0  0  0  0  0  0  0  0
   38.7452   36.4121   41.9757 H   0  0  0  0  0  0  0  0  0  0  0  0
   39.4821   37.6246   43.0894 H   0  0  0  0  0  0  0  0  0  0  0  0
   41.0431   36.1625   43.7468 H   0  0  0  0  0  0  0  0  0  0  0  0
   39.7493   34.9401   44.1536 H   0  0  0  0  0  0  0  0  0  0  0  0
   41.6995   34.6237   42.3000 H   0  0  0  0  0  0  0  0  0  0  0  0
   40.8650   35.4020   40.1870 H   0  0  0  0  0  0  0  0  0  0  0  0
   39.6890   36.2770   41.0730 H   0  0  0  0  0  0  0  0  0  0  0  0
   39.3780   34.7310   40.6400 H   0  0  0  0  0  0  0  0  0  0  0  0
  1  2  1  0
  2  3  1  0
  3  4  1  0
  4  5  1  0
  5  6  1  0
  5  7  1  0
  7  8  2  0
  7  9  1  0
  1 10  1  0
  1 11  1  0
  1 12  1  0
  3 13  1  0
  3 14  1  0
  4 15  1  0
  4 16  1  0
  5 17  1  6
  6 18  1  0
  6 19  1  0
  6 20  1  0
M  CHG  2   6   1   9  -1
M  END
>  <meeko>  (3) 
{"is_sidechain": [false], "free_energy": -4.357, "intermolecular_energy": -5.528, "internal_energy": -0.127}

$$$$
3f3d_ligand
     RDKit          3D

 20 19  0  0  0  0  0  0  0  0999 V2000
   40.1570   32.9770   41.8190 C   0  0  0  0  0  0  0  0  0  0  0  0
   39.1000   33.9850   40.7500 S   0  0  0  0  0  0  0  0  0  0  0  0
   40.2220   35.4100   40.5350 C   0  0  0  0  0  0  0  0  0  0  0  0
   40.5750   35.5960   39.0570 C   0  0  0  0  0  0  0  0  0  0  0  0
   41.7340   34.7170   38.5980 C   0  0  2  0  0  0  0  0  0  0  0  0
   42.6810   35.5690   37.7580 N   0  0  0  0  0  0  0  0  0  0  0  0
   41.3080   33.4930   37.7290 C   0  0  0  0  0  0  0  0  0  0  0  0
   40.7810   33.7120   36.6190 O   0  0  0  0  0  0  0  0  0  0  0  0
   41.6450   32.4190   38.3300 O   0  0  0  0  0  0  0  0  0  0  0  0
   39.9279   33.1955   42.8724 H   0  0  0  0  0  0  0  0  0  0  0  0
   39.9729   31.9115   41.6171 H   0  0  0  0  0  0  0  0  0  0  0  0
   41.2126   33.2114   41.6171 H   0  0  0  0  0  0  0  0  0  0  0  0
   39.7272   36.3196   40.9063 H   0  0  0  0  0  0  0  0  0  0  0  0
   41.1466   35.2234   41.1009 H   0  0  0  0  0  0  0  0  0  0  0  0
   39.6894   35.3495   38.4529 H   0  0  0  0  0  0  0  0  0  0  0  0
   40.8881   36.6423   38.9261 H   0  0  0  0  0  0  0  0  0  0  0  0
   42.2009   34.3203   39.5116 H   0  0  0  0  0  0  0  0  0  0  0  0
   42.4020   35.6760   36.7850 H   0  0  0  0  0  0  0  0  0  0  0  0
   43.6600   35.3110   37.8880 H   0  0  0  0  0  0  0  0  0  0  0  0
   42.5910   36.4910   38.2560 H   0  0  0  0  0  0  0  0  0  0  0  0
  1  2  1  0
  2  3  1  0
  3  4  1  0
  4  5  1  0
  5  6  1  0
  5  7  1  0
  7  8  2  0
  7  9  1  0
  1 10  1  0
  1 11  1  0
  1 12  1  0
  3 13  1  0
  3 14  1  0
  4 15  1  0
  4 16  1  0
  5 17  1  1
  6 18  1  0
  6 19  1  0
  6 20  1  0
M  CHG  2   6   1   9  -1
M  END
>  <meeko>  (4) 
{"is_sidechain": [false], "free_energy": -4.348, "intermolecular_energy": -5.472, "internal_energy": -0.171}

$$$$
3f3d_ligand
     RDKit          3D

 20 19  0  0  0  0  0  0  0  0999 V2000
   43.9670   37.6620   35.4460 C   0  0  0  0  0  0  0  0  0  0  0  0
   42.6930   38.2790   36.5740 S   0  0  0  0  0  0  0  0  0  0  0  0
   41.6240   36.7980   36.6030 C   0  0  0  0  0  0  0  0  0  0  0  0
   41.2290   36.4520   38.0410 C   0  0  0  0  0  0  0  0  0  0  0  0
   41.7470   35.0930   38.4990 C   0  0  2  0  0  0  0  0  0  0  0  0
   42.8120   34.6250   37.5120 N   0  0  0  0  0  0  0  0  0  0  0  0
   40.6550   33.9800   38.5740 C   0  0  0  0  0  0  0  0  0  0  0  0
   40.6410   33.1060   37.6850 O   0  0  0  0  0  0  0  0  0  0  0  0
   39.9600   34.1510   39.6320 O   0  0  0  0  0  0  0  0  0  0  0  0
   44.8068   37.2553   36.0286 H   0  0  0  0  0  0  0  0  0  0  0  0
   43.5428   36.8695   34.8120 H   0  0  0  0  0  0  0  0  0  0  0  0
   44.3257   38.4862   34.8120 H   0  0  0  0  0  0  0  0  0  0  0  0
   40.7154   36.9955   36.0152 H   0  0  0  0  0  0  0  0  0  0  0  0
   42.1771   35.9507   36.1716 H   0  0  0  0  0  0  0  0  0  0  0  0
   41.6361   37.2243   38.7102 H   0  0  0  0  0  0  0  0  0  0  0  0
   40.1303   36.4102   38.0757 H   0  0  0  0  0  0  0  0  0  0  0  0
   42.1337   35.2386   39.5184 H   0  0  0  0  0  0  0  0  0  0  0  0
   42.6650   33.6860   37.1460 H   0  0  0  0  0  0  0  0  0  0  0  0
   43.7610   34.8010   37.8450 H   0  0  0  0  0  0  0  0  0  0  0  0
   42.6740   35.3300   36.7430 H   0  0  0  0  0  0  0  0  0  0  0  0
  1  2  1  0
  2  3  1  0
  3  4  1  0
  4  5  1  0
  5  6  1  0
  5  7  1  0
  7  8  2  0
  7  9  1  0
  1 10  1  0
  1 11  1  0
  1 12  1  0
  3 13  1  0
  3 14  1  0
  4 15  1  0
  4 16  1  0
  5 17  1  1
  6 18  1  0
  6 19  1  0
  6 20  1  0
M  CHG  2   6   1   9  -1
M  END
>  <meeko>  (5) 
{"is_sidechain": [false], "free_energy": -4.335, "intermolecular_energy": -5.503, "internal_energy": -0.125}

$$$$
3f3d_ligand
     RDKit          3D

 20 19  0  0  0  0  0  0  0  0999 V2000
   41.0230   33.0810   39.1670 C   0  0  0  0  0  0  0  0  0  0  0  0
   40.0440   34.5620   39.5190 S   0  0  0  0  0  0  0  0  0  0  0  0
   40.1420   35.3430   37.8710 C   0  0  0  0  0  0  0  0  0  0  0  0
   41.2200   36.4300   37.8580 C   0  0  0  0  0  0  0  0  0  0  0  0
   42.2790   36.2180   36.7820 C   0  0  2  0  0  0  0  0  0  0  0  0
   43.2750   35.1770   37.2830 N   0  0  0  0  0  0  0  0  0  0  0  0
   43.0870   37.5010   36.4130 C   0  0  0  0  0  0  0  0  0  0  0  0
   44.0090   37.3990   35.5790 O   0  0  0  0  0  0  0  0  0  0  0  0
   42.5910   38.4980   37.0370 O   0  0  0  0  0  0  0  0  0  0  0  0
   41.3326   32.6127   40.1130 H   0  0  0  0  0  0  0  0  0  0  0  0
   40.4165   32.3698   38.5870 H   0  0  0  0  0  0  0  0  0  0  0  0
   41.9150   33.3604   38.5870 H   0  0  0  0  0  0  0  0  0  0  0  0
   40.3905   34.5773   37.1214 H   0  0  0  0  0  0  0  0  0  0  0  0
   39.1703   35.8017   37.6355 H   0  0  0  0  0  0  0  0  0  0  0  0
   40.7341   37.4012   37.6828 H   0  0  0  0  0  0  0  0  0  0  0  0
   41.7323   36.3916   38.8306 H   0  0  0  0  0  0  0  0  0  0  0  0
   41.7391   35.9019   35.8773 H   0  0  0  0  0  0  0  0  0  0  0  0
   44.0720   35.0240   36.6690 H   0  0  0  0  0  0  0  0  0  0  0  0
   42.8200   34.3190   37.6010 H   0  0  0  0  0  0  0  0  0  0  0  0
   43.5960   35.6410   38.1710 H   0  0  0  0  0  0  0  0  0  0  0  0
  1  2  1  0
  2  3  1  0
  3  4  1  0
  4  5  1  0
  5  6  1  0
  5  7  1  0
  7  8  2  0
  7  9  1  0
  1 10  1  0
  1 11  1  0
  1 12  1  0
  3 13  1  0
  3 14  1  0
  4 15  1  0
  4 16  1  0
  5 17  1  6
  6 18  1  0
  6 19  1  0
  6 20  1  0
M  CHG  2   6   1   9  -1
M  END
>  <meeko>  (6) 
{"is_sidechain": [false], "free_energy": -4.264, "intermolecular_energy": -5.411, "internal_energy": -0.125}

$$$$
3f3d_ligand
     RDKit          3D

 20 19  0  0  0  0  0  0  0  0999 V2000
   42.9480   35.5130   37.0580 C   0  0  0  0  0  0  0  0  0  0  0  0
   41.6580   36.7710   37.2370 S   0  0  0  0  0  0  0  0  0  0  0  0
   40.3040   35.6830   37.8030 C   0  0  0  0  0  0  0  0  0  0  0  0
   40.5170   35.2800   39.2640 C   0  0  0  0  0  0  0  0  0  0  0  0
   40.3760   33.7810   39.5030 C   0  0  2  0  0  0  0  0  0  0  0  0
   40.4210   33.0700   38.1540 N   0  0  0  0  0  0  0  0  0  0  0  0
   39.0470   33.3640   40.2080 C   0  0  0  0  0  0  0  0  0  0  0  0
   38.8420   33.7720   41.3690 O   0  0  0  0  0  0  0  0  0  0  0  0
   38.3420   32.6790   39.3940 O   0  0  0  0  0  0  0  0  0  0  0  0
   43.2826   35.1867   38.0538 H   0  0  0  0  0  0  0  0  0  0  0  0
   42.5455   34.6510   36.5057 H   0  0  0  0  0  0  0  0  0  0  0  0
   43.7996   35.9371   36.5057 H   0  0  0  0  0  0  0  0  0  0  0  0
   39.3471   36.2176   37.7105 H   0  0  0  0  0  0  0  0  0  0  0  0
   40.2925   34.7757   37.1812 H   0  0  0  0  0  0  0  0  0  0  0  0
   41.5284   35.5882   39.5673 H   0  0  0  0  0  0  0  0  0  0  0  0
   39.7363   35.7792   39.8567 H   0  0  0  0  0  0  0  0  0  0  0  0
   41.2026   33.4975   40.1711 H   0  0  0  0  0  0  0  0  0  0  0  0
   40.5230   33.6900   37.3530 H   0  0  0  0  0  0  0  0  0  0  0  0
   39.6830   32.3720   38.0530 H   0  0  0  0  0  0  0  0  0  0  0  0
   41.2980   32.5010   38.2750 H   0  0  0  0  0  0  0  0  0  0  0  0
  1  2  1  0
  2  3  1  0
  3  4  1  0
  4  5  1  0
  5  6  1  0
  5  7  1  0
  7  8  2  0
  7  9  1  0
  1 10  1  0
  1 11  1  0
  1 12  1  0
  3 13  1  0
  3 14  1  0
  4 15  1  0
  4 16  1  0
  5 17  1  1
  6 18  1  0
  6 19  1  0
  6 20  1  0
M  CHG  2   6   1   9  -1
M  END
>  <meeko>  (7) 
{"is_sidechain": [false], "free_energy": -4.218, "intermolecular_energy": -5.326, "internal_energy": -0.154}

$$$$
3f3d_ligand
     RDKit          3D

 20 19  0  0  0  0  0  0  0  0999 V2000
   37.5840   35.5230   44.8790 C   0  0  0  0  0  0  0  0  0  0  0  0
   38.2800   36.7770   43.7750 S   0  0  0  0  0  0  0  0  0  0  0  0
   39.8490   35.9340   43.3710 C   0  0  0  0  0  0  0  0  0  0  0  0
   39.8860   35.5560   41.8880 C   0  0  0  0  0  0  0  0  0  0  0  0
   40.0520   34.0580   41.6510 C   0  0  2  0  0  0  0  0  0  0  0  0
   40.0110   33.3490   43.0010 N   0  0  0  0  0  0  0  0  0  0  0  0
   41.3900   33.6630   40.9520 C   0  0  0  0  0  0  0  0  0  0  0  0
   42.1070   32.7990   41.4960 O   0  0  0  0  0  0  0  0  0  0  0  0
   41.4890   34.3020   39.8510 O   0  0  0  0  0  0  0  0  0  0  0  0
   37.7500   35.8221   45.9245 H   0  0  0  0  0  0  0  0  0  0  0  0
   36.5042   35.4282   44.6918 H   0  0  0  0  0  0  0  0  0  0  0  0
   38.0748   34.5565   44.6918 H   0  0  0  0  0  0  0  0  0  0  0  0
   40.6899   36.6070   43.5945 H   0  0  0  0  0  0  0  0  0  0  0  0
   39.9271   35.0177   43.9745 H   0  0  0  0  0  0  0  0  0  0  0  0
   38.9445   35.8811   41.4212 H   0  0  0  0  0  0  0  0  0  0  0  0
   40.7614   36.0547   41.4464 H   0  0  0  0  0  0  0  0  0  0  0  0
   39.2338   33.7588   40.9795 H   0  0  0  0  0  0  0  0  0  0  0  0
   40.4120   32.4130   42.9980 H   0  0  0  0  0  0  0  0  0  0  0  0
   39.0970   33.4120   43.4500 H   0  0  0  0  0  0  0  0  0  0  0  0
   40.6210   33.9940   43.5660 H   0  0  0  0  0  0  0  0  0  0  0  0
  1  2  1  0
  2  3  1  0
  3  4  1  0
  4  5  1  0
  5  6  1  0
  5  7  1  0
  7  8  2  0
  7  9  1  0
  1 10  1  0
  1 11  1  0
  1 12  1  0
  3 13  1  0
  3 14  1  0
  4 15  1  0
  4 16  1  0
  5 17  1  6
  6 18  1  0
  6 19  1  0
  6 20  1  0
M  CHG  2   6   1   9  -1
M  END
>  <meeko>  (8) 
{"is_sidechain": [false], "free_energy": -4.197, "intermolecular_energy": -5.329, "internal_energy": -0.124}

$$$$
3f3d_ligand
     RDKit          3D

 20 19  0  0  0  0  0  0  0  0999 V2000
   38.9740   32.2740   40.7720 C   0  0  0  0  0  0  0  0  0  0  0  0
   39.0830   34.0570   40.4810 S   0  0  0  0  0  0  0  0  0  0  0  0
   40.3600   34.4520   41.7250 C   0  0  0  0  0  0  0  0  0  0  0  0
   39.9210   35.6410   42.5840 C   0  0  0  0  0  0  0  0  0  0  0  0
   39.2610   35.2270   43.8950 C   0  0  2  0  0  0  0  0  0  0  0  0
   39.5970   33.7630   44.1630 N   0  0  0  0  0  0  0  0  0  0  0  0
   37.7060   35.3610   43.9040 C   0  0  0  0  0  0  0  0  0  0  0  0
   37.2110   36.4920   43.7240 O   0  0  0  0  0  0  0  0  0  0  0  0
   37.1900   34.2030   44.0520 O   0  0  0  0  0  0  0  0  0  0  0  0
   38.9621   32.0792   41.8546 H   0  0  0  0  0  0  0  0  0  0  0  0
   38.0504   31.8844   40.3192 H   0  0  0  0  0  0  0  0  0  0  0  0
   39.8433   31.7748   40.3192 H   0  0  0  0  0  0  0  0  0  0  0  0
   40.5183   33.5766   42.3720 H   0  0  0  0  0  0  0  0  0  0  0  0
   41.2940   34.7132   41.2060 H   0  0  0  0  0  0  0  0  0  0  0  0
   40.8071   36.2500   42.8163 H   0  0  0  0  0  0  0  0  0  0  0  0
   39.1725   36.2022   42.0054 H   0  0  0  0  0  0  0  0  0  0  0  0
   39.6504   35.9100   44.6643 H   0  0  0  0  0  0  0  0  0  0  0  0
   40.5370   33.4870   43.8870 H   0  0  0  0  0  0  0  0  0  0  0  0
   38.8630   33.1280   43.8450 H   0  0  0  0  0  0  0  0  0  0  0  0
   39.5150   33.7440   45.2120 H   0  0  0  0  0  0  0  0  0  0  0  0
  1  2  1  0
  2  3  1  0
  3  4  1  0
  4  5  1  0
  5  6  1  0
  5  7  1  0
  7  8  2  0
  7  9  1  0
  1 10  1  0
  1 11  1  0
  1 12  1  0
  3 13  1  0
  3 14  1  0
  4 15  1  0
  4 16  1  0
  5 17  1  1
  6 18  1  0
  6 19  1  0
  6 20  1  0
M  CHG  2   6   1   9  -1
M  END
>  <meeko>  (9) 
{"is_sidechain": [false], "free_energy": -4.173, "intermolecular_energy": -5.229, "internal_energy": -0.194}

$$$$
