3ejr_ligand
     RDKit          3D

 55 57  0  0  0  0  0  0  0  0999 V2000
   33.1180   72.9560   13.8870 C   0  0  0  0  0  0  0  0  0  0  0  0
   32.8820   71.4660   14.2220 C   0  0  0  0  0  0  0  0  0  0  0  0
   34.0060   70.6610   13.5350 C   0  0  0  0  0  0  0  0  0  0  0  0
   33.0120   71.3170   15.7530 C   0  0  0  0  0  0  0  0  0  0  0  0
   31.5100   70.9350   13.7640 C   0  0  0  0  0  0  0  0  0  0  0  0
   30.5520   71.7450   13.1350 C   0  0  0  0  0  0  0  0  0  0  0  0
   29.3110   71.2340   12.7290 C   0  0  0  0  0  0  0  0  0  0  0  0
   28.9960   69.8910   12.9460 C   0  0  0  0  0  0  0  0  0  0  0  0
   27.6920   69.2940   12.5340 C   0  0  0  0  0  0  0  0  0  0  0  0
   26.7080   69.4060   13.2620 O   0  0  0  0  0  0  0  0  0  0  0  0
   27.6030   68.5300   11.2260 C   0  0  0  0  0  0  0  0  0  0  0  0
   27.8090   67.0280   11.4780 C   0  0  1  0  0  0  0  0  0  0  0  0
   26.5430   66.1870   11.1730 C   0  0  0  0  0  0  0  0  0  0  0  0
   26.6520   65.2480    9.9540 C   0  0  0  0  0  0  0  0  0  0  0  0
   27.3580   65.9110    8.7680 C   0  0  1  0  0  0  0  0  0  0  0  0
   26.5330   67.0110    8.3550 O   0  0  0  0  0  0  0  0  0  0  0  0
   28.7350   66.4920    9.1420 C   0  0  2  0  0  0  0  0  0  0  0  0
   29.9690   65.6870    8.7500 C   0  0  2  0  0  0  0  0  0  0  0  0
   29.7960   64.3330    9.2030 O   0  0  0  0  0  0  0  0  0  0  0  0
   31.0820   66.3540    9.5900 C   0  0  2  0  0  0  0  0  0  0  0  0
   32.0770   65.3730    9.8740 O   0  0  0  0  0  0  0  0  0  0  0  0
   30.3640   66.8590   10.8700 C   0  0  0  0  0  0  0  0  0  0  0  0
   28.9270   66.4620   10.6550 N   0  0  1  0  0  0  0  0  0  0  0  0
   29.9380   69.0670   13.5670 C   0  0  0  0  0  0  0  0  0  0  0  0
   31.1740   69.5840   13.9700 C   0  0  0  0  0  0  0  0  0  0  0  0
   33.2092   73.5316   14.8199 H   0  0  0  0  0  0  0  0  0  0  0  0
   34.0435   73.0580   13.3013 H   0  0  0  0  0  0  0  0  0  0  0  0
   32.2693   73.3390   13.3013 H   0  0  0  0  0  0  0  0  0  0  0  0
   34.6482   70.2011   14.3006 H   0  0  0  0  0  0  0  0  0  0  0  0
   33.5624   69.8740   12.9075 H   0  0  0  0  0  0  0  0  0  0  0  0
   34.6083   71.3344   12.9075 H   0  0  0  0  0  0  0  0  0  0  0  0
   32.3667   72.0566   16.2495 H   0  0  0  0  0  0  0  0  0  0  0  0
   32.7042   70.3036   16.0502 H   0  0  0  0  0  0  0  0  0  0  0  0
   34.0577   71.4846   16.0502 H   0  0  0  0  0  0  0  0  0  0  0  0
   30.7801   72.8061   12.9562 H   0  0  0  0  0  0  0  0  0  0  0  0
   28.5818   71.8945   12.2370 H   0  0  0  0  0  0  0  0  0  0  0  0
   26.6119   68.6912   10.7770 H   0  0  0  0  0  0  0  0  0  0  0  0
   28.3859   68.8917   10.5432 H   0  0  0  0  0  0  0  0  0  0  0  0
   28.0504   66.9606   12.5491 H   0  0  0  0  0  0  0  0  0  0  0  0
   26.3231   65.5711   12.0575 H   0  0  0  0  0  0  0  0  0  0  0  0
   25.7498   66.9093   10.9300 H   0  0  0  0  0  0  0  0  0  0  0  0
   27.2196   64.3526   10.2474 H   0  0  0  0  0  0  0  0  0  0  0  0
   25.6308   64.9915    9.6358 H   0  0  0  0  0  0  0  0  0  0  0  0
   27.5098   65.1510    7.9874 H   0  0  0  0  0  0  0  0  0  0  0  0
   25.8200   66.6530    7.7900 H   0  0  0  0  0  0  0  0  0  0  0  0
   28.6915   67.4624    8.6258 H   0  0  0  0  0  0  0  0  0  0  0  0
   30.1721   65.6695    7.6691 H   0  0  0  0  0  0  0  0  0  0  0  0
   30.6980   64.0220    9.4480 H   0  0  0  0  0  0  0  0  0  0  0  0
   31.5913   67.1882    9.0853 H   0  0  0  0  0  0  0  0  0  0  0  0
   32.9160   65.8240   10.0910 H   0  0  0  0  0  0  0  0  0  0  0  0
   30.7748   66.3734   11.7674 H   0  0  0  0  0  0  0  0  0  0  0  0
   30.4878   67.9404   11.0291 H   0  0  0  0  0  0  0  0  0  0  0  0
   28.9460   65.4470   10.8770 H   0  0  0  0  0  0  0  0  0  0  0  0
   29.7065   68.0056   13.7401 H   0  0  0  0  0  0  0  0  0  0  0  0
   31.9004   68.9187   14.4595 H   0  0  0  0  0  0  0  0  0  0  0  0
  1  2  1  0
  2  3  1  0
  2  4  1  0
  2  5  1  0
  5  6  2  0
  6  7  1  0
  7  8  2  0
  8  9  1  0
  9 10  2  0
  9 11  1  0
 11 12  1  0
 12 13  1  0
 13 14  1  0
 14 15  1  0
 15 16  1  0
 15 17  1  0
 17 18  1  0
 18 19  1  0
 18 20  1  0
 20 21  1  0
 20 22  1  0
 22 23  1  0
  8 24  1  0
 24 25  2  0
 25  5  1  0
 23 12  1  0
 23 17  1  0
  1 26  1  0
  1 27  1  0
  1 28  1  0
  3 29  1  0
  3 30  1  0
  3 31  1  0
  4 32  1  0
  4 33  1  0
  4 34  1  0
  6 35  1  0
  7 36  1  0
 11 37  1  0
 11 38  1  0
 12 39  1  1
 13 40  1  0
 13 41  1  0
 14 42  1  0
 14 43  1  0
 15 44  1  6
 16 45  1  0
 17 46  1  6
 18 47  1  6
 19 48  1  0
 20 49  1  6
 21 50  1  0
 22 51  1  0
 22 52  1  0
 23 53  1  1
 24 54  1  0
 25 55  1  0
M  CHG  1  23   1
M  END
>  <meeko>  (1) 
{"is_sidechain": [false], "free_energy": -7.1, "intermolecular_energy": -9.382, "internal_energy": -0.847}

$$$$
3ejr_ligand
     RDKit          3D

 55 57  0  0  0  0  0  0  0  0999 V2000
   33.4260   70.7640   15.6830 C   0  0  0  0  0  0  0  0  0  0  0  0
   32.8920   70.4080   14.2770 C   0  0  0  0  0  0  0  0  0  0  0  0
   32.6160   71.7390   13.5440 C   0  0  0  0  0  0  0  0  0  0  0  0
   34.0150   69.6450   13.5420 C   0  0  0  0  0  0  0  0  0  0  0  0
   31.6110   69.5530   14.2960 C   0  0  0  0  0  0  0  0  0  0  0  0
   31.3340   68.6190   15.3080 C   0  0  0  0  0  0  0  0  0  0  0  0
   30.1590   67.8550   15.3000 C   0  0  0  0  0  0  0  0  0  0  0  0
   29.2280   68.0040   14.2700 C   0  0  0  0  0  0  0  0  0  0  0  0
   27.9610   67.2160   14.2110 C   0  0  0  0  0  0  0  0  0  0  0  0
   27.4690   66.7650   15.2430 O   0  0  0  0  0  0  0  0  0  0  0  0
   27.3060   66.9620   12.8660 C   0  0  0  0  0  0  0  0  0  0  0  0
   28.0310   65.8200   12.1350 C   0  0  1  0  0  0  0  0  0  0  0  0
   28.7790   64.8660   13.1000 C   0  0  0  0  0  0  0  0  0  0  0  0
   28.1960   63.4420   13.2050 C   0  0  0  0  0  0  0  0  0  0  0  0
   26.6660   63.4410   13.2610 C   0  0  1  0  0  0  0  0  0  0  0  0
   26.2950   64.1170   14.4720 O   0  0  0  0  0  0  0  0  0  0  0  0
   26.0250   64.2160   12.0940 C   0  0  2  0  0  0  0  0  0  0  0  0
   25.4580   63.4020   10.9350 C   0  0  2  0  0  0  0  0  0  0  0  0
   26.4600   62.4690   10.4980 O   0  0  0  0  0  0  0  0  0  0  0  0
   25.2650   64.4750    9.8390 C   0  0  2  0  0  0  0  0  0  0  0  0
   25.4040   63.8450    8.5680 O   0  0  0  0  0  0  0  0  0  0  0  0
   26.3790   65.5210   10.1080 C   0  0  0  0  0  0  0  0  0  0  0  0
   27.0930   64.9820   11.3190 N   0  0  1  0  0  0  0  0  0  0  0  0
   29.4830   68.9300   13.2550 C   0  0  0  0  0  0  0  0  0  0  0  0
   30.6570   69.6900   13.2710 C   0  0  0  0  0  0  0  0  0  0  0  0
   32.7677   70.3251   16.4472 H   0  0  0  0  0  0  0  0  0  0  0  0
   34.4434   70.3628   15.8012 H   0  0  0  0  0  0  0  0  0  0  0  0
   33.4470   71.8574   15.8012 H   0  0  0  0  0  0  0  0  0  0  0  0
   32.4505   72.5370   14.2828 H   0  0  0  0  0  0  0  0  0  0  0  0
   33.4799   71.9964   12.9136 H   0  0  0  0  0  0  0  0  0  0  0  0
   31.7210   71.6317   12.9136 H   0  0  0  0  0  0  0  0  0  0  0  0
   34.6901   69.1863   14.2795 H   0  0  0  0  0  0  0  0  0  0  0  0
   33.5728   68.8596   12.9114 H   0  0  0  0  0  0  0  0  0  0  0  0
   34.5823   70.3454   12.9114 H   0  0  0  0  0  0  0  0  0  0  0  0
   32.0566   68.4840   16.1263 H   0  0  0  0  0  0  0  0  0  0  0  0
   29.9693   67.1344   16.1092 H   0  0  0  0  0  0  0  0  0  0  0  0
   26.2527   66.6849   13.0204 H   0  0  0  0  0  0  0  0  0  0  0  0
   27.3661   67.8760   12.2569 H   0  0  0  0  0  0  0  0  0  0  0  0
   28.7552   66.3291   11.4820 H   0  0  0  0  0  0  0  0  0  0  0  0
   29.8202   64.7820   12.7551 H   0  0  0  0  0  0  0  0  0  0  0  0
   28.6800   65.3091   14.1020 H   0  0  0  0  0  0  0  0  0  0  0  0
   28.5178   62.8628   12.3270 H   0  0  0  0  0  0  0  0  0  0  0  0
   28.5664   62.9958   14.1397 H   0  0  0  0  0  0  0  0  0  0  0  0
   26.3186   62.3987   13.2081 H   0  0  0  0  0  0  0  0  0  0  0  0
   25.5990   64.7660   14.2490 H   0  0  0  0  0  0  0  0  0  0  0  0
   25.2443   64.7767   12.6290 H   0  0  0  0  0  0  0  0  0  0  0  0
   24.5437   62.8417   11.1804 H   0  0  0  0  0  0  0  0  0  0  0  0
   26.0590   61.5780   10.6180 H   0  0  0  0  0  0  0  0  0  0  0  0
   24.2777   64.9600    9.8488 H   0  0  0  0  0  0  0  0  0  0  0  0
   25.4060   64.5300    7.8710 H   0  0  0  0  0  0  0  0  0  0  0  0
   27.0633   65.5941    9.2499 H   0  0  0  0  0  0  0  0  0  0  0  0
   25.9818   66.5348   10.2646 H   0  0  0  0  0  0  0  0  0  0  0  0
   27.6810   64.2310   10.9100 H   0  0  0  0  0  0  0  0  0  0  0  0
   28.7568   69.0618   12.4394 H   0  0  0  0  0  0  0  0  0  0  0  0
   30.8390   70.4128   12.4621 H   0  0  0  0  0  0  0  0  0  0  0  0
  1  2  1  0
  2  3  1  0
  2  4  1  0
  2  5  1  0
  5  6  2  0
  6  7  1  0
  7  8  2  0
  8  9  1  0
  9 10  2  0
  9 11  1  0
 11 12  1  0
 12 13  1  0
 13 14  1  0
 14 15  1  0
 15 16  1  0
 15 17  1  0
 17 18  1  0
 18 19  1  0
 18 20  1  0
 20 21  1  0
 20 22  1  0
 22 23  1  0
  8 24  1  0
 24 25  2  0
 25  5  1  0
 23 12  1  0
 23 17  1  0
  1 26  1  0
  1 27  1  0
  1 28  1  0
  3 29  1  0
  3 30  1  0
  3 31  1  0
  4 32  1  0
  4 33  1  0
  4 34  1  0
  6 35  1  0
  7 36  1  0
 11 37  1  0
 11 38  1  0
 12 39  1  6
 13 40  1  0
 13 41  1  0
 14 42  1  0
 14 43  1  0
 15 44  1  1
 16 45  1  0
 17 46  1  1
 18 47  1  1
 19 48  1  0
 20 49  1  6
 21 50  1  0
 22 51  1  0
 22 52  1  0
 23 53  1  6
 24 54  1  0
 25 55  1  0
M  CHG  1  23   1
M  END
>  <meeko>  (2) 
{"is_sidechain": [false], "free_energy": -6.849, "intermolecular_energy": -8.978, "internal_energy": -0.92}

$$$$
3ejr_ligand
     RDKit          3D

 55 57  0  0  0  0  0  0  0  0999 V2000
   23.7280   63.1490   13.4940 C   0  0  0  0  0  0  0  0  0  0  0  0
   23.8810   64.6830   13.6020 C   0  0  0  0  0  0  0  0  0  0  0  0
   22.6100   65.3120   12.9910 C   0  0  0  0  0  0  0  0  0  0  0  0
   23.9480   65.0300   15.1050 C   0  0  0  0  0  0  0  0  0  0  0  0
   25.1280   65.2360   12.8860 C   0  0  0  0  0  0  0  0  0  0  0  0
   26.1260   64.4080   12.3490 C   0  0  0  0  0  0  0  0  0  0  0  0
   27.2510   64.9400   11.7020 C   0  0  0  0  0  0  0  0  0  0  0  0
   27.4060   66.3220   11.5790 C   0  0  0  0  0  0  0  0  0  0  0  0
   28.5820   66.9430   10.9010 C   0  0  0  0  0  0  0  0  0  0  0  0
   29.5410   67.3300   11.5660 O   0  0  0  0  0  0  0  0  0  0  0  0
   28.5680   67.1120    9.3930 C   0  0  0  0  0  0  0  0  0  0  0  0
   29.2330   65.9010    8.7210 C   0  0  1  0  0  0  0  0  0  0  0  0
   28.3670   65.2890    7.5900 C   0  0  0  0  0  0  0  0  0  0  0  0
   28.9280   65.4590    6.1630 C   0  0  0  0  0  0  0  0  0  0  0  0
   29.5070   66.8560    5.9270 C   0  0  1  0  0  0  0  0  0  0  0  0
   28.4160   67.7830    6.0440 O   0  0  0  0  0  0  0  0  0  0  0  0
   30.5550   67.2560    6.9840 C   0  0  2  0  0  0  0  0  0  0  0  0
   32.0250   67.1550    6.5900 C   0  0  2  0  0  0  0  0  0  0  0  0
   32.2630   65.8490    6.0380 O   0  0  0  0  0  0  0  0  0  0  0  0
   32.7420   67.2550    7.9560 C   0  0  2  0  0  0  0  0  0  0  0  0
   33.9670   66.5300    7.8720 O   0  0  0  0  0  0  0  0  0  0  0  0
   31.7500   66.6280    8.9720 C   0  0  0  0  0  0  0  0  0  0  0  0
   30.5660   66.2430    8.1250 N   0  0  1  0  0  0  0  0  0  0  0  0
   26.4210   67.1630   12.1040 C   0  0  0  0  0  0  0  0  0  0  0  0
   25.3020   66.6250   12.7480 C   0  0  0  0  0  0  0  0  0  0  0  0
   23.6845   62.7129   14.5029 H   0  0  0  0  0  0  0  0  0  0  0  0
   22.8016   62.9102   12.9511 H   0  0  0  0  0  0  0  0  0  0  0  0
   24.5890   62.7320   12.9511 H   0  0  0  0  0  0  0  0  0  0  0  0
   21.9404   65.6434   13.7984 H   0  0  0  0  0  0  0  0  0  0  0  0
   22.8905   66.1753   12.3697 H   0  0  0  0  0  0  0  0  0  0  0  0
   22.0937   64.5654   12.3697 H   0  0  0  0  0  0  0  0  0  0  0  0
   23.7725   64.1212   15.6993 H   0  0  0  0  0  0  0  0  0  0  0  0
   24.9415   65.4378   15.3432 H   0  0  0  0  0  0  0  0  0  0  0  0
   23.1777   65.7783   15.3432 H   0  0  0  0  0  0  0  0  0  0  0  0
   26.0235   63.3164   12.4376 H   0  0  0  0  0  0  0  0  0  0  0  0
   28.0151   64.2648   11.2894 H   0  0  0  0  0  0  0  0  0  0  0  0
   27.5276   67.1953    9.0457 H   0  0  0  0  0  0  0  0  0  0  0  0
   29.1248   68.0227    9.1271 H   0  0  0  0  0  0  0  0  0  0  0  0
   29.3538   65.1690    9.5331 H   0  0  0  0  0  0  0  0  0  0  0  0
   28.2621   64.2120    7.7876 H   0  0  0  0  0  0  0  0  0  0  0  0
   27.4129   65.8361    7.6083 H   0  0  0  0  0  0  0  0  0  0  0  0
   29.7232   64.7156    6.0050 H   0  0  0  0  0  0  0  0  0  0  0  0
   28.0971   65.3163    5.4564 H   0  0  0  0  0  0  0  0  0  0  0  0
   29.9965   66.8644    4.9419 H   0  0  0  0  0  0  0  0  0  0  0  0
   27.5840   67.2760    5.9550 H   0  0  0  0  0  0  0  0  0  0  0  0
   30.2501   68.2927    7.1897 H   0  0  0  0  0  0  0  0  0  0  0  0
   32.3488   67.9077    5.8562 H   0  0  0  0  0  0  0  0  0  0  0  0
   32.9710   65.9740    5.3650 H   0  0  0  0  0  0  0  0  0  0  0  0
   32.9980   68.2811    8.2584 H   0  0  0  0  0  0  0  0  0  0  0  0
   34.1480   66.3170    6.9360 H   0  0  0  0  0  0  0  0  0  0  0  0
   32.1905   65.7435    9.4553 H   0  0  0  0  0  0  0  0  0  0  0  0
   31.4842   67.3162    9.7880 H   0  0  0  0  0  0  0  0  0  0  0  0
   30.8960   65.3690    7.6710 H   0  0  0  0  0  0  0  0  0  0  0  0
   26.5263   68.2539   12.0102 H   0  0  0  0  0  0  0  0  0  0  0  0
   24.5395   67.3046   13.1565 H   0  0  0  0  0  0  0  0  0  0  0  0
  1  2  1  0
  2  3  1  0
  2  4  1  0
  2  5  1  0
  5  6  2  0
  6  7  1  0
  7  8  2  0
  8  9  1  0
  9 10  2  0
  9 11  1  0
 11 12  1  0
 12 13  1  0
 13 14  1  0
 14 15  1  0
 15 16  1  0
 15 17  1  0
 17 18  1  0
 18 19  1  0
 18 20  1  0
 20 21  1  0
 20 22  1  0
 22 23  1  0
  8 24  1  0
 24 25  2  0
 25  5  1  0
 23 12  1  0
 23 17  1  0
  1 26  1  0
  1 27  1  0
  1 28  1  0
  3 29  1  0
  3 30  1  0
  3 31  1  0
  4 32  1  0
  4 33  1  0
  4 34  1  0
  6 35  1  0
  7 36  1  0
 11 37  1  0
 11 38  1  0
 12 39  1  1
 13 40  1  0
 13 41  1  0
 14 42  1  0
 14 43  1  0
 15 44  1  6
 16 45  1  0
 17 46  1  1
 18 47  1  6
 19 48  1  0
 20 49  1  1
 21 50  1  0
 22 51  1  0
 22 52  1  0
 23 53  1  6
 24 54  1  0
 25 55  1  0
M  CHG  1  23   1
M  END
>  <meeko>  (3) 
{"is_sidechain": [false], "free_energy": -6.741, "intermolecular_energy": -8.911, "internal_energy": -0.844}

$$$$
3ejr_ligand
     RDKit          3D

 55 57  0  0  0  0  0  0  0  0999 V2000
   33.2690   71.4970   13.4990 C   0  0  0  0  0  0  0  0  0  0  0  0
   31.8600   71.8700   14.0110 C   0  0  0  0  0  0  0  0  0  0  0  0
   31.9140   71.8450   15.5540 C   0  0  0  0  0  0  0  0  0  0  0  0
   31.5690   73.3100   13.5360 C   0  0  0  0  0  0  0  0  0  0  0  0
   30.7470   70.9260   13.5170 C   0  0  0  0  0  0  0  0  0  0  0  0
   30.8000   69.5340   13.6850 C   0  0  0  0  0  0  0  0  0  0  0  0
   29.7720   68.6990   13.2250 C   0  0  0  0  0  0  0  0  0  0  0  0
   28.6600   69.2410   12.5780 C   0  0  0  0  0  0  0  0  0  0  0  0
   27.5370   68.4010   12.0680 C   0  0  0  0  0  0  0  0  0  0  0  0
   26.8520   68.7960   11.1270 O   0  0  0  0  0  0  0  0  0  0  0  0
   27.2370   67.0730   12.7380 C   0  0  0  0  0  0  0  0  0  0  0  0
   27.9800   65.9380   12.0130 C   0  0  1  0  0  0  0  0  0  0  0  0
   28.8090   65.0500   12.9770 C   0  0  0  0  0  0  0  0  0  0  0  0
   28.2930   63.6070   13.1520 C   0  0  0  0  0  0  0  0  0  0  0  0
   26.7680   63.5430   13.2740 C   0  0  1  0  0  0  0  0  0  0  0  0
   26.4180   64.2440   14.4770 O   0  0  0  0  0  0  0  0  0  0  0  0
   26.0460   64.2500   12.1100 C   0  0  2  0  0  0  0  0  0  0  0  0
   25.4680   63.3740   11.0040 C   0  0  2  0  0  0  0  0  0  0  0  0
   26.4910   62.4690   10.5540 O   0  0  0  0  0  0  0  0  0  0  0  0
   25.1840   64.4000    9.8830 C   0  0  2  0  0  0  0  0  0  0  0  0
   25.2980   63.7330    8.6270 O   0  0  0  0  0  0  0  0  0  0  0  0
   26.2610   65.5010   10.0700 C   0  0  0  0  0  0  0  0  0  0  0  0
   27.0470   65.0340   11.2660 N   0  0  1  0  0  0  0  0  0  0  0  0
   28.5860   70.6260   12.4040 C   0  0  0  0  0  0  0  0  0  0  0  0
   29.6160   71.4520   12.8660 C   0  0  0  0  0  0  0  0  0  0  0  0
   33.9357   71.3205   14.3560 H   0  0  0  0  0  0  0  0  0  0  0  0
   33.2074   70.5842   12.8882 H   0  0  0  0  0  0  0  0  0  0  0  0
   33.6671   72.3207   12.8882 H   0  0  0  0  0  0  0  0  0  0  0  0
   30.9864   72.2745   15.9604 H   0  0  0  0  0  0  0  0  0  0  0  0
   32.0197   70.8063   15.9004 H   0  0  0  0  0  0  0  0  0  0  0  0
   32.7744   72.4364   15.9004 H   0  0  0  0  0  0  0  0  0  0  0  0
   31.4367   73.9647   14.4100 H   0  0  0  0  0  0  0  0  0  0  0  0
   32.4118   73.6735   12.9298 H   0  0  0  0  0  0  0  0  0  0  0  0
   30.6511   73.3177   12.9298 H   0  0  0  0  0  0  0  0  0  0  0  0
   31.6691   69.0870   14.1898 H   0  0  0  0  0  0  0  0  0  0  0  0
   29.8420   67.6115   13.3746 H   0  0  0  0  0  0  0  0  0  0  0  0
   27.5658   67.1118   13.7870 H   0  0  0  0  0  0  0  0  0  0  0  0
   26.1546   66.8824   12.6930 H   0  0  0  0  0  0  0  0  0  0  0  0
   28.6530   66.4541   11.3125 H   0  0  0  0  0  0  0  0  0  0  0  0
   29.8379   64.9986   12.5915 H   0  0  0  0  0  0  0  0  0  0  0  0
   28.7325   65.5226   13.9674 H   0  0  0  0  0  0  0  0  0  0  0  0
   28.6028   63.0129   12.2796 H   0  0  0  0  0  0  0  0  0  0  0  0
   28.7209   63.2085   14.0837 H   0  0  0  0  0  0  0  0  0  0  0  0
   26.4646   62.4857   13.2707 H   0  0  0  0  0  0  0  0  0  0  0  0
   26.8320   65.1290   14.4370 H   0  0  0  0  0  0  0  0  0  0  0  0
   25.2641   64.7951   12.6591 H   0  0  0  0  0  0  0  0  0  0  0  0
   24.5901   62.7844   11.3067 H   0  0  0  0  0  0  0  0  0  0  0  0
   27.2790   63.0320   10.3780 H   0  0  0  0  0  0  0  0  0  0  0  0
   24.1778   64.8429    9.9195 H   0  0  0  0  0  0  0  0  0  0  0  0
   26.2450   63.6220    8.4100 H   0  0  0  0  0  0  0  0  0  0  0  0
   26.9054   65.5739    9.1815 H   0  0  0  0  0  0  0  0  0  0  0  0
   25.8267   66.5018   10.2104 H   0  0  0  0  0  0  0  0  0  0  0  0
   27.6500   64.2940   10.8570 H   0  0  0  0  0  0  0  0  0  0  0  0
   27.7134   71.0685   11.9012 H   0  0  0  0  0  0  0  0  0  0  0  0
   29.5399   72.5392   12.7167 H   0  0  0  0  0  0  0  0  0  0  0  0
  1  2  1  0
  2  3  1  0
  2  4  1  0
  2  5  1  0
  5  6  2  0
  6  7  1  0
  7  8  2  0
  8  9  1  0
  9 10  2  0
  9 11  1  0
 11 12  1  0
 12 13  1  0
 13 14  1  0
 14 15  1  0
 15 16  1  0
 15 17  1  0
 17 18  1  0
 18 19  1  0
 18 20  1  0
 20 21  1  0
 20 22  1  0
 22 23  1  0
  8 24  1  0
 24 25  2  0
 25  5  1  0
 23 12  1  0
 23 17  1  0
  1 26  1  0
  1 27  1  0
  1 28  1  0
  3 29  1  0
  3 30  1  0
  3 31  1  0
  4 32  1  0
  4 33  1  0
  4 34  1  0
  6 35  1  0
  7 36  1  0
 11 37  1  0
 11 38  1  0
 12 39  1  6
 13 40  1  0
 13 41  1  0
 14 42  1  0
 14 43  1  0
 15 44  1  1
 16 45  1  0
 17 46  1  1
 18 47  1  1
 19 48  1  0
 20 49  1  1
 21 50  1  0
 22 51  1  0
 22 52  1  0
 23 53  1  6
 24 54  1  0
 25 55  1  0
M  CHG  1  23   1
M  END
>  <meeko>  (4) 
{"is_sidechain": [false], "free_energy": -6.729, "intermolecular_energy": -8.943, "internal_energy": -0.797}

$$$$
3ejr_ligand
     RDKit          3D

 55 57  0  0  0  0  0  0  0  0999 V2000
   33.0800   71.9980   13.5000 C   0  0  0  0  0  0  0  0  0  0  0  0
   33.2300   70.6440   14.2290 C   0  0  0  0  0  0  0  0  0  0  0  0
   34.2600   69.8100   13.4360 C   0  0  0  0  0  0  0  0  0  0  0  0
   33.7930   70.9440   15.6360 C   0  0  0  0  0  0  0  0  0  0  0  0
   31.9130   69.8550   14.3560 C   0  0  0  0  0  0  0  0  0  0  0  0
   31.7250   68.8360   15.3030 C   0  0  0  0  0  0  0  0  0  0  0  0
   30.5140   68.1350   15.3960 C   0  0  0  0  0  0  0  0  0  0  0  0
   29.4570   68.4360   14.5360 C   0  0  0  0  0  0  0  0  0  0  0  0
   28.1470   67.7230   14.5890 C   0  0  0  0  0  0  0  0  0  0  0  0
   27.4680   67.7600   15.6140 O   0  0  0  0  0  0  0  0  0  0  0  0
   27.6780   66.9360   13.3800 C   0  0  0  0  0  0  0  0  0  0  0  0
   28.7120   65.8570   13.0210 C   0  0  1  0  0  0  0  0  0  0  0  0
   28.2330   64.4240   13.3710 C   0  0  0  0  0  0  0  0  0  0  0  0
   27.9470   63.5090   12.1620 C   0  0  0  0  0  0  0  0  0  0  0  0
   27.2090   64.2410   11.0380 C   0  0  1  0  0  0  0  0  0  0  0  0
   25.9290   64.6260   11.5630 O   0  0  0  0  0  0  0  0  0  0  0  0
   27.9240   65.5330   10.5960 C   0  0  2  0  0  0  0  0  0  0  0  0
   28.7420   65.4800    9.3110 C   0  0  2  0  0  0  0  0  0  0  0  0
   29.6290   64.3500    9.3780 O   0  0  0  0  0  0  0  0  0  0  0  0
   29.5810   66.7760    9.3970 C   0  0  2  0  0  0  0  0  0  0  0  0
   30.8090   66.5600    8.7040 O   0  0  0  0  0  0  0  0  0  0  0  0
   29.7910   67.0110   10.9170 C   0  0  0  0  0  0  0  0  0  0  0  0
   29.0580   65.8650   11.5620 N   0  0  1  0  0  0  0  0  0  0  0  0
   29.6230   69.4500   13.5880 C   0  0  0  0  0  0  0  0  0  0  0  0
   30.8330   70.1460   13.5020 C   0  0  0  0  0  0  0  0  0  0  0  0
   32.9905   72.8057   14.2414 H   0  0  0  0  0  0  0  0  0  0  0  0
   33.9640   72.1750   12.8698 H   0  0  0  0  0  0  0  0  0  0  0  0
   32.1787   71.9773   12.8698 H   0  0  0  0  0  0  0  0  0  0  0  0
   34.9184   69.2769   14.1377 H   0  0  0  0  0  0  0  0  0  0  0  0
   33.7324   69.0815   12.8028 H   0  0  0  0  0  0  0  0  0  0  0  0
   34.8628   70.4776   12.8028 H   0  0  0  0  0  0  0  0  0  0  0  0
   33.0930   70.5710   16.3982 H   0  0  0  0  0  0  0  0  0  0  0  0
   34.7658   70.4447   15.7558 H   0  0  0  0  0  0  0  0  0  0  0  0
   33.9210   72.0299   15.7558 H   0  0  0  0  0  0  0  0  0  0  0  0
   32.5469   68.5814   15.9883 H   0  0  0  0  0  0  0  0  0  0  0  0
   30.3966   67.3436   16.1509 H   0  0  0  0  0  0  0  0  0  0  0  0
   26.7152   66.4559   13.6091 H   0  0  0  0  0  0  0  0  0  0  0  0
   27.5601   67.6208   12.5272 H   0  0  0  0  0  0  0  0  0  0  0  0
   29.5951   66.1118   13.6253 H   0  0  0  0  0  0  0  0  0  0  0  0
   29.0123   63.9453   13.9823 H   0  0  0  0  0  0  0  0  0  0  0  0
   27.2730   64.5443   13.8944 H   0  0  0  0  0  0  0  0  0  0  0  0
   28.9033   63.1323   11.7700 H   0  0  0  0  0  0  0  0  0  0  0  0
   27.3018   62.6880   12.5079 H   0  0  0  0  0  0  0  0  0  0  0  0
   27.1506   63.5694   10.1688 H   0  0  0  0  0  0  0  0  0  0  0  0
   25.2910   64.6290   10.8220 H   0  0  0  0  0  0  0  0  0  0  0  0
   27.0688   66.2201   10.5157 H   0  0  0  0  0  0  0  0  0  0  0  0
   28.1387   65.3956    8.3951 H   0  0  0  0  0  0  0  0  0  0  0  0
   30.3650   64.5570    8.7580 H   0  0  0  0  0  0  0  0  0  0  0  0
   29.1053   67.6551    8.9379 H   0  0  0  0  0  0  0  0  0  0  0  0
   30.6590   65.9190    7.9830 H   0  0  0  0  0  0  0  0  0  0  0  0
   30.8604   66.9861   11.1733 H   0  0  0  0  0  0  0  0  0  0  0  0
   29.4235   67.9927   11.2505 H   0  0  0  0  0  0  0  0  0  0  0  0
   29.7240   65.0790   11.4330 H   0  0  0  0  0  0  0  0  0  0  0  0
   28.7974   69.7018   12.9060 H   0  0  0  0  0  0  0  0  0  0  0  0
   30.9432   70.9400   12.7487 H   0  0  0  0  0  0  0  0  0  0  0  0
  1  2  1  0
  2  3  1  0
  2  4  1  0
  2  5  1  0
  5  6  2  0
  6  7  1  0
  7  8  2  0
  8  9  1  0
  9 10  2  0
  9 11  1  0
 11 12  1  0
 12 13  1  0
 13 14  1  0
 14 15  1  0
 15 16  1  0
 15 17  1  0
 17 18  1  0
 18 19  1  0
 18 20  1  0
 20 21  1  0
 20 22  1  0
 22 23  1  0
  8 24  1  0
 24 25  2  0
 25  5  1  0
 23 12  1  0
 23 17  1  0
  1 26  1  0
  1 27  1  0
  1 28  1  0
  3 29  1  0
  3 30  1  0
  3 31  1  0
  4 32  1  0
  4 33  1  0
  4 34  1  0
  6 35  1  0
  7 36  1  0
 11 37  1  0
 11 38  1  0
 12 39  1  1
 13 40  1  0
 13 41  1  0
 14 42  1  0
 14 43  1  0
 15 44  1  6
 16 45  1  0
 17 46  1  6
 18 47  1  6
 19 48  1  0
 20 49  1  6
 21 50  1  0
 22 51  1  0
 22 52  1  0
 23 53  1  1
 24 54  1  0
 25 55  1  0
M  CHG  1  23   1
M  END
>  <meeko>  (5) 
{"is_sidechain": [false], "free_energy": -6.626, "intermolecular_energy": -8.597, "internal_energy": -1.006}

$$$$
3ejr_ligand
     RDKit          3D

 55 57  0  0  0  0  0  0  0  0999 V2000
   33.4330   71.3480   15.8310 C   0  0  0  0  0  0  0  0  0  0  0  0
   33.2510   71.4130   14.2980 C   0  0  0  0  0  0  0  0  0  0  0  0
   33.4970   72.8760   13.8710 C   0  0  0  0  0  0  0  0  0  0  0  0
   34.3370   70.5120   13.6710 C   0  0  0  0  0  0  0  0  0  0  0  0
   31.8600   70.9600   13.8160 C   0  0  0  0  0  0  0  0  0  0  0  0
   30.9380   71.8370   13.2240 C   0  0  0  0  0  0  0  0  0  0  0  0
   29.6780   71.3960   12.7940 C   0  0  0  0  0  0  0  0  0  0  0  0
   29.3070   70.0590   12.9510 C   0  0  0  0  0  0  0  0  0  0  0  0
   27.9810   69.5350   12.5120 C   0  0  0  0  0  0  0  0  0  0  0  0
   27.0210   70.2980   12.4140 O   0  0  0  0  0  0  0  0  0  0  0  0
   27.8260   68.0560   12.2140 C   0  0  0  0  0  0  0  0  0  0  0  0
   27.8520   67.8180   10.6960 C   0  0  1  0  0  0  0  0  0  0  0  0
   29.2350   67.3390   10.1850 C   0  0  0  0  0  0  0  0  0  0  0  0
   29.2810   65.8850    9.6710 C   0  0  0  0  0  0  0  0  0  0  0  0
   28.4900   64.9250   10.5640 C   0  0  1  0  0  0  0  0  0  0  0  0
   29.1390   64.9200   11.8450 O   0  0  0  0  0  0  0  0  0  0  0  0
   27.0370   65.3840   10.7950 C   0  0  2  0  0  0  0  0  0  0  0  0
   25.9440   64.6940    9.9850 C   0  0  2  0  0  0  0  0  0  0  0  0
   26.3200   64.7150    8.5970 O   0  0  0  0  0  0  0  0  0  0  0  0
   24.7360   65.6370   10.1870 C   0  0  2  0  0  0  0  0  0  0  0  0
   23.9010   65.5480    9.0340 O   0  0  0  0  0  0  0  0  0  0  0  0
   25.3580   67.0470   10.3620 C   0  0  0  0  0  0  0  0  0  0  0  0
   26.8400   66.8000   10.2630 N   0  0  1  0  0  0  0  0  0  0  0  0
   30.2130   69.1700   13.5350 C   0  0  0  0  0  0  0  0  0  0  0  0
   31.4680   69.6160   13.9610 C   0  0  0  0  0  0  0  0  0  0  0  0
   32.5072   71.6787   16.3245 H   0  0  0  0  0  0  0  0  0  0  0  0
   33.6586   70.3137   16.1299 H   0  0  0  0  0  0  0  0  0  0  0  0
   34.2628   72.0053   16.1299 H   0  0  0  0  0  0  0  0  0  0  0  0
   33.6030   73.5064   14.7662 H   0  0  0  0  0  0  0  0  0  0  0  0
   34.4174   72.9331   13.2713 H   0  0  0  0  0  0  0  0  0  0  0  0
   32.6459   73.2310   13.2713 H   0  0  0  0  0  0  0  0  0  0  0  0
   34.9190   70.0292   14.4699 H   0  0  0  0  0  0  0  0  0  0  0  0
   33.8594   69.7413   13.0482 H   0  0  0  0  0  0  0  0  0  0  0  0
   35.0063   71.1237   13.0482 H   0  0  0  0  0  0  0  0  0  0  0  0
   31.2099   72.8949   13.0942 H   0  0  0  0  0  0  0  0  0  0  0  0
   28.9783   72.1071   12.3306 H   0  0  0  0  0  0  0  0  0  0  0  0
   28.6520   67.5017   12.6834 H   0  0  0  0  0  0  0  0  0  0  0  0
   26.8641   67.7062   12.6170 H   0  0  0  0  0  0  0  0  0  0  0  0
   27.6159   68.8002   10.2605 H   0  0  0  0  0  0  0  0  0  0  0  0
   29.5405   68.0005    9.3609 H   0  0  0  0  0  0  0  0  0  0  0  0
   29.9094   67.3760   11.0533 H   0  0  0  0  0  0  0  0  0  0  0  0
   28.8561   65.8552    8.6568 H   0  0  0  0  0  0  0  0  0  0  0  0
   30.3319   65.5601    9.6774 H   0  0  0  0  0  0  0  0  0  0  0  0
   28.4625   63.9406   10.0738 H   0  0  0  0  0  0  0  0  0  0  0  0
   28.5340   64.4930   12.4840 H   0  0  0  0  0  0  0  0  0  0  0  0
   26.9352   65.1973   11.8743 H   0  0  0  0  0  0  0  0  0  0  0  0
   25.7538   63.6512   10.2788 H   0  0  0  0  0  0  0  0  0  0  0  0
   26.1600   65.6390    8.2970 H   0  0  0  0  0  0  0  0  0  0  0  0
   24.1083   65.3883   11.0554 H   0  0  0  0  0  0  0  0  0  0  0  0
   24.4570   65.3660    8.2520 H   0  0  0  0  0  0  0  0  0  0  0  0
   25.0198   67.7262    9.5656 H   0  0  0  0  0  0  0  0  0  0  0  0
   25.0686   67.5253   11.3094 H   0  0  0  0  0  0  0  0  0  0  0  0
   26.9760   66.6960    9.2380 H   0  0  0  0  0  0  0  0  0  0  0  0
   29.9373   68.1125   13.6605 H   0  0  0  0  0  0  0  0  0  0  0  0
   32.1652   68.8997   14.4202 H   0  0  0  0  0  0  0  0  0  0  0  0
  1  2  1  0
  2  3  1  0
  2  4  1  0
  2  5  1  0
  5  6  2  0
  6  7  1  0
  7  8  2  0
  8  9  1  0
  9 10  2  0
  9 11  1  0
 11 12  1  0
 12 13  1  0
 13 14  1  0
 14 15  1  0
 15 16  1  0
 15 17  1  0
 17 18  1  0
 18 19  1  0
 18 20  1  0
 20 21  1  0
 20 22  1  0
 22 23  1  0
  8 24  1  0
 24 25  2  0
 25  5  1  0
 23 12  1  0
 23 17  1  0
  1 26  1  0
  1 27  1  0
  1 28  1  0
  3 29  1  0
  3 30  1  0
  3 31  1  0
  4 32  1  0
  4 33  1  0
  4 34  1  0
  6 35  1  0
  7 36  1  0
 11 37  1  0
 11 38  1  0
 12 39  1  6
 13 40  1  0
 13 41  1  0
 14 42  1  0
 14 43  1  0
 15 44  1  6
 16 45  1  0
 17 46  1  1
 18 47  1  1
 19 48  1  0
 20 49  1  1
 21 50  1  0
 22 51  1  0
 22 52  1  0
 23 53  1  6
 24 54  1  0
 25 55  1  0
M  CHG  1  23   1
M  END
>  <meeko>  (6) 
{"is_sidechain": [false], "free_energy": -6.555, "intermolecular_energy": -8.62, "internal_energy": -0.89}

$$$$
3ejr_ligand
     RDKit          3D

 55 57  0  0  0  0  0  0  0  0999 V2000
   32.6120   73.4200   14.0530 C   0  0  0  0  0  0  0  0  0  0  0  0
   32.6940   71.8810   14.1610 C   0  0  0  0  0  0  0  0  0  0  0  0
   33.9210   71.4320   13.3370 C   0  0  0  0  0  0  0  0  0  0  0  0
   32.9280   71.5390   15.6480 C   0  0  0  0  0  0  0  0  0  0  0  0
   31.4350   71.1530   13.6530 C   0  0  0  0  0  0  0  0  0  0  0  0
   30.3650   71.8220   13.0380 C   0  0  0  0  0  0  0  0  0  0  0  0
   29.2320   71.1330   12.5860 C   0  0  0  0  0  0  0  0  0  0  0  0
   29.1380   69.7480   12.7420 C   0  0  0  0  0  0  0  0  0  0  0  0
   27.9560   68.9640   12.2800 C   0  0  0  0  0  0  0  0  0  0  0  0
   26.8260   69.4350   12.3880 O   0  0  0  0  0  0  0  0  0  0  0  0
   28.1630   67.5770   11.7010 C   0  0  0  0  0  0  0  0  0  0  0  0
   26.8780   66.7470   11.8480 C   0  0  1  0  0  0  0  0  0  0  0  0
   26.4530   66.0540   10.5280 C   0  0  0  0  0  0  0  0  0  0  0  0
   26.5700   64.5160   10.5220 C   0  0  0  0  0  0  0  0  0  0  0  0
   27.8570   64.0260   11.1900 C   0  0  1  0  0  0  0  0  0  0  0  0
   28.9490   64.5150   10.3970 O   0  0  0  0  0  0  0  0  0  0  0  0
   28.0430   64.5880   12.6130 C   0  0  2  0  0  0  0  0  0  0  0  0
   27.7090   63.6690   13.7830 C   0  0  2  0  0  0  0  0  0  0  0  0
   26.3980   63.1160   13.5710 O   0  0  0  0  0  0  0  0  0  0  0  0
   27.6460   64.6540   14.9720 C   0  0  2  0  0  0  0  0  0  0  0  0
   26.7290   64.1370   15.9330 O   0  0  0  0  0  0  0  0  0  0  0  0
   27.1650   65.9930   14.3530 C   0  0  0  0  0  0  0  0  0  0  0  0
   27.0090   65.6760   12.8890 N   0  0  1  0  0  0  0  0  0  0  0  0
   30.1940   69.0630   13.3490 C   0  0  0  0  0  0  0  0  0  0  0  0
   31.3230   69.7570   13.7980 C   0  0  0  0  0  0  0  0  0  0  0  0
   32.5887   73.8576   15.0619 H   0  0  0  0  0  0  0  0  0  0  0  0
   33.4913   73.7968   13.5101 H   0  0  0  0  0  0  0  0  0  0  0  0
   31.6976   73.7013   13.5101 H   0  0  0  0  0  0  0  0  0  0  0  0
   34.7318   71.1353   14.0186 H   0  0  0  0  0  0  0  0  0  0  0  0
   33.6438   70.5770   12.7028 H   0  0  0  0  0  0  0  0  0  0  0  0
   34.2611   72.2639   12.7028 H   0  0  0  0  0  0  0  0  0  0  0  0
   32.4194   72.2823   16.2796 H   0  0  0  0  0  0  0  0  0  0  0  0
   32.5244   70.5383   15.8620 H   0  0  0  0  0  0  0  0  0  0  0  0
   34.0069   71.5527   15.8620 H   0  0  0  0  0  0  0  0  0  0  0  0
   30.4174   72.9130   12.9079 H   0  0  0  0  0  0  0  0  0  0  0  0
   28.4115   71.6860   12.1054 H   0  0  0  0  0  0  0  0  0  0  0  0
   28.4212   67.6624   10.6351 H   0  0  0  0  0  0  0  0  0  0  0  0
   28.9786   67.0777   12.2445 H   0  0  0  0  0  0  0  0  0  0  0  0
   26.1129   67.4790   12.1459 H   0  0  0  0  0  0  0  0  0  0  0  0
   25.4030   66.3154   10.3300 H   0  0  0  0  0  0  0  0  0  0  0  0
   27.1506   66.4145    9.7576 H   0  0  0  0  0  0  0  0  0  0  0  0
   25.7092   64.0942   11.0616 H   0  0  0  0  0  0  0  0  0  0  0  0
   26.5897   64.1853    9.4731 H   0  0  0  0  0  0  0  0  0  0  0  0
   27.8136   62.9291   11.2602 H   0  0  0  0  0  0  0  0  0  0  0  0
   28.7040   64.4100    9.4560 H   0  0  0  0  0  0  0  0  0  0  0  0
   29.1098   64.8548   12.5869 H   0  0  0  0  0  0  0  0  0  0  0  0
   28.4188   62.8405   13.9236 H   0  0  0  0  0  0  0  0  0  0  0  0
   26.5440   62.2830   13.0660 H   0  0  0  0  0  0  0  0  0  0  0  0
   28.6049   64.7981   15.4913 H   0  0  0  0  0  0  0  0  0  0  0  0
   26.8770   64.5850   16.7890 H   0  0  0  0  0  0  0  0  0  0  0  0
   26.2053   66.3049   14.7909 H   0  0  0  0  0  0  0  0  0  0  0  0
   27.8641   66.8222   14.5367 H   0  0  0  0  0  0  0  0  0  0  0  0
   26.1060   65.1630   12.8710 H   0  0  0  0  0  0  0  0  0  0  0  0
   30.1373   67.9717   13.4746 H   0  0  0  0  0  0  0  0  0  0  0  0
   32.1420   69.1990   14.2753 H   0  0  0  0  0  0  0  0  0  0  0  0
  1  2  1  0
  2  3  1  0
  2  4  1  0
  2  5  1  0
  5  6  2  0
  6  7  1  0
  7  8  2  0
  8  9  1  0
  9 10  2  0
  9 11  1  0
 11 12  1  0
 12 13  1  0
 13 14  1  0
 14 15  1  0
 15 16  1  0
 15 17  1  0
 17 18  1  0
 18 19  1  0
 18 20  1  0
 20 21  1  0
 20 22  1  0
 22 23  1  0
  8 24  1  0
 24 25  2  0
 25  5  1  0
 23 12  1  0
 23 17  1  0
  1 26  1  0
  1 27  1  0
  1 28  1  0
  3 29  1  0
  3 30  1  0
  3 31  1  0
  4 32  1  0
  4 33  1  0
  4 34  1  0
  6 35  1  0
  7 36  1  0
 11 37  1  0
 11 38  1  0
 12 39  1  1
 13 40  1  0
 13 41  1  0
 14 42  1  0
 14 43  1  0
 15 44  1  1
 16 45  1  0
 17 46  1  1
 18 47  1  1
 19 48  1  0
 20 49  1  1
 21 50  1  0
 22 51  1  0
 22 52  1  0
 23 53  1  1
 24 54  1  0
 25 55  1  0
M  CHG  1  23   1
M  END
>  <meeko>  (7) 
{"is_sidechain": [false], "free_energy": -6.524, "intermolecular_energy": -8.69, "internal_energy": -0.778}

$$$$
3ejr_ligand
     RDKit          3D

 55 57  0  0  0  0  0  0  0  0999 V2000
   34.3610   72.5520   13.7930 C   0  0  0  0  0  0  0  0  0  0  0  0
   33.0040   72.8070   14.4870 C   0  0  0  0  0  0  0  0  0  0  0  0
   33.2310   72.6420   16.0050 C   0  0  0  0  0  0  0  0  0  0  0  0
   32.6070   74.2690   14.1880 C   0  0  0  0  0  0  0  0  0  0  0  0
   31.8800   71.8610   14.0250 C   0  0  0  0  0  0  0  0  0  0  0  0
   31.8690   70.4890   14.3260 C   0  0  0  0  0  0  0  0  0  0  0  0
   30.8330   69.6510   13.8920 C   0  0  0  0  0  0  0  0  0  0  0  0
   29.7760   70.1680   13.1400 C   0  0  0  0  0  0  0  0  0  0  0  0
   28.6460   69.3230   12.6520 C   0  0  0  0  0  0  0  0  0  0  0  0
   27.5470   69.8310   12.4390 O   0  0  0  0  0  0  0  0  0  0  0  0
   28.8640   67.8350   12.4480 C   0  0  0  0  0  0  0  0  0  0  0  0
   27.7740   67.2650   11.5260 C   0  0  1  0  0  0  0  0  0  0  0  0
   28.1570   67.3380   10.0250 C   0  0  0  0  0  0  0  0  0  0  0  0
   28.4120   65.9790    9.3420 C   0  0  0  0  0  0  0  0  0  0  0  0
   29.2170   65.0240   10.2270 C   0  0  1  0  0  0  0  0  0  0  0  0
   30.5070   65.6250   10.4210 O   0  0  0  0  0  0  0  0  0  0  0  0
   28.5920   64.8320   11.6220 C   0  0  2  0  0  0  0  0  0  0  0  0
   27.7990   63.5520   11.8690 C   0  0  2  0  0  0  0  0  0  0  0  0
   26.8450   63.3930   10.8050 O   0  0  0  0  0  0  0  0  0  0  0  0
   27.0390   63.8790   13.1740 C   0  0  2  0  0  0  0  0  0  0  0  0
   25.8160   63.1460   13.1750 O   0  0  0  0  0  0  0  0  0  0  0  0
   26.8120   65.4130   13.1280 C   0  0  0  0  0  0  0  0  0  0  0  0
   27.4600   65.8330   11.8350 N   0  0  1  0  0  0  0  0  0  0  0  0
   29.7660   71.5310   12.8330 C   0  0  0  0  0  0  0  0  0  0  0  0
   30.8040   72.3620   13.2690 C   0  0  0  0  0  0  0  0  0  0  0  0
   35.1407   72.4055   14.5550 H   0  0  0  0  0  0  0  0  0  0  0  0
   34.2882   71.6518   13.1650 H   0  0  0  0  0  0  0  0  0  0  0  0
   34.6200   73.4172   13.1650 H   0  0  0  0  0  0  0  0  0  0  0  0
   32.4600   73.2024   16.5541 H   0  0  0  0  0  0  0  0  0  0  0  0
   33.1693   71.5765   16.2713 H   0  0  0  0  0  0  0  0  0  0  0  0
   34.2255   73.0295   16.2713 H   0  0  0  0  0  0  0  0  0  0  0  0
   32.4601   74.8099   15.1345 H   0  0  0  0  0  0  0  0  0  0  0  0
   33.4058   74.7546   13.6083 H   0  0  0  0  0  0  0  0  0  0  0  0
   31.6723   74.2839   13.6083 H   0  0  0  0  0  0  0  0  0  0  0  0
   32.6932   70.0622   14.9164 H   0  0  0  0  0  0  0  0  0  0  0  0
   30.8525   68.5807   14.1450 H   0  0  0  0  0  0  0  0  0  0  0  0
   29.8507   67.6709   11.9902 H   0  0  0  0  0  0  0  0  0  0  0  0
   28.8151   67.3262   13.4220 H   0  0  0  0  0  0  0  0  0  0  0  0
   26.8951   67.8984   11.7166 H   0  0  0  0  0  0  0  0  0  0  0  0
   27.3372   67.8388    9.4893 H   0  0  0  0  0  0  0  0  0  0  0  0
   29.1111   67.8837    9.9812 H   0  0  0  0  0  0  0  0  0  0  0  0
   27.4431   65.5131    9.1093 H   0  0  0  0  0  0  0  0  0  0  0  0
   28.9981   66.1662    8.4302 H   0  0  0  0  0  0  0  0  0  0  0  0
   29.2527   64.0422    9.7323 H   0  0  0  0  0  0  0  0  0  0  0  0
   30.7720   66.0400    9.5770 H   0  0  0  0  0  0  0  0  0  0  0  0
   29.4893   64.8931   12.2553 H   0  0  0  0  0  0  0  0  0  0  0  0
   28.4144   62.6420   11.9245 H   0  0  0  0  0  0  0  0  0  0  0  0
   26.7360   64.2890   10.4140 H   0  0  0  0  0  0  0  0  0  0  0  0
   27.5775   63.6024   14.0924 H   0  0  0  0  0  0  0  0  0  0  0  0
   25.1830   63.5810   12.5710 H   0  0  0  0  0  0  0  0  0  0  0  0
   25.7379   65.6503   13.1233 H   0  0  0  0  0  0  0  0  0  0  0  0
   27.2317   65.9317   14.0025 H   0  0  0  0  0  0  0  0  0  0  0  0
   26.7500   65.5490   11.1320 H   0  0  0  0  0  0  0  0  0  0  0  0
   28.9375   71.9532   12.2453 H   0  0  0  0  0  0  0  0  0  0  0  0
   30.7783   73.4319   13.0148 H   0  0  0  0  0  0  0  0  0  0  0  0
  1  2  1  0
  2  3  1  0
  2  4  1  0
  2  5  1  0
  5  6  2  0
  6  7  1  0
  7  8  2  0
  8  9  1  0
  9 10  2  0
  9 11  1  0
 11 12  1  0
 12 13  1  0
 13 14  1  0
 14 15  1  0
 15 16  1  0
 15 17  1  0
 17 18  1  0
 18 19  1  0
 18 20  1  0
 20 21  1  0
 20 22  1  0
 22 23  1  0
  8 24  1  0
 24 25  2  0
 25  5  1  0
 23 12  1  0
 23 17  1  0
  1 26  1  0
  1 27  1  0
  1 28  1  0
  3 29  1  0
  3 30  1  0
  3 31  1  0
  4 32  1  0
  4 33  1  0
  4 34  1  0
  6 35  1  0
  7 36  1  0
 11 37  1  0
 11 38  1  0
 12 39  1  6
 13 40  1  0
 13 41  1  0
 14 42  1  0
 14 43  1  0
 15 44  1  6
 16 45  1  0
 17 46  1  1
 18 47  1  1
 19 48  1  0
 20 49  1  1
 21 50  1  0
 22 51  1  0
 22 52  1  0
 23 53  1  6
 24 54  1  0
 25 55  1  0
M  CHG  1  23   1
M  END
>  <meeko>  (8) 
{"is_sidechain": [false], "free_energy": -6.465, "intermolecular_energy": -8.708, "internal_energy": -0.683}

$$$$
3ejr_ligand
     RDKit          3D

 55 57  0  0  0  0  0  0  0  0999 V2000
   29.7160   65.1220    6.0670 C   0  0  0  0  0  0  0  0  0  0  0  0
   29.2330   66.3220    6.9110 C   0  0  0  0  0  0  0  0  0  0  0  0
   30.4880   66.9960    7.5070 C   0  0  0  0  0  0  0  0  0  0  0  0
   28.5370   67.3070    5.9460 C   0  0  0  0  0  0  0  0  0  0  0  0
   28.2650   65.9370    8.0450 C   0  0  0  0  0  0  0  0  0  0  0  0
   28.6970   65.6480    9.3490 C   0  0  0  0  0  0  0  0  0  0  0  0
   27.7930   65.3000   10.3620 C   0  0  0  0  0  0  0  0  0  0  0  0
   26.4250   65.2300   10.0930 C   0  0  0  0  0  0  0  0  0  0  0  0
   25.4170   64.8650   11.1320 C   0  0  0  0  0  0  0  0  0  0  0  0
   24.2270   64.7910   10.8340 O   0  0  0  0  0  0  0  0  0  0  0  0
   25.8750   64.6120   12.5560 C   0  0  0  0  0  0  0  0  0  0  0  0
   25.3210   65.7020   13.4880 C   0  0  1  0  0  0  0  0  0  0  0  0
   24.6980   65.1240   14.7850 C   0  0  0  0  0  0  0  0  0  0  0  0
   25.4680   65.4380   16.0850 C   0  0  0  0  0  0  0  0  0  0  0  0
   26.9840   65.3020   15.9110 C   0  0  1  0  0  0  0  0  0  0  0  0
   27.2450   63.9220   15.6120 O   0  0  0  0  0  0  0  0  0  0  0  0
   27.5270   66.1320   14.7330 C   0  0  2  0  0  0  0  0  0  0  0  0
   28.2130   67.4540   15.0600 C   0  0  2  0  0  0  0  0  0  0  0  0
   27.3520   68.2150   15.9250 O   0  0  0  0  0  0  0  0  0  0  0  0
   28.2710   68.1490   13.6800 C   0  0  2  0  0  0  0  0  0  0  0  0
   28.2330   69.5590   13.8880 O   0  0  0  0  0  0  0  0  0  0  0  0
   27.0220   67.6280   12.9210 C   0  0  0  0  0  0  0  0  0  0  0  0
   26.3740   66.6860   13.9010 N   0  0  1  0  0  0  0  0  0  0  0  0
   25.9730   65.5170    8.8020 C   0  0  0  0  0  0  0  0  0  0  0  0
   26.8820   65.8640    7.7960 C   0  0  0  0  0  0  0  0  0  0  0  0
   30.0423   64.3114    6.7352 H   0  0  0  0  0  0  0  0  0  0  0  0
   28.8917   64.7646    5.4324 H   0  0  0  0  0  0  0  0  0  0  0  0
   30.5580   65.4353    5.4324 H   0  0  0  0  0  0  0  0  0  0  0  0
   30.4334   66.9667    8.6052 H   0  0  0  0  0  0  0  0  0  0  0  0
   31.3873   66.4595    7.1702 H   0  0  0  0  0  0  0  0  0  0  0  0
   30.5374   68.0420    7.1702 H   0  0  0  0  0  0  0  0  0  0  0  0
   27.9979   68.0700    6.5267 H   0  0  0  0  0  0  0  0  0  0  0  0
   29.2922   67.7945    5.3120 H   0  0  0  0  0  0  0  0  0  0  0  0
   27.8252   66.7580    5.3120 H   0  0  0  0  0  0  0  0  0  0  0  0
   29.7711   65.6958    9.5815 H   0  0  0  0  0  0  0  0  0  0  0  0
   28.1634   65.0809   11.3743 H   0  0  0  0  0  0  0  0  0  0  0  0
   25.5089   63.6290   12.8872 H   0  0  0  0  0  0  0  0  0  0  0  0
   26.9743   64.6318   12.5906 H   0  0  0  0  0  0  0  0  0  0  0  0
   24.5431   66.2027   12.8928 H   0  0  0  0  0  0  0  0  0  0  0  0
   23.6818   65.5330   14.8851 H   0  0  0  0  0  0  0  0  0  0  0  0
   24.7247   64.0300   14.6731 H   0  0  0  0  0  0  0  0  0  0  0  0
   25.2384   66.4691   16.3917 H   0  0  0  0  0  0  0  0  0  0  0  0
   25.1506   64.7115   16.8475 H   0  0  0  0  0  0  0  0  0  0  0  0
   27.4710   65.6586   16.8306 H   0  0  0  0  0  0  0  0  0  0  0  0
   27.8110   63.5650   16.3250 H   0  0  0  0  0  0  0  0  0  0  0  0
   28.2176   65.4071   14.2775 H   0  0  0  0  0  0  0  0  0  0  0  0
   29.1921   67.3459   15.5496 H   0  0  0  0  0  0  0  0  0  0  0  0
   27.9360   68.5570   16.6400 H   0  0  0  0  0  0  0  0  0  0  0  0
   29.1832   67.9352   13.1036 H   0  0  0  0  0  0  0  0  0  0  0  0
   28.0810   70.0040   13.0310 H   0  0  0  0  0  0  0  0  0  0  0  0
   26.3442   68.4562   12.6666 H   0  0  0  0  0  0  0  0  0  0  0  0
   27.2755   67.1419   11.9673 H   0  0  0  0  0  0  0  0  0  0  0  0
   25.8980   67.3410   14.5520 H   0  0  0  0  0  0  0  0  0  0  0  0
   24.8976   65.4699    8.5755 H   0  0  0  0  0  0  0  0  0  0  0  0
   26.5062   66.0850    6.7861 H   0  0  0  0  0  0  0  0  0  0  0  0
  1  2  1  0
  2  3  1  0
  2  4  1  0
  2  5  1  0
  5  6  2  0
  6  7  1  0
  7  8  2  0
  8  9  1  0
  9 10  2  0
  9 11  1  0
 11 12  1  0
 12 13  1  0
 13 14  1  0
 14 15  1  0
 15 16  1  0
 15 17  1  0
 17 18  1  0
 18 19  1  0
 18 20  1  0
 20 21  1  0
 20 22  1  0
 22 23  1  0
  8 24  1  0
 24 25  2  0
 25  5  1  0
 23 12  1  0
 23 17  1  0
  1 26  1  0
  1 27  1  0
  1 28  1  0
  3 29  1  0
  3 30  1  0
  3 31  1  0
  4 32  1  0
  4 33  1  0
  4 34  1  0
  6 35  1  0
  7 36  1  0
 11 37  1  0
 11 38  1  0
 12 39  1  6
 13 40  1  0
 13 41  1  0
 14 42  1  0
 14 43  1  0
 15 44  1  1
 16 45  1  0
 17 46  1  6
 18 47  1  1
 19 48  1  0
 20 49  1  6
 21 50  1  0
 22 51  1  0
 22 52  1  0
 23 53  1  1
 24 54  1  0
 25 55  1  0
M  CHG  1  23   1
M  END
>  <meeko>  (9) 
{"is_sidechain": [false], "free_energy": -6.359, "intermolecular_energy": -8.381, "internal_energy": -0.87}

$$$$
