2v00_ligand
     RDKit          3D

 29 30  0  0  0  0  0  0  0  0999 V2000
    2.0360    5.2660    9.2360 N   0  0  0  0  0  0  0  0  0  0  0  0
    0.7050    5.2100    9.4860 C   0  0  0  0  0  0  0  0  0  0  0  0
    0.2030    4.2110   10.1380 N   0  0  0  0  0  0  0  0  0  0  0  0
   -1.1540    4.2080   10.3680 C   0  0  0  0  0  0  0  0  0  0  0  0
   -1.6800    3.0290   11.1530 C   0  0  0  0  0  0  0  0  0  0  0  0
   -3.2010    3.0930   11.3310 C   0  0  0  0  0  0  0  0  0  0  0  0
   -3.8420    1.7430   11.1180 C   0  0  0  0  0  0  0  0  0  0  0  0
   -3.0490    0.5980   10.9630 C   0  0  0  0  0  0  0  0  0  0  0  0
   -3.6420   -0.6530   10.7850 C   0  0  0  0  0  0  0  0  0  0  0  0
   -5.0300   -0.7720   10.7660 C   0  0  0  0  0  0  0  0  0  0  0  0
   -5.8280    0.3600   10.9250 C   0  0  0  0  0  0  0  0  0  0  0  0
   -5.2380    1.6130   11.1030 C   0  0  0  0  0  0  0  0  0  0  0  0
   -1.9770    5.1810    9.9520 C   0  0  0  0  0  0  0  0  0  0  0  0
   -1.3980    6.2990    9.1970 C   0  0  0  0  0  0  0  0  0  0  0  0
   -2.0950    7.2030    8.7530 O   0  0  0  0  0  0  0  0  0  0  0  0
   -0.0480    6.2470    9.0300 N   0  0  0  0  0  0  0  0  0  0  0  0
    2.5020    6.1170    9.5180 H   0  0  0  0  0  0  0  0  0  0  0  0
    2.5080    4.4360    9.5810 H   0  0  0  0  0  0  0  0  0  0  0  0
   -1.4233    2.1027   10.6181 H   0  0  0  0  0  0  0  0  0  0  0  0
   -1.2189    3.0515   12.1514 H   0  0  0  0  0  0  0  0  0  0  0  0
   -3.4270    3.4388   12.3505 H   0  0  0  0  0  0  0  0  0  0  0  0
   -3.6064    3.7888   10.5817 H   0  0  0  0  0  0  0  0  0  0  0  0
   -1.9527    0.6856   10.9817 H   0  0  0  0  0  0  0  0  0  0  0  0
   -3.0125   -1.5463   10.6595 H   0  0  0  0  0  0  0  0  0  0  0  0
   -5.4959   -1.7585   10.6256 H   0  0  0  0  0  0  0  0  0  0  0  0
   -6.9239    0.2660   10.9102 H   0  0  0  0  0  0  0  0  0  0  0  0
   -5.8717    2.5028   11.2321 H   0  0  0  0  0  0  0  0  0  0  0  0
   -3.0545    5.1428   10.1700 H   0  0  0  0  0  0  0  0  0  0  0  0
    0.3670    6.9780    8.4780 H   0  0  0  0  0  0  0  0  0  0  0  0
  1  2  1  0
  2  3  2  0
  3  4  1  0
  4  5  1  0
  5  6  1  0
  6  7  1  0
  7  8  2  0
  8  9  1  0
  9 10  2  0
 10 11  1  0
 11 12  2  0
  4 13  2  0
 13 14  1  0
 14 15  2  0
 14 16  1  0
 16  2  1  0
 12  7  1  0
  1 17  1  0
  1 18  1  0
  5 19  1  0
  5 20  1  0
  6 21  1  0
  6 22  1  0
  8 23  1  0
  9 24  1  0
 10 25  1  0
 11 26  1  0
 12 27  1  0
 13 28  1  0
 16 29  1  0
M  END
>  <meeko>  (1) 
{"is_sidechain": [false], "free_energy": -7.703, "intermolecular_energy": -9.279, "internal_energy": -0.367}

$$$$
2v00_ligand
     RDKit          3D

 29 30  0  0  0  0  0  0  0  0999 V2000
   -2.0910    6.4580    7.2050 N   0  0  0  0  0  0  0  0  0  0  0  0
   -1.5630    5.7840    8.2560 C   0  0  0  0  0  0  0  0  0  0  0  0
   -2.3340    5.1540    9.0830 N   0  0  0  0  0  0  0  0  0  0  0  0
   -1.7440    4.4830   10.1290 C   0  0  0  0  0  0  0  0  0  0  0  0
   -2.6910    3.7470   11.0480 C   0  0  0  0  0  0  0  0  0  0  0  0
   -2.1400    2.3780   11.4620 C   0  0  0  0  0  0  0  0  0  0  0  0
   -3.1370    1.2750   11.2000 C   0  0  0  0  0  0  0  0  0  0  0  0
   -2.7300   -0.0650   11.2130 C   0  0  0  0  0  0  0  0  0  0  0  0
   -3.6560   -1.0860   10.9900 C   0  0  0  0  0  0  0  0  0  0  0  0
   -4.9950   -0.7770   10.7580 C   0  0  0  0  0  0  0  0  0  0  0  0
   -5.4100    0.5530   10.7490 C   0  0  0  0  0  0  0  0  0  0  0  0
   -4.4870    1.5760   10.9710 C   0  0  0  0  0  0  0  0  0  0  0  0
   -0.4200    4.4500   10.3350 C   0  0  0  0  0  0  0  0  0  0  0  0
    0.4410    5.1840    9.4000 C   0  0  0  0  0  0  0  0  0  0  0  0
    1.6570    5.2300    9.5480 O   0  0  0  0  0  0  0  0  0  0  0  0
   -0.2090    5.8030    8.3770 N   0  0  0  0  0  0  0  0  0  0  0  0
   -2.9750    6.9180    7.3740 H   0  0  0  0  0  0  0  0  0  0  0  0
   -1.4050    7.0810    6.7890 H   0  0  0  0  0  0  0  0  0  0  0  0
   -2.8521    4.3532   11.9516 H   0  0  0  0  0  0  0  0  0  0  0  0
   -3.6338    3.5842   10.5053 H   0  0  0  0  0  0  0  0  0  0  0  0
   -1.2234    2.1741   10.8891 H   0  0  0  0  0  0  0  0  0  0  0  0
   -1.9311    2.4035   12.5417 H   0  0  0  0  0  0  0  0  0  0  0  0
   -1.6751   -0.3145   11.3999 H   0  0  0  0  0  0  0  0  0  0  0  0
   -3.3281   -2.1360   10.9975 H   0  0  0  0  0  0  0  0  0  0  0  0
   -5.7234   -1.5823   10.5822 H   0  0  0  0  0  0  0  0  0  0  0  0
   -6.4669    0.7972   10.5666 H   0  0  0  0  0  0  0  0  0  0  0  0
   -4.8205    2.6242   10.9663 H   0  0  0  0  0  0  0  0  0  0  0  0
    0.0083    3.8898   11.1792 H   0  0  0  0  0  0  0  0  0  0  0  0
    0.3550    6.3500    7.7500 H   0  0  0  0  0  0  0  0  0  0  0  0
  1  2  1  0
  2  3  2  0
  3  4  1  0
  4  5  1  0
  5  6  1  0
  6  7  1  0
  7  8  2  0
  8  9  1  0
  9 10  2  0
 10 11  1  0
 11 12  2  0
  4 13  2  0
 13 14  1  0
 14 15  2  0
 14 16  1  0
 16  2  1  0
 12  7  1  0
  1 17  1  0
  1 18  1  0
  5 19  1  0
  5 20  1  0
  6 21  1  0
  6 22  1  0
  8 23  1  0
  9 24  1  0
 10 25  1  0
 11 26  1  0
 12 27  1  0
 13 28  1  0
 16 29  1  0
M  END
>  <meeko>  (2) 
{"is_sidechain": [false], "free_energy": -7.21, "intermolecular_energy": -8.693, "internal_energy": -0.359}

$$$$
2v00_ligand
     RDKit          3D

 29 30  0  0  0  0  0  0  0  0999 V2000
   -6.6000    2.3040   11.4120 N   0  0  0  0  0  0  0  0  0  0  0  0
   -5.3850    1.8150   11.0620 C   0  0  0  0  0  0  0  0  0  0  0  0
   -4.3060    2.3190   11.5690 N   0  0  0  0  0  0  0  0  0  0  0  0
   -3.1000    1.7790   11.1810 C   0  0  0  0  0  0  0  0  0  0  0  0
   -1.8770    2.3910   11.8230 C   0  0  0  0  0  0  0  0  0  0  0  0
   -0.7900    2.7120   10.7910 C   0  0  0  0  0  0  0  0  0  0  0  0
   -0.8400    4.1590   10.3620 C   0  0  0  0  0  0  0  0  0  0  0  0
    0.3280    4.9320   10.3400 C   0  0  0  0  0  0  0  0  0  0  0  0
    0.2850    6.2640    9.9240 C   0  0  0  0  0  0  0  0  0  0  0  0
   -0.9220    6.8330    9.5240 C   0  0  0  0  0  0  0  0  0  0  0  0
   -2.0890    6.0700    9.5370 C   0  0  0  0  0  0  0  0  0  0  0  0
   -2.0490    4.7370    9.9520 C   0  0  0  0  0  0  0  0  0  0  0  0
   -2.9880    0.7670   10.3090 C   0  0  0  0  0  0  0  0  0  0  0  0
   -4.2190    0.2190    9.7270 C   0  0  0  0  0  0  0  0  0  0  0  0
   -4.1900   -0.6800    8.8950 O   0  0  0  0  0  0  0  0  0  0  0  0
   -5.3730    0.7840   10.1750 N   0  0  0  0  0  0  0  0  0  0  0  0
   -6.8300    2.2520   12.3940 H   0  0  0  0  0  0  0  0  0  0  0  0
   -6.7420    3.2350   11.0320 H   0  0  0  0  0  0  0  0  0  0  0  0
   -2.1702    3.3212   12.3318 H   0  0  0  0  0  0  0  0  0  0  0  0
   -1.4653    1.6618   12.5363 H   0  0  0  0  0  0  0  0  0  0  0  0
    0.1952    2.5050   11.2343 H   0  0  0  0  0  0  0  0  0  0  0  0
   -0.9618    2.0843    9.9041 H   0  0  0  0  0  0  0  0  0  0  0  0
    1.2843    4.4871   10.6522 H   0  0  0  0  0  0  0  0  0  0  0  0
    1.2060    6.8654    9.9121 H   0  0  0  0  0  0  0  0  0  0  0  0
   -0.9544    7.8832    9.1982 H   0  0  0  0  0  0  0  0  0  0  0  0
   -3.0422    6.5184    9.2201 H   0  0  0  0  0  0  0  0  0  0  0  0
   -2.9714    4.1377    9.9570 H   0  0  0  0  0  0  0  0  0  0  0  0
   -2.0030    0.3594   10.0377 H   0  0  0  0  0  0  0  0  0  0  0  0
   -6.2270    0.4560    9.7580 H   0  0  0  0  0  0  0  0  0  0  0  0
  1  2  1  0
  2  3  2  0
  3  4  1  0
  4  5  1  0
  5  6  1  0
  6  7  1  0
  7  8  2  0
  8  9  1  0
  9 10  2  0
 10 11  1  0
 11 12  2  0
  4 13  2  0
 13 14  1  0
 14 15  2  0
 14 16  1  0
 16  2  1  0
 12  7  1  0
  1 17  1  0
  1 18  1  0
  5 19  1  0
  5 20  1  0
  6 21  1  0
  6 22  1  0
  8 23  1  0
  9 24  1  0
 10 25  1  0
 11 26  1  0
 12 27  1  0
 13 28  1  0
 16 29  1  0
M  END
>  <meeko>  (3) 
{"is_sidechain": [false], "free_energy": -7.003, "intermolecular_energy": -8.499, "internal_energy": -0.304}

$$$$
2v00_ligand
     RDKit          3D

 29 30  0  0  0  0  0  0  0  0999 V2000
   -1.6110    0.1130    6.8960 N   0  0  0  0  0  0  0  0  0  0  0  0
   -2.8690    0.4140    7.3010 C   0  0  0  0  0  0  0  0  0  0  0  0
   -3.1930    0.3250    8.5510 N   0  0  0  0  0  0  0  0  0  0  0  0
   -4.4820    0.6480    8.9070 C   0  0  0  0  0  0  0  0  0  0  0  0
   -4.7960    0.5470   10.3810 C   0  0  0  0  0  0  0  0  0  0  0  0
   -4.6980    1.9070   11.0810 C   0  0  0  0  0  0  0  0  0  0  0  0
   -3.2870    2.4450   11.0530 C   0  0  0  0  0  0  0  0  0  0  0  0
   -2.2660    1.7940   11.7570 C   0  0  0  0  0  0  0  0  0  0  0  0
   -0.9580    2.2800   11.7150 C   0  0  0  0  0  0  0  0  0  0  0  0
   -0.6590    3.4170   10.9670 C   0  0  0  0  0  0  0  0  0  0  0  0
   -1.6670    4.0690   10.2590 C   0  0  0  0  0  0  0  0  0  0  0  0
   -2.9760    3.5850   10.2990 C   0  0  0  0  0  0  0  0  0  0  0  0
   -5.4150    1.0460    8.0290 C   0  0  0  0  0  0  0  0  0  0  0  0
   -5.0390    1.1240    6.6130 C   0  0  0  0  0  0  0  0  0  0  0  0
   -5.8490    1.4440    5.7500 O   0  0  0  0  0  0  0  0  0  0  0  0
   -3.7420    0.8150    6.3390 N   0  0  0  0  0  0  0  0  0  0  0  0
   -1.5230   -0.6970    6.2970 H   0  0  0  0  0  0  0  0  0  0  0  0
   -1.1460    0.9290    6.5110 H   0  0  0  0  0  0  0  0  0  0  0  0
   -5.8179    0.1581   10.5010 H   0  0  0  0  0  0  0  0  0  0  0  0
   -4.0585   -0.1271   10.8411 H   0  0  0  0  0  0  0  0  0  0  0  0
   -5.3623    2.6200   10.5708 H   0  0  0  0  0  0  0  0  0  0  0  0
   -4.9960    1.7760   12.1317 H   0  0  0  0  0  0  0  0  0  0  0  0
   -2.4962    0.8943   12.3466 H   0  0  0  0  0  0  0  0  0  0  0  0
   -0.1624    1.7647   12.2731 H   0  0  0  0  0  0  0  0  0  0  0  0
    0.3718    3.7997   10.9353 H   0  0  0  0  0  0  0  0  0  0  0  0
   -1.4309    4.9661    9.6679 H   0  0  0  0  0  0  0  0  0  0  0  0
   -3.7675    4.1011    9.7358 H   0  0  0  0  0  0  0  0  0  0  0  0
   -6.4311    1.3060    8.3607 H   0  0  0  0  0  0  0  0  0  0  0  0
   -3.4730    0.8170    5.3700 H   0  0  0  0  0  0  0  0  0  0  0  0
  1  2  1  0
  2  3  2  0
  3  4  1  0
  4  5  1  0
  5  6  1  0
  6  7  1  0
  7  8  2  0
  8  9  1  0
  9 10  2  0
 10 11  1  0
 11 12  2  0
  4 13  2  0
 13 14  1  0
 14 15  2  0
 14 16  1  0
 16  2  1  0
 12  7  1  0
  1 17  1  0
  1 18  1  0
  5 19  1  0
  5 20  1  0
  6 21  1  0
  6 22  1  0
  8 23  1  0
  9 24  1  0
 10 25  1  0
 11 26  1  0
 12 27  1  0
 13 28  1  0
 16 29  1  0
M  END
>  <meeko>  (4) 
{"is_sidechain": [false], "free_energy": -6.932, "intermolecular_energy": -8.352, "internal_energy": -0.366}

$$$$
2v00_ligand
     RDKit          3D

 29 30  0  0  0  0  0  0  0  0999 V2000
   -6.7110   -1.4590   10.3890 N   0  0  0  0  0  0  0  0  0  0  0  0
   -5.6140   -0.8340    9.8940 C   0  0  0  0  0  0  0  0  0  0  0  0
   -4.6250   -0.5340   10.6720 N   0  0  0  0  0  0  0  0  0  0  0  0
   -3.5360    0.0960   10.1150 C   0  0  0  0  0  0  0  0  0  0  0  0
   -2.4020    0.4010   11.0670 C   0  0  0  0  0  0  0  0  0  0  0  0
   -2.6260    1.7150   11.8220 C   0  0  0  0  0  0  0  0  0  0  0  0
   -2.0020    2.8840   11.1000 C   0  0  0  0  0  0  0  0  0  0  0  0
   -2.8070    3.8950   10.5580 C   0  0  0  0  0  0  0  0  0  0  0  0
   -2.2290    4.9860    9.9080 C   0  0  0  0  0  0  0  0  0  0  0  0
   -0.8430    5.0800    9.7970 C   0  0  0  0  0  0  0  0  0  0  0  0
   -0.0330    4.0830   10.3380 C   0  0  0  0  0  0  0  0  0  0  0  0
   -0.6080    2.9900   10.9890 C   0  0  0  0  0  0  0  0  0  0  0  0
   -3.4490    0.4140    8.8160 C   0  0  0  0  0  0  0  0  0  0  0  0
   -4.5860    0.0850    7.9480 C   0  0  0  0  0  0  0  0  0  0  0  0
   -4.5930    0.3800    6.7590 O   0  0  0  0  0  0  0  0  0  0  0  0
   -5.6160   -0.5580    8.5620 N   0  0  0  0  0  0  0  0  0  0  0  0
   -7.5950   -1.0030   10.2150 H   0  0  0  0  0  0  0  0  0  0  0  0
   -6.7240   -2.4390   10.1220 H   0  0  0  0  0  0  0  0  0  0  0  0
   -2.3201   -0.4184   11.7963 H   0  0  0  0  0  0  0  0  0  0  0  0
   -1.4794    0.5008   10.4764 H   0  0  0  0  0  0  0  0  0  0  0  0
   -3.7075    1.8912   11.9187 H   0  0  0  0  0  0  0  0  0  0  0  0
   -2.1520    1.6287   12.8109 H   0  0  0  0  0  0  0  0  0  0  0  0
   -3.9015    3.8280   10.6456 H   0  0  0  0  0  0  0  0  0  0  0  0
   -2.8685    5.7733    9.4824 H   0  0  0  0  0  0  0  0  0  0  0  0
   -0.3888    5.9400    9.2831 H   0  0  0  0  0  0  0  0  0  0  0  0
    1.0611    4.1575   10.2519 H   0  0  0  0  0  0  0  0  0  0  0  0
    0.0359    2.2077   11.4172 H   0  0  0  0  0  0  0  0  0  0  0  0
   -2.5523    0.9069    8.4123 H   0  0  0  0  0  0  0  0  0  0  0  0
   -6.4260   -0.7540    7.9980 H   0  0  0  0  0  0  0  0  0  0  0  0
  1  2  1  0
  2  3  2  0
  3  4  1  0
  4  5  1  0
  5  6  1  0
  6  7  1  0
  7  8  2  0
  8  9  1  0
  9 10  2  0
 10 11  1  0
 11 12  2  0
  4 13  2  0
 13 14  1  0
 14 15  2  0
 14 16  1  0
 16  2  1  0
 12  7  1  0
  1 17  1  0
  1 18  1  0
  5 19  1  0
  5 20  1  0
  6 21  1  0
  6 22  1  0
  8 23  1  0
  9 24  1  0
 10 25  1  0
 11 26  1  0
 12 27  1  0
 13 28  1  0
 16 29  1  0
M  END
>  <meeko>  (5) 
{"is_sidechain": [false], "free_energy": -6.588, "intermolecular_energy": -7.805, "internal_energy": -0.497}

$$$$
2v00_ligand
     RDKit          3D

 29 30  0  0  0  0  0  0  0  0999 V2000
   -2.8660    1.0980    6.3870 N   0  0  0  0  0  0  0  0  0  0  0  0
   -3.3490    0.6530    7.5730 C   0  0  0  0  0  0  0  0  0  0  0  0
   -2.6690    0.8230    8.6610 N   0  0  0  0  0  0  0  0  0  0  0  0
   -3.2100    0.3560    9.8370 C   0  0  0  0  0  0  0  0  0  0  0  0
   -2.3830    0.6010   11.0780 C   0  0  0  0  0  0  0  0  0  0  0  0
   -2.7060    1.9540   11.7220 C   0  0  0  0  0  0  0  0  0  0  0  0
   -1.9970    3.0870   11.0200 C   0  0  0  0  0  0  0  0  0  0  0  0
   -2.7300    4.1330   10.4440 C   0  0  0  0  0  0  0  0  0  0  0  0
   -2.0750    5.1910    9.8120 C   0  0  0  0  0  0  0  0  0  0  0  0
   -0.6830    5.2150    9.7530 C   0  0  0  0  0  0  0  0  0  0  0  0
    0.0560    4.1820   10.3270 C   0  0  0  0  0  0  0  0  0  0  0  0
   -0.5970    3.1220   10.9600 C   0  0  0  0  0  0  0  0  0  0  0  0
   -4.3970   -0.2640    9.9120 C   0  0  0  0  0  0  0  0  0  0  0  0
   -5.1480   -0.4670    8.6680 C   0  0  0  0  0  0  0  0  0  0  0  0
   -6.2210   -1.0580    8.6540 O   0  0  0  0  0  0  0  0  0  0  0  0
   -4.5640    0.0430    7.5490 N   0  0  0  0  0  0  0  0  0  0  0  0
   -3.5570    1.4080    5.7180 H   0  0  0  0  0  0  0  0  0  0  0  0
   -2.1300    1.7830    6.5260 H   0  0  0  0  0  0  0  0  0  0  0  0
   -2.5888   -0.1976   11.8060 H   0  0  0  0  0  0  0  0  0  0  0  0
   -1.3226    0.6071   10.7854 H   0  0  0  0  0  0  0  0  0  0  0  0
   -3.7914    2.1246   11.6689 H   0  0  0  0  0  0  0  0  0  0  0  0
   -2.3631    1.9283   12.7669 H   0  0  0  0  0  0  0  0  0  0  0  0
   -3.8290    4.1202   10.4902 H   0  0  0  0  0  0  0  0  0  0  0  0
   -2.6582    6.0068    9.3600 H   0  0  0  0  0  0  0  0  0  0  0  0
   -0.1677    6.0487    9.2537 H   0  0  0  0  0  0  0  0  0  0  0  0
    1.1549    4.2016   10.2814 H   0  0  0  0  0  0  0  0  0  0  0  0
   -0.0095    2.3103   11.4139 H   0  0  0  0  0  0  0  0  0  0  0  0
   -4.7955   -0.6099   10.8772 H   0  0  0  0  0  0  0  0  0  0  0  0
   -5.0380   -0.1220    6.6770 H   0  0  0  0  0  0  0  0  0  0  0  0
  1  2  1  0
  2  3  2  0
  3  4  1  0
  4  5  1  0
  5  6  1  0
  6  7  1  0
  7  8  2  0
  8  9  1  0
  9 10  2  0
 10 11  1  0
 11 12  2  0
  4 13  2  0
 13 14  1  0
 14 15  2  0
 14 16  1  0
 16  2  1  0
 12  7  1  0
  1 17  1  0
  1 18  1  0
  5 19  1  0
  5 20  1  0
  6 21  1  0
  6 22  1  0
  8 23  1  0
  9 24  1  0
 10 25  1  0
 11 26  1  0
 12 27  1  0
 13 28  1  0
 16 29  1  0
M  END
>  <meeko>  (6) 
{"is_sidechain": [false], "free_energy": -6.537, "intermolecular_energy": -7.868, "internal_energy": -0.374}

$$$$
2v00_ligand
     RDKit          3D

 29 30  0  0  0  0  0  0  0  0999 V2000
    0.9120    4.7980   10.2970 N   0  0  0  0  0  0  0  0  0  0  0  0
   -0.3650    4.3640   10.1560 C   0  0  0  0  0  0  0  0  0  0  0  0
   -0.8170    3.4070   10.9020 N   0  0  0  0  0  0  0  0  0  0  0  0
   -2.1210    3.0100   10.7190 C   0  0  0  0  0  0  0  0  0  0  0  0
   -2.6010    1.9060   11.6320 C   0  0  0  0  0  0  0  0  0  0  0  0
   -2.3360    0.5180   11.0400 C   0  0  0  0  0  0  0  0  0  0  0  0
   -3.5480   -0.0170   10.3150 C   0  0  0  0  0  0  0  0  0  0  0  0
   -4.6130   -0.5770   11.0330 C   0  0  0  0  0  0  0  0  0  0  0  0
   -5.7420   -1.0540   10.3650 C   0  0  0  0  0  0  0  0  0  0  0  0
   -5.8180   -0.9720    8.9760 C   0  0  0  0  0  0  0  0  0  0  0  0
   -4.7660   -0.4120    8.2530 C   0  0  0  0  0  0  0  0  0  0  0  0
   -3.6350    0.0660    8.9190 C   0  0  0  0  0  0  0  0  0  0  0  0
   -2.9420    3.5590    9.8120 C   0  0  0  0  0  0  0  0  0  0  0  0
   -2.4110    4.6290    8.9600 C   0  0  0  0  0  0  0  0  0  0  0  0
   -3.0910    5.1510    8.0840 O   0  0  0  0  0  0  0  0  0  0  0  0
   -1.1220    4.9860    9.2140 N   0  0  0  0  0  0  0  0  0  0  0  0
    1.1840    5.5680    9.7020 H   0  0  0  0  0  0  0  0  0  0  0  0
    1.1350    4.9660   11.2730 H   0  0  0  0  0  0  0  0  0  0  0  0
   -2.0760    1.9878   12.5951 H   0  0  0  0  0  0  0  0  0  0  0  0
   -3.6875    2.0193   11.7612 H   0  0  0  0  0  0  0  0  0  0  0  0
   -1.4973    0.5861   10.3315 H   0  0  0  0  0  0  0  0  0  0  0  0
   -2.0976   -0.1687   11.8656 H   0  0  0  0  0  0  0  0  0  0  0  0
   -4.5590   -0.6411   12.1298 H   0  0  0  0  0  0  0  0  0  0  0  0
   -6.5726   -1.4951   10.9356 H   0  0  0  0  0  0  0  0  0  0  0  0
   -6.7077   -1.3490    8.4504 H   0  0  0  0  0  0  0  0  0  0  0  0
   -4.8265   -0.3464    7.1566 H   0  0  0  0  0  0  0  0  0  0  0  0
   -2.8085    0.5098    8.3446 H   0  0  0  0  0  0  0  0  0  0  0  0
   -3.9826    3.2173    9.7098 H   0  0  0  0  0  0  0  0  0  0  0  0
   -0.7210    5.6860    8.6130 H   0  0  0  0  0  0  0  0  0  0  0  0
  1  2  1  0
  2  3  2  0
  3  4  1  0
  4  5  1  0
  5  6  1  0
  6  7  1  0
  7  8  2  0
  8  9  1  0
  9 10  2  0
 10 11  1  0
 11 12  2  0
  4 13  2  0
 13 14  1  0
 14 15  2  0
 14 16  1  0
 16  2  1  0
 12  7  1  0
  1 17  1  0
  1 18  1  0
  5 19  1  0
  5 20  1  0
  6 21  1  0
  6 22  1  0
  8 23  1  0
  9 24  1  0
 10 25  1  0
 11 26  1  0
 12 27  1  0
 13 28  1  0
 16 29  1  0
M  END
>  <meeko>  (7) 
{"is_sidechain": [false], "free_energy": -6.522, "intermolecular_energy": -7.757, "internal_energy": -0.466}

$$$$
2v00_ligand
     RDKit          3D

 29 30  0  0  0  0  0  0  0  0999 V2000
   -3.5700   -0.6690    8.5040 N   0  0  0  0  0  0  0  0  0  0  0  0
   -3.9060    0.2400    9.4520 C   0  0  0  0  0  0  0  0  0  0  0  0
   -2.9860    0.8790   10.1010 N   0  0  0  0  0  0  0  0  0  0  0  0
   -3.3850    1.7940   11.0490 C   0  0  0  0  0  0  0  0  0  0  0  0
   -2.2690    2.5270   11.7570 C   0  0  0  0  0  0  0  0  0  0  0  0
   -1.0590    2.7480   10.8430 C   0  0  0  0  0  0  0  0  0  0  0  0
   -0.9940    4.1710   10.3430 C   0  0  0  0  0  0  0  0  0  0  0  0
    0.2280    4.8550   10.3100 C   0  0  0  0  0  0  0  0  0  0  0  0
    0.2920    6.1640    9.8290 C   0  0  0  0  0  0  0  0  0  0  0  0
   -0.8610    6.7980    9.3730 C   0  0  0  0  0  0  0  0  0  0  0  0
   -2.0820    6.1250    9.3970 C   0  0  0  0  0  0  0  0  0  0  0  0
   -2.1490    4.8150    9.8780 C   0  0  0  0  0  0  0  0  0  0  0  0
   -4.6690    2.0520   11.3340 C   0  0  0  0  0  0  0  0  0  0  0  0
   -5.7010    1.3050   10.6060 C   0  0  0  0  0  0  0  0  0  0  0  0
   -6.8930    1.4610   10.8410 O   0  0  0  0  0  0  0  0  0  0  0  0
   -5.2340    0.4380    9.6670 N   0  0  0  0  0  0  0  0  0  0  0  0
   -3.8870   -0.4660    7.5660 H   0  0  0  0  0  0  0  0  0  0  0  0
   -2.5770   -0.8810    8.5370 H   0  0  0  0  0  0  0  0  0  0  0  0
   -2.6435    3.5050   12.0935 H   0  0  0  0  0  0  0  0  0  0  0  0
   -1.9442    1.9116   12.6089 H   0  0  0  0  0  0  0  0  0  0  0  0
   -0.1407    2.5249   11.4060 H   0  0  0  0  0  0  0  0  0  0  0  0
   -1.1578    2.0815    9.9735 H   0  0  0  0  0  0  0  0  0  0  0  0
    1.1426    4.3577   10.6652 H   0  0  0  0  0  0  0  0  0  0  0  0
    1.2549    6.6955    9.8102 H   0  0  0  0  0  0  0  0  0  0  0  0
   -0.8086    7.8293    8.9940 H   0  0  0  0  0  0  0  0  0  0  0  0
   -2.9929    6.6257    9.0371 H   0  0  0  0  0  0  0  0  0  0  0  0
   -3.1134    4.2861    9.8919 H   0  0  0  0  0  0  0  0  0  0  0  0
   -4.9412    2.8018   12.0915 H   0  0  0  0  0  0  0  0  0  0  0  0
   -5.9200   -0.1180    9.1850 H   0  0  0  0  0  0  0  0  0  0  0  0
  1  2  1  0
  2  3  2  0
  3  4  1  0
  4  5  1  0
  5  6  1  0
  6  7  1  0
  7  8  2  0
  8  9  1  0
  9 10  2  0
 10 11  1  0
 11 12  2  0
  4 13  2  0
 13 14  1  0
 14 15  2  0
 14 16  1  0
 16  2  1  0
 12  7  1  0
  1 17  1  0
  1 18  1  0
  5 19  1  0
  5 20  1  0
  6 21  1  0
  6 22  1  0
  8 23  1  0
  9 24  1  0
 10 25  1  0
 11 26  1  0
 12 27  1  0
 13 28  1  0
 16 29  1  0
M  END
>  <meeko>  (8) 
{"is_sidechain": [false], "free_energy": -6.512, "intermolecular_energy": -7.831, "internal_energy": -0.38}

$$$$
2v00_ligand
     RDKit          3D

 29 30  0  0  0  0  0  0  0  0999 V2000
    2.0630    5.1530    9.2160 N   0  0  0  0  0  0  0  0  0  0  0  0
    0.7180    5.1650    9.3860 C   0  0  0  0  0  0  0  0  0  0  0  0
    0.0050    6.1280    8.8980 N   0  0  0  0  0  0  0  0  0  0  0  0
   -1.3560    6.0860    9.0960 C   0  0  0  0  0  0  0  0  0  0  0  0
   -2.1400    7.2240    8.4840 C   0  0  0  0  0  0  0  0  0  0  0  0
   -2.0630    7.2140    6.9540 C   0  0  0  0  0  0  0  0  0  0  0  0
   -3.2110    6.4440    6.3450 C   0  0  0  0  0  0  0  0  0  0  0  0
   -4.3690    7.1130    5.9280 C   0  0  0  0  0  0  0  0  0  0  0  0
   -5.4220    6.4050    5.3470 C   0  0  0  0  0  0  0  0  0  0  0  0
   -5.3260    5.0260    5.1740 C   0  0  0  0  0  0  0  0  0  0  0  0
   -4.1750    4.3520    5.5820 C   0  0  0  0  0  0  0  0  0  0  0  0
   -3.1200    5.0580    6.1630 C   0  0  0  0  0  0  0  0  0  0  0  0
   -1.9760    5.1050    9.7680 C   0  0  0  0  0  0  0  0  0  0  0  0
   -1.1540    4.0290   10.3330 C   0  0  0  0  0  0  0  0  0  0  0  0
   -1.6470    3.1210   10.9910 O   0  0  0  0  0  0  0  0  0  0  0  0
    0.1800    4.1240   10.0760 N   0  0  0  0  0  0  0  0  0  0  0  0
    2.6150    5.1800   10.0620 H   0  0  0  0  0  0  0  0  0  0  0  0
    2.3460    4.4010    8.5950 H   0  0  0  0  0  0  0  0  0  0  0  0
   -3.1934    7.1336    8.7875 H   0  0  0  0  0  0  0  0  0  0  0  0
   -1.7038    8.1687    8.8408 H   0  0  0  0  0  0  0  0  0  0  0  0
   -2.0945    8.2509    6.5881 H   0  0  0  0  0  0  0  0  0  0  0  0
   -1.1241    6.7222    6.6598 H   0  0  0  0  0  0  0  0  0  0  0  0
   -4.4487    8.2022    6.0592 H   0  0  0  0  0  0  0  0  0  0  0  0
   -6.3295    6.9368    5.0250 H   0  0  0  0  0  0  0  0  0  0  0  0
   -6.1570    4.4693    4.7162 H   0  0  0  0  0  0  0  0  0  0  0  0
   -4.0985    3.2631    5.4458 H   0  0  0  0  0  0  0  0  0  0  0  0
   -2.2124    4.5231    6.4796 H   0  0  0  0  0  0  0  0  0  0  0  0
   -3.0690    5.1070    9.8920 H   0  0  0  0  0  0  0  0  0  0  0  0
    0.7700    3.4230   10.4910 H   0  0  0  0  0  0  0  0  0  0  0  0
  1  2  1  0
  2  3  2  0
  3  4  1  0
  4  5  1  0
  5  6  1  0
  6  7  1  0
  7  8  2  0
  8  9  1  0
  9 10  2  0
 10 11  1  0
 11 12  2  0
  4 13  2  0
 13 14  1  0
 14 15  2  0
 14 16  1  0
 16  2  1  0
 12  7  1  0
  1 17  1  0
  1 18  1  0
  5 19  1  0
  5 20  1  0
  6 21  1  0
  6 22  1  0
  8 23  1  0
  9 24  1  0
 10 25  1  0
 11 26  1  0
 12 27  1  0
 13 28  1  0
 16 29  1  0
M  END
>  <meeko>  (9) 
{"is_sidechain": [false], "free_energy": -6.437, "intermolecular_energy": -7.67, "internal_energy": -0.451}

$$$$
