3fcq_ligand
     RDKit          3D

 23 23  0  0  0  0  0  0  0  0999 V2000
   37.1610   44.7480   -1.0810 C   0  0  0  0  0  0  0  0  0  0  0  0
   37.2680   43.3610   -1.6430 C   0  0  0  0  0  0  0  0  0  0  0  0
   38.3370   42.8090   -1.8870 O   0  0  0  0  0  0  0  0  0  0  0  0
   35.9960   42.9060   -1.9640 O   0  0  0  0  0  0  0  0  0  0  0  0
   35.9460   41.5180   -2.1350 C   0  0  0  0  0  0  0  0  0  0  0  0
   35.9840   40.7050   -0.9830 C   0  0  0  0  0  0  0  0  0  0  0  0
   35.9910   41.3050    0.3930 C   0  0  0  0  0  0  0  0  0  0  0  0
   35.9750   39.3150   -1.1400 C   0  0  0  0  0  0  0  0  0  0  0  0
   35.9670   38.7500   -2.4140 C   0  0  0  0  0  0  0  0  0  0  0  0
   35.9650   39.5710   -3.5430 C   0  0  0  0  0  0  0  0  0  0  0  0
   35.9590   40.9750   -3.4340 C   0  0  0  0  0  0  0  0  0  0  0  0
   35.9730   41.8150   -4.6980 C   0  0  0  0  0  0  0  0  0  0  0  0
   37.0900   42.3240   -5.0360 O   0  0  0  0  0  0  0  0  0  0  0  0
   34.8870   41.9570   -5.3450 O   0  0  0  0  0  0  0  0  0  0  0  0
   37.1647   44.6996    0.0179 H   0  0  0  0  0  0  0  0  0  0  0  0
   38.0154   45.3497   -1.4244 H   0  0  0  0  0  0  0  0  0  0  0  0
   36.2244   45.2115   -1.4244 H   0  0  0  0  0  0  0  0  0  0  0  0
   35.9816   40.5010    1.1436 H   0  0  0  0  0  0  0  0  0  0  0  0
   36.8963   41.9164    0.5218 H   0  0  0  0  0  0  0  0  0  0  0  0
   35.1002   41.9373    0.5218 H   0  0  0  0  0  0  0  0  0  0  0  0
   35.9742   38.6643   -0.2531 H   0  0  0  0  0  0  0  0  0  0  0  0
   35.9623   37.6561   -2.5300 H   0  0  0  0  0  0  0  0  0  0  0  0
   35.9682   39.1102   -4.5418 H   0  0  0  0  0  0  0  0  0  0  0  0
  1  2  1  0
  2  3  2  0
  2  4  1  0
  4  5  1  0
  5  6  2  0
  6  7  1  0
  6  8  1  0
  8  9  2  0
  9 10  1  0
 10 11  2  0
 11 12  1  0
 12 13  2  0
 12 14  1  0
 11  5  1  0
  1 15  1  0
  1 16  1  0
  1 17  1  0
  7 18  1  0
  7 19  1  0
  7 20  1  0
  8 21  1  0
  9 22  1  0
 10 23  1  0
M  CHG  1  14  -1
M  END
>  <meeko>  (1) 
{"is_sidechain": [false], "free_energy": -5.526, "intermolecular_energy": -6.495, "internal_energy": -0.05}

$$$$
3fcq_ligand
     RDKit          3D

 23 23  0  0  0  0  0  0  0  0999 V2000
   36.7460   38.0700   -1.6260 C   0  0  0  0  0  0  0  0  0  0  0  0
   36.0410   39.0780   -2.4850 C   0  0  0  0  0  0  0  0  0  0  0  0
   34.9920   39.6280   -2.1630 O   0  0  0  0  0  0  0  0  0  0  0  0
   36.6840   39.1500   -3.7140 O   0  0  0  0  0  0  0  0  0  0  0  0
   35.9540   39.8720   -4.6650 C   0  0  0  0  0  0  0  0  0  0  0  0
   35.1930   39.1500   -5.6070 C   0  0  0  0  0  0  0  0  0  0  0  0
   35.0950   37.6540   -5.5450 C   0  0  0  0  0  0  0  0  0  0  0  0
   34.4890   39.8570   -6.5880 C   0  0  0  0  0  0  0  0  0  0  0  0
   34.5730   41.2470   -6.6510 C   0  0  0  0  0  0  0  0  0  0  0  0
   35.3600   41.9420   -5.7310 C   0  0  0  0  0  0  0  0  0  0  0  0
   36.0740   41.2740   -4.7170 C   0  0  0  0  0  0  0  0  0  0  0  0
   36.9250   42.0840   -3.7560 C   0  0  0  0  0  0  0  0  0  0  0  0
   36.3050   42.8060   -2.9110 O   0  0  0  0  0  0  0  0  0  0  0  0
   38.1920   41.9940   -3.8420 O   0  0  0  0  0  0  0  0  0  0  0  0
   36.5780   38.3102   -0.5658 H   0  0  0  0  0  0  0  0  0  0  0  0
   36.3525   37.0656   -1.8412 H   0  0  0  0  0  0  0  0  0  0  0  0
   37.8244   38.0951   -1.8412 H   0  0  0  0  0  0  0  0  0  0  0  0
   35.0739   37.3312   -4.4936 H   0  0  0  0  0  0  0  0  0  0  0  0
   34.1734   37.3258   -6.0480 H   0  0  0  0  0  0  0  0  0  0  0  0
   35.9659   37.2083   -6.0480 H   0  0  0  0  0  0  0  0  0  0  0  0
   33.8660   39.3131   -7.3133 H   0  0  0  0  0  0  0  0  0  0  0  0
   34.0188   41.7966   -7.4261 H   0  0  0  0  0  0  0  0  0  0  0  0
   35.4241   43.0380   -5.7996 H   0  0  0  0  0  0  0  0  0  0  0  0
  1  2  1  0
  2  3  2  0
  2  4  1  0
  4  5  1  0
  5  6  2  0
  6  7  1  0
  6  8  1  0
  8  9  2  0
  9 10  1  0
 10 11  2  0
 11 12  1  0
 12 13  2  0
 12 14  1  0
 11  5  1  0
  1 15  1  0
  1 16  1  0
  1 17  1  0
  7 18  1  0
  7 19  1  0
  7 20  1  0
  8 21  1  0
  9 22  1  0
 10 23  1  0
M  CHG  1  14  -1
M  END
>  <meeko>  (2) 
{"is_sidechain": [false], "free_energy": -5.495, "intermolecular_energy": -6.376, "internal_energy": -0.133}

$$$$
3fcq_ligand
     RDKit          3D

 23 23  0  0  0  0  0  0  0  0999 V2000
   38.9140   37.7140   -4.6920 C   0  0  0  0  0  0  0  0  0  0  0  0
   38.6020   38.9620   -3.9210 C   0  0  0  0  0  0  0  0  0  0  0  0
   39.4510   39.6290   -3.3380 O   0  0  0  0  0  0  0  0  0  0  0  0
   37.2230   39.1230   -3.8640 O   0  0  0  0  0  0  0  0  0  0  0  0
   36.8140   39.8920   -2.7690 C   0  0  0  0  0  0  0  0  0  0  0  0
   36.5650   39.2300   -1.5490 C   0  0  0  0  0  0  0  0  0  0  0  0
   36.8130   37.7580   -1.3970 C   0  0  0  0  0  0  0  0  0  0  0  0
   36.1170   39.9810   -0.4560 C   0  0  0  0  0  0  0  0  0  0  0  0
   35.8850   41.3480   -0.5880 C   0  0  0  0  0  0  0  0  0  0  0  0
   36.1040   41.9790   -1.8140 C   0  0  0  0  0  0  0  0  0  0  0  0
   36.5690   41.2680   -2.9370 C   0  0  0  0  0  0  0  0  0  0  0  0
   36.7730   42.0070   -4.2470 C   0  0  0  0  0  0  0  0  0  0  0  0
   37.9440   42.4500   -4.4800 O   0  0  0  0  0  0  0  0  0  0  0  0
   35.7800   42.1360   -5.0330 O   0  0  0  0  0  0  0  0  0  0  0  0
   39.1196   36.8917   -3.9909 H   0  0  0  0  0  0  0  0  0  0  0  0
   38.0543   37.4497   -5.3253 H   0  0  0  0  0  0  0  0  0  0  0  0
   39.7970   37.8853   -5.3253 H   0  0  0  0  0  0  0  0  0  0  0  0
   36.8561   37.5019   -0.3281 H   0  0  0  0  0  0  0  0  0  0  0  0
   35.9967   37.1973   -1.8757 H   0  0  0  0  0  0  0  0  0  0  0  0
   37.7680   37.4957   -1.8757 H   0  0  0  0  0  0  0  0  0  0  0  0
   35.9472   39.4887    0.5129 H   0  0  0  0  0  0  0  0  0  0  0  0
   35.5290   41.9308    0.2743 H   0  0  0  0  0  0  0  0  0  0  0  0
   35.9086   43.0577   -1.9049 H   0  0  0  0  0  0  0  0  0  0  0  0
  1  2  1  0
  2  3  2  0
  2  4  1  0
  4  5  1  0
  5  6  2  0
  6  7  1  0
  6  8  1  0
  8  9  2  0
  9 10  1  0
 10 11  2  0
 11 12  1  0
 12 13  2  0
 12 14  1  0
 11  5  1  0
  1 15  1  0
  1 16  1  0
  1 17  1  0
  7 18  1  0
  7 19  1  0
  7 20  1  0
  8 21  1  0
  9 22  1  0
 10 23  1  0
M  CHG  1  14  -1
M  END
>  <meeko>  (3) 
{"is_sidechain": [false], "free_energy": -5.483, "intermolecular_energy": -6.269, "internal_energy": -0.225}

$$$$
3fcq_ligand
     RDKit          3D

 23 23  0  0  0  0  0  0  0  0999 V2000
   36.9750   43.3270   -2.1610 C   0  0  0  0  0  0  0  0  0  0  0  0
   36.9950   42.3690   -3.3160 C   0  0  0  0  0  0  0  0  0  0  0  0
   37.9540   42.2360   -4.0700 O   0  0  0  0  0  0  0  0  0  0  0  0
   35.7330   41.8070   -3.4560 O   0  0  0  0  0  0  0  0  0  0  0  0
   35.7730   40.5120   -3.9850 C   0  0  0  0  0  0  0  0  0  0  0  0
   36.1560   39.4580   -3.1310 C   0  0  0  0  0  0  0  0  0  0  0  0
   36.4290   39.6960   -1.6740 C   0  0  0  0  0  0  0  0  0  0  0  0
   36.2400   38.1630   -3.6560 C   0  0  0  0  0  0  0  0  0  0  0  0
   35.9860   37.9330   -5.0060 C   0  0  0  0  0  0  0  0  0  0  0  0
   35.6430   38.9960   -5.8440 C   0  0  0  0  0  0  0  0  0  0  0  0
   35.5320   40.3130   -5.3580 C   0  0  0  0  0  0  0  0  0  0  0  0
   35.1710   41.4290   -6.3210 C   0  0  0  0  0  0  0  0  0  0  0  0
   34.7470   42.5140   -5.8080 O   0  0  0  0  0  0  0  0  0  0  0  0
   35.3150   41.2240   -7.5690 O   0  0  0  0  0  0  0  0  0  0  0  0
   36.9868   42.7631   -1.2166 H   0  0  0  0  0  0  0  0  0  0  0  0
   37.8597   43.9788   -2.2099 H   0  0  0  0  0  0  0  0  0  0  0  0
   36.0638   43.9413   -2.2099 H   0  0  0  0  0  0  0  0  0  0  0  0
   35.7370   39.0927   -1.0680 H   0  0  0  0  0  0  0  0  0  0  0  0
   37.4652   39.4078   -1.4433 H   0  0  0  0  0  0  0  0  0  0  0  0
   36.2848   40.7618   -1.4433 H   0  0  0  0  0  0  0  0  0  0  0  0
   36.5080   37.3226   -2.9988 H   0  0  0  0  0  0  0  0  0  0  0  0
   36.0556   36.9132   -5.4124 H   0  0  0  0  0  0  0  0  0  0  0  0
   35.4549   38.7998   -6.9099 H   0  0  0  0  0  0  0  0  0  0  0  0
  1  2  1  0
  2  3  2  0
  2  4  1  0
  4  5  1  0
  5  6  2  0
  6  7  1  0
  6  8  1  0
  8  9  2  0
  9 10  1  0
 10 11  2  0
 11 12  1  0
 12 13  2  0
 12 14  1  0
 11  5  1  0
  1 15  1  0
  1 16  1  0
  1 17  1  0
  7 18  1  0
  7 19  1  0
  7 20  1  0
  8 21  1  0
  9 22  1  0
 10 23  1  0
M  CHG  1  14  -1
M  END
>  <meeko>  (4) 
{"is_sidechain": [false], "free_energy": -5.223, "intermolecular_energy": -6.634, "internal_energy": 0.446}

$$$$
3fcq_ligand
     RDKit          3D

 23 23  0  0  0  0  0  0  0  0999 V2000
   36.7810   43.0920   -2.3040 C   0  0  0  0  0  0  0  0  0  0  0  0
   36.8420   42.2630   -3.5530 C   0  0  0  0  0  0  0  0  0  0  0  0
   37.8550   42.1390   -4.2350 O   0  0  0  0  0  0  0  0  0  0  0  0
   35.5640   41.8160   -3.8600 O   0  0  0  0  0  0  0  0  0  0  0  0
   35.5650   40.5670   -4.4910 C   0  0  0  0  0  0  0  0  0  0  0  0
   35.2470   40.5170   -5.8640 C   0  0  0  0  0  0  0  0  0  0  0  0
   34.9980   41.7700   -6.6520 C   0  0  0  0  0  0  0  0  0  0  0  0
   35.2050   39.2710   -6.4990 C   0  0  0  0  0  0  0  0  0  0  0  0
   35.4370   38.1030   -5.7760 C   0  0  0  0  0  0  0  0  0  0  0  0
   35.7150   38.1710   -4.4090 C   0  0  0  0  0  0  0  0  0  0  0  0
   35.7830   39.4030   -3.7310 C   0  0  0  0  0  0  0  0  0  0  0  0
   36.0740   39.4100   -2.2410 C   0  0  0  0  0  0  0  0  0  0  0  0
   35.1530   39.8510   -1.4790 O   0  0  0  0  0  0  0  0  0  0  0  0
   37.2010   38.9770   -1.8400 O   0  0  0  0  0  0  0  0  0  0  0  0
   36.8294   42.4336   -1.4242 H   0  0  0  0  0  0  0  0  0  0  0  0
   37.6301   43.7910   -2.2860 H   0  0  0  0  0  0  0  0  0  0  0  0
   35.8387   43.6592   -2.2860 H   0  0  0  0  0  0  0  0  0  0  0  0
   34.8311   42.6101   -5.9618 H   0  0  0  0  0  0  0  0  0  0  0  0
   35.8712   41.9841   -7.2858 H   0  0  0  0  0  0  0  0  0  0  0  0
   34.1093   41.6340   -7.2858 H   0  0  0  0  0  0  0  0  0  0  0  0
   34.9875   39.2133   -7.5757 H   0  0  0  0  0  0  0  0  0  0  0  0
   35.4012   37.1269   -6.2819 H   0  0  0  0  0  0  0  0  0  0  0  0
   35.8849   37.2398   -3.8487 H   0  0  0  0  0  0  0  0  0  0  0  0
  1  2  1  0
  2  3  2  0
  2  4  1  0
  4  5  1  0
  5  6  2  0
  6  7  1  0
  6  8  1  0
  8  9  2  0
  9 10  1  0
 10 11  2  0
 11 12  1  0
 12 13  2  0
 12 14  1  0
 11  5  1  0
  1 15  1  0
  1 16  1  0
  1 17  1  0
  7 18  1  0
  7 19  1  0
  7 20  1  0
  8 21  1  0
  9 22  1  0
 10 23  1  0
M  CHG  1  14  -1
M  END
>  <meeko>  (5) 
{"is_sidechain": [false], "free_energy": -5.085, "intermolecular_energy": -5.864, "internal_energy": -0.163}

$$$$
3fcq_ligand
     RDKit          3D

 23 23  0  0  0  0  0  0  0  0999 V2000
   35.5640   41.8930   -5.0480 C   0  0  0  0  0  0  0  0  0  0  0  0
   36.0170   40.4820   -4.8160 C   0  0  0  0  0  0  0  0  0  0  0  0
   35.3420   39.4970   -5.1000 O   0  0  0  0  0  0  0  0  0  0  0  0
   37.2140   40.5040   -4.1110 O   0  0  0  0  0  0  0  0  0  0  0  0
   37.2490   39.5640   -3.0750 C   0  0  0  0  0  0  0  0  0  0  0  0
   37.8630   38.3200   -3.3290 C   0  0  0  0  0  0  0  0  0  0  0  0
   38.5380   38.0380   -4.6390 C   0  0  0  0  0  0  0  0  0  0  0  0
   37.8710   37.3550   -2.3160 C   0  0  0  0  0  0  0  0  0  0  0  0
   37.2480   37.6090   -1.0960 C   0  0  0  0  0  0  0  0  0  0  0  0
   36.6140   38.8340   -0.8770 C   0  0  0  0  0  0  0  0  0  0  0  0
   36.5940   39.8410   -1.8610 C   0  0  0  0  0  0  0  0  0  0  0  0
   35.8750   41.1450   -1.5690 C   0  0  0  0  0  0  0  0  0  0  0  0
   36.6040   42.1700   -1.3680 O   0  0  0  0  0  0  0  0  0  0  0  0
   34.6020   41.1460   -1.5470 O   0  0  0  0  0  0  0  0  0  0  0  0
   35.4042   42.3906   -4.0801 H   0  0  0  0  0  0  0  0  0  0  0  0
   36.3329   42.4361   -5.6170 H   0  0  0  0  0  0  0  0  0  0  0  0
   34.6226   41.8870   -5.6170 H   0  0  0  0  0  0  0  0  0  0  0  0
   39.5384   37.6200   -4.4535 H   0  0  0  0  0  0  0  0  0  0  0  0
   37.9390   37.3149   -5.2120 H   0  0  0  0  0  0  0  0  0  0  0  0
   38.6314   38.9723   -5.2120 H   0  0  0  0  0  0  0  0  0  0  0  0
   38.3720   36.3902   -2.4838 H   0  0  0  0  0  0  0  0  0  0  0  0
   37.2555   36.8446   -0.3051 H   0  0  0  0  0  0  0  0  0  0  0  0
   36.1181   39.0166    0.0878 H   0  0  0  0  0  0  0  0  0  0  0  0
  1  2  1  0
  2  3  2  0
  2  4  1  0
  4  5  1  0
  5  6  2  0
  6  7  1  0
  6  8  1  0
  8  9  2  0
  9 10  1  0
 10 11  2  0
 11 12  1  0
 12 13  2  0
 12 14  1  0
 11  5  1  0
  1 15  1  0
  1 16  1  0
  1 17  1  0
  7 18  1  0
  7 19  1  0
  7 20  1  0
  8 21  1  0
  9 22  1  0
 10 23  1  0
M  CHG  1  14  -1
M  END
>  <meeko>  (6) 
{"is_sidechain": [false], "free_energy": -4.992, "intermolecular_energy": -5.749, "internal_energy": -0.168}

$$$$
3fcq_ligand
     RDKit          3D

 23 23  0  0  0  0  0  0  0  0999 V2000
   35.5880   41.8120   -5.2790 C   0  0  0  0  0  0  0  0  0  0  0  0
   36.1440   40.4730   -4.8920 C   0  0  0  0  0  0  0  0  0  0  0  0
   35.6740   39.4070   -5.2770 O   0  0  0  0  0  0  0  0  0  0  0  0
   37.1400   40.6570   -3.9410 O   0  0  0  0  0  0  0  0  0  0  0  0
   37.1280   39.6710   -2.9490 C   0  0  0  0  0  0  0  0  0  0  0  0
   36.2630   39.8470   -1.8500 C   0  0  0  0  0  0  0  0  0  0  0  0
   35.3160   41.0090   -1.7820 C   0  0  0  0  0  0  0  0  0  0  0  0
   36.2680   38.8890   -0.8290 C   0  0  0  0  0  0  0  0  0  0  0  0
   37.1430   37.8050   -0.8850 C   0  0  0  0  0  0  0  0  0  0  0  0
   38.0180   37.6680   -1.9650 C   0  0  0  0  0  0  0  0  0  0  0  0
   38.0370   38.5990   -3.0220 C   0  0  0  0  0  0  0  0  0  0  0  0
   39.0220   38.4040   -4.1600 C   0  0  0  0  0  0  0  0  0  0  0  0
   38.6110   37.7420   -5.1670 O   0  0  0  0  0  0  0  0  0  0  0  0
   40.1850   38.9090   -4.0500 O   0  0  0  0  0  0  0  0  0  0  0  0
   35.3496   42.3862   -4.3716 H   0  0  0  0  0  0  0  0  0  0  0  0
   36.3329   42.3601   -5.8746 H   0  0  0  0  0  0  0  0  0  0  0  0
   34.6740   41.6712   -5.8746 H   0  0  0  0  0  0  0  0  0  0  0  0
   35.1143   41.2565   -0.7294 H   0  0  0  0  0  0  0  0  0  0  0  0
   35.7660   41.8786   -2.2834 H   0  0  0  0  0  0  0  0  0  0  0  0
   34.3735   40.7438   -2.2834 H   0  0  0  0  0  0  0  0  0  0  0  0
   35.5781   38.9921    0.0216 H   0  0  0  0  0  0  0  0  0  0  0  0
   37.1442   37.0573   -0.0782 H   0  0  0  0  0  0  0  0  0  0  0  0
   38.7090   36.8125   -1.9908 H   0  0  0  0  0  0  0  0  0  0  0  0
  1  2  1  0
  2  3  2  0
  2  4  1  0
  4  5  1  0
  5  6  2  0
  6  7  1  0
  6  8  1  0
  8  9  2  0
  9 10  1  0
 10 11  2  0
 11 12  1  0
 12 13  2  0
 12 14  1  0
 11  5  1  0
  1 15  1  0
  1 16  1  0
  1 17  1  0
  7 18  1  0
  7 19  1  0
  7 20  1  0
  8 21  1  0
  9 22  1  0
 10 23  1  0
M  CHG  1  14  -1
M  END
>  <meeko>  (7) 
{"is_sidechain": [false], "free_energy": -4.981, "intermolecular_energy": -5.709, "internal_energy": -0.195}

$$$$
3fcq_ligand
     RDKit          3D

 23 23  0  0  0  0  0  0  0  0999 V2000
   36.1610   42.4950   -1.2760 C   0  0  0  0  0  0  0  0  0  0  0  0
   35.8390   41.2580   -2.0620 C   0  0  0  0  0  0  0  0  0  0  0  0
   34.9030   40.5100   -1.7960 O   0  0  0  0  0  0  0  0  0  0  0  0
   36.8410   41.0470   -3.0010 O   0  0  0  0  0  0  0  0  0  0  0  0
   36.4960   40.0800   -3.9520 C   0  0  0  0  0  0  0  0  0  0  0  0
   35.7220   40.4850   -5.0580 C   0  0  0  0  0  0  0  0  0  0  0  0
   35.3490   41.9240   -5.2640 C   0  0  0  0  0  0  0  0  0  0  0  0
   35.3360   39.5220   -5.9980 C   0  0  0  0  0  0  0  0  0  0  0  0
   35.6790   38.1830   -5.8160 C   0  0  0  0  0  0  0  0  0  0  0  0
   36.4150   37.7970   -4.6950 C   0  0  0  0  0  0  0  0  0  0  0  0
   36.8390   38.7330   -3.7320 C   0  0  0  0  0  0  0  0  0  0  0  0
   37.6230   38.2480   -2.5250 C   0  0  0  0  0  0  0  0  0  0  0  0
   38.8930   38.2500   -2.6290 O   0  0  0  0  0  0  0  0  0  0  0  0
   36.9810   37.8780   -1.4910 O   0  0  0  0  0  0  0  0  0  0  0  0
   36.1028   42.2715   -0.2005 H   0  0  0  0  0  0  0  0  0  0  0  0
   37.1773   42.8339   -1.5257 H   0  0  0  0  0  0  0  0  0  0  0  0
   35.4389   43.2864   -1.5257 H   0  0  0  0  0  0  0  0  0  0  0  0
   35.2221   42.4134   -4.2871 H   0  0  0  0  0  0  0  0  0  0  0  0
   36.1451   42.4320   -5.8280 H   0  0  0  0  0  0  0  0  0  0  0  0
   34.4063   41.9813   -5.8280 H   0  0  0  0  0  0  0  0  0  0  0  0
   34.7591   39.8234   -6.8848 H   0  0  0  0  0  0  0  0  0  0  0  0
   35.3694   37.4306   -6.5563 H   0  0  0  0  0  0  0  0  0  0  0  0
   36.6703   36.7355   -4.5602 H   0  0  0  0  0  0  0  0  0  0  0  0
  1  2  1  0
  2  3  2  0
  2  4  1  0
  4  5  1  0
  5  6  2  0
  6  7  1  0
  6  8  1  0
  8  9  2  0
  9 10  1  0
 10 11  2  0
 11 12  1  0
 12 13  2  0
 12 14  1  0
 11  5  1  0
  1 15  1  0
  1 16  1  0
  1 17  1  0
  7 18  1  0
  7 19  1  0
  7 20  1  0
  8 21  1  0
  9 22  1  0
 10 23  1  0
M  CHG  1  14  -1
M  END
>  <meeko>  (8) 
{"is_sidechain": [false], "free_energy": -4.817, "intermolecular_energy": -5.581, "internal_energy": -0.131}

$$$$
3fcq_ligand
     RDKit          3D

 23 23  0  0  0  0  0  0  0  0999 V2000
   35.5300   41.7460   -5.9440 C   0  0  0  0  0  0  0  0  0  0  0  0
   36.0900   41.6760   -4.5530 C   0  0  0  0  0  0  0  0  0  0  0  0
   37.2600   41.9260   -4.2810 O   0  0  0  0  0  0  0  0  0  0  0  0
   35.1240   41.1500   -3.7050 O   0  0  0  0  0  0  0  0  0  0  0  0
   35.6430   40.2020   -2.8170 C   0  0  0  0  0  0  0  0  0  0  0  0
   35.9570   40.6220   -1.5080 C   0  0  0  0  0  0  0  0  0  0  0  0
   35.6650   42.0200   -1.0470 C   0  0  0  0  0  0  0  0  0  0  0  0
   36.5140   39.6940   -0.6200 C   0  0  0  0  0  0  0  0  0  0  0  0
   36.7870   38.3940   -1.0380 C   0  0  0  0  0  0  0  0  0  0  0  0
   36.5010   38.0080   -2.3490 C   0  0  0  0  0  0  0  0  0  0  0  0
   35.9270   38.9010   -3.2730 C   0  0  0  0  0  0  0  0  0  0  0  0
   35.6540   38.4260   -4.6890 C   0  0  0  0  0  0  0  0  0  0  0  0
   36.6700   38.2220   -5.4300 O   0  0  0  0  0  0  0  0  0  0  0  0
   34.4460   38.2560   -5.0510 O   0  0  0  0  0  0  0  0  0  0  0  0
   34.4396   41.8823   -5.8939 H   0  0  0  0  0  0  0  0  0  0  0  0
   35.9814   42.5947   -6.4787 H   0  0  0  0  0  0  0  0  0  0  0  0
   35.7586   40.8123   -6.4787 H   0  0  0  0  0  0  0  0  0  0  0  0
   35.6588   42.0497    0.0526 H   0  0  0  0  0  0  0  0  0  0  0  0
   36.4403   42.7011   -1.4278 H   0  0  0  0  0  0  0  0  0  0  0  0
   34.6819   42.3339   -1.4278 H   0  0  0  0  0  0  0  0  0  0  0  0
   36.7374   39.9937    0.4145 H   0  0  0  0  0  0  0  0  0  0  0  0
   37.2279   37.6714   -0.3355 H   0  0  0  0  0  0  0  0  0  0  0  0
   36.7300   36.9804   -2.6676 H   0  0  0  0  0  0  0  0  0  0  0  0
  1  2  1  0
  2  3  2  0
  2  4  1  0
  4  5  1  0
  5  6  2  0
  6  7  1  0
  6  8  1  0
  8  9  2  0
  9 10  1  0
 10 11  2  0
 11 12  1  0
 12 13  2  0
 12 14  1  0
 11  5  1  0
  1 15  1  0
  1 16  1  0
  1 17  1  0
  7 18  1  0
  7 19  1  0
  7 20  1  0
  8 21  1  0
  9 22  1  0
 10 23  1  0
M  CHG  1  14  -1
M  END
>  <meeko>  (9) 
{"is_sidechain": [false], "free_energy": -4.794, "intermolecular_energy": -5.525, "internal_energy": -0.159}

$$$$
