3b1m_ligand
     RDKit          3D

 65 69  0  0  0  0  0  0  0  0999 V2000
   10.2430   50.4210   55.4820 C   0  0  0  0  0  0  0  0  0  0  0  0
    9.9410   50.3500   56.9720 C   0  0  0  0  0  0  0  0  0  0  0  0
    8.8970   49.3000   57.2920 C   0  0  0  0  0  0  0  0  0  0  0  0
    7.5520   49.6920   57.2480 C   0  0  0  0  0  0  0  0  0  0  0  0
    6.5330   48.7830   57.5170 C   0  0  0  0  0  0  0  0  0  0  0  0
    6.8220   47.4530   57.8310 C   0  0  0  0  0  0  0  0  0  0  0  0
    5.7710   46.5530   58.0760 C   0  0  0  0  0  0  0  0  0  0  0  0
    6.0230   45.2170   58.3800 C   0  0  0  0  0  0  0  0  0  0  0  0
    7.3320   44.7650   58.4390 C   0  0  0  0  0  0  0  0  0  0  0  0
    8.3870   45.6520   58.1990 C   0  0  0  0  0  0  0  0  0  0  0  0
    8.1700   47.0180   57.8940 C   0  0  0  0  0  0  0  0  0  0  0  0
    9.2200   47.9660   57.6450 C   0  0  0  0  0  0  0  0  0  0  0  0
   10.6680   47.5200   57.7080 C   0  0  0  0  0  0  0  0  0  0  0  0
   11.1840   47.6520   59.0490 N   0  0  0  0  0  0  0  0  0  0  0  0
   12.5170   47.4470   59.3240 C   0  0  0  0  0  0  0  0  0  0  0  0
   13.2970   47.0040   58.4880 O   0  0  0  0  0  0  0  0  0  0  0  0
   12.9740   47.7970   60.7020 C   0  0  0  0  0  0  0  0  0  0  0  0
   12.2470   47.4840   61.8750 C   0  0  0  0  0  0  0  0  0  0  0  0
   11.0580   46.8160   61.7120 O   0  0  0  0  0  0  0  0  0  0  0  0
   10.4020   46.3060   62.8670 C   0  0  0  0  0  0  0  0  0  0  0  0
   12.7570   47.8520   63.1400 C   0  0  0  0  0  0  0  0  0  0  0  0
   13.9690   48.5360   63.2510 C   0  0  0  0  0  0  0  0  0  0  0  0
   14.4980   48.8450   64.4650 O   0  0  0  0  0  0  0  0  0  0  0  0
   14.6640   48.8720   62.1120 C   0  0  0  0  0  0  0  0  0  0  0  0
   14.1710   48.4880   60.8560 C   0  0  0  0  0  0  0  0  0  0  0  0
   15.0290   48.8700   59.8430 O   0  0  0  0  0  0  0  0  0  0  0  0
   16.0180   49.6490   60.4260 C   0  0  0  0  0  0  0  0  0  0  0  0
   16.7230   50.5680   59.7570 C   0  0  0  0  0  0  0  0  0  0  0  0
   17.4490   51.5720   60.5010 C   0  0  0  0  0  0  0  0  0  0  0  0
   18.3570   52.2570   59.7250 O   0  0  0  0  0  0  0  0  0  0  0  0
   17.1680   51.8480   61.7940 C   0  0  0  0  0  0  0  0  0  0  0  0
   17.8790   52.9540   62.4950 C   0  0  0  0  0  0  0  0  0  0  0  0
   18.5540   52.6860   63.8140 C   0  0  0  0  0  0  0  0  0  0  0  0
   17.9230   54.0770   61.9810 O   0  0  0  0  0  0  0  0  0  0  0  0
   16.1210   50.9920   62.4550 C   0  0  0  0  0  0  0  0  0  0  0  0
   15.4610   51.4530   63.3870 O   0  0  0  0  0  0  0  0  0  0  0  0
   15.9880   49.5550   61.9380 C   0  0  1  0  0  0  0  0  0  0  0  0
   17.1310   48.6850   62.4780 C   0  0  0  0  0  0  0  0  0  0  0  0
   11.3041   50.6705   55.3344 H   0  0  0  0  0  0  0  0  0  0  0  0
   10.0271   49.4476   55.0173 H   0  0  0  0  0  0  0  0  0  0  0  0
    9.6160   51.1962   55.0173 H   0  0  0  0  0  0  0  0  0  0  0  0
   10.8681   50.1042   57.5106 H   0  0  0  0  0  0  0  0  0  0  0  0
    9.5453   51.3276   57.2846 H   0  0  0  0  0  0  0  0  0  0  0  0
    7.2983   50.7326   56.9974 H   0  0  0  0  0  0  0  0  0  0  0  0
    5.4854   49.1166   57.4818 H   0  0  0  0  0  0  0  0  0  0  0  0
    4.7315   46.9095   58.0269 H   0  0  0  0  0  0  0  0  0  0  0  0
    5.1891   44.5257   58.5718 H   0  0  0  0  0  0  0  0  0  0  0  0
    7.5409   43.7109   58.6741 H   0  0  0  0  0  0  0  0  0  0  0  0
    9.4195   45.2759   58.2488 H   0  0  0  0  0  0  0  0  0  0  0  0
   10.7354   46.4670   57.3971 H   0  0  0  0  0  0  0  0  0  0  0  0
   11.2634   48.1551   57.0356 H   0  0  0  0  0  0  0  0  0  0  0  0
   10.6480   48.2040   59.7090 H   0  0  0  0  0  0  0  0  0  0  0  0
   10.8976   46.6913   63.7703 H   0  0  0  0  0  0  0  0  0  0  0  0
    9.3494   46.6253   62.8618 H   0  0  0  0  0  0  0  0  0  0  0  0
   10.4519   45.2071   62.8618 H   0  0  0  0  0  0  0  0  0  0  0  0
   12.1922   47.5965   64.0487 H   0  0  0  0  0  0  0  0  0  0  0  0
   15.3980   48.4840   64.5280 H   0  0  0  0  0  0  0  0  0  0  0  0
   16.7498   50.5597   58.6574 H   0  0  0  0  0  0  0  0  0  0  0  0
   17.8630   52.7670   59.0430 H   0  0  0  0  0  0  0  0  0  0  0  0
   17.8740   52.9560   64.6354 H   0  0  0  0  0  0  0  0  0  0  0  0
   18.8091   51.6184   63.8851 H   0  0  0  0  0  0  0  0  0  0  0  0
   19.4720   53.2879   63.8851 H   0  0  0  0  0  0  0  0  0  0  0  0
   17.1137   48.6982   63.5778 H   0  0  0  0  0  0  0  0  0  0  0  0
   17.0053   47.6519   62.1216 H   0  0  0  0  0  0  0  0  0  0  0  0
   18.0933   49.0813   62.1216 H   0  0  0  0  0  0  0  0  0  0  0  0
  1  2  1  0
  2  3  1  0
  3  4  2  0
  4  5  1  0
  5  6  2  0
  6  7  1  0
  7  8  2  0
  8  9  1  0
  9 10  2  0
 10 11  1  0
 11 12  2  0
 12 13  1  0
 13 14  1  0
 14 15  1  0
 15 16  2  0
 15 17  1  0
 17 18  2  0
 18 19  1  0
 19 20  1  0
 18 21  1  0
 21 22  2  0
 22 23  1  0
 22 24  1  0
 24 25  2  0
 25 26  1  0
 26 27  1  0
 27 28  2  0
 28 29  1  0
 29 30  1  0
 29 31  2  0
 31 32  1  0
 32 33  1  0
 32 34  2  0
 31 35  1  0
 35 36  2  0
 35 37  1  0
 37 38  1  1
 12  3  1  0
 25 17  1  0
 37 27  1  0
 11  6  1  0
 37 24  1  0
  1 39  1  0
  1 40  1  0
  1 41  1  0
  2 42  1  0
  2 43  1  0
  4 44  1  0
  5 45  1  0
  7 46  1  0
  8 47  1  0
  9 48  1  0
 10 49  1  0
 13 50  1  0
 13 51  1  0
 14 52  1  0
 20 53  1  0
 20 54  1  0
 20 55  1  0
 21 56  1  0
 23 57  1  0
 28 58  1  0
 30 59  1  0
 33 60  1  0
 33 61  1  0
 33 62  1  0
 38 63  1  0
 38 64  1  0
 38 65  1  0
M  END
>  <meeko>  (1) 
{"is_sidechain": [false], "free_energy": -10.949, "intermolecular_energy": -15.429, "internal_energy": -1.294}

$$$$
3b1m_ligand
     RDKit          3D

 65 69  0  0  0  0  0  0  0  0999 V2000
   10.1210   50.5600   55.6590 C   0  0  0  0  0  0  0  0  0  0  0  0
    9.9560   50.3300   57.1540 C   0  0  0  0  0  0  0  0  0  0  0  0
    8.9230   49.2630   57.4550 C   0  0  0  0  0  0  0  0  0  0  0  0
    7.5810   49.6640   57.5210 C   0  0  0  0  0  0  0  0  0  0  0  0
    6.5710   48.7420   57.7810 C   0  0  0  0  0  0  0  0  0  0  0  0
    6.8670   47.3900   57.9750 C   0  0  0  0  0  0  0  0  0  0  0  0
    5.8240   46.4790   58.2140 C   0  0  0  0  0  0  0  0  0  0  0  0
    6.0800   45.1230   58.4000 C   0  0  0  0  0  0  0  0  0  0  0  0
    7.3870   44.6620   58.3460 C   0  0  0  0  0  0  0  0  0  0  0  0
    8.4340   45.5590   58.1120 C   0  0  0  0  0  0  0  0  0  0  0  0
    8.2120   46.9460   57.9250 C   0  0  0  0  0  0  0  0  0  0  0  0
    9.2540   47.9040   57.6860 C   0  0  0  0  0  0  0  0  0  0  0  0
   10.6980   47.4480   57.6280 C   0  0  0  0  0  0  0  0  0  0  0  0
   11.1660   47.0700   58.9400 N   0  0  0  0  0  0  0  0  0  0  0  0
   11.5910   48.0140   59.8460 C   0  0  0  0  0  0  0  0  0  0  0  0
   11.7340   49.1940   59.5440 O   0  0  0  0  0  0  0  0  0  0  0  0
   11.8700   47.5300   61.2310 C   0  0  0  0  0  0  0  0  0  0  0  0
   11.0340   46.6280   61.9310 C   0  0  0  0  0  0  0  0  0  0  0  0
    9.9120   46.1810   61.2780 O   0  0  0  0  0  0  0  0  0  0  0  0
    9.5730   44.8030   61.3750 C   0  0  0  0  0  0  0  0  0  0  0  0
   11.3780   46.2190   63.2400 C   0  0  0  0  0  0  0  0  0  0  0  0
   12.5280   46.7070   63.8620 C   0  0  0  0  0  0  0  0  0  0  0  0
   12.8990   46.2790   65.0980 O   0  0  0  0  0  0  0  0  0  0  0  0
   13.3260   47.6100   63.1980 C   0  0  0  0  0  0  0  0  0  0  0  0
   13.0000   47.9990   61.8910 C   0  0  0  0  0  0  0  0  0  0  0  0
   13.9430   48.8680   61.3770 O   0  0  0  0  0  0  0  0  0  0  0  0
   14.8140   49.1740   62.4120 C   0  0  0  0  0  0  0  0  0  0  0  0
   15.5370   50.3000   62.4600 C   0  0  0  0  0  0  0  0  0  0  0  0
   16.1150   50.7080   63.7200 C   0  0  0  0  0  0  0  0  0  0  0  0
   17.0640   51.6950   63.5750 O   0  0  0  0  0  0  0  0  0  0  0  0
   15.6750   50.2200   64.9020 C   0  0  0  0  0  0  0  0  0  0  0  0
   16.2380   50.7360   66.1800 C   0  0  0  0  0  0  0  0  0  0  0  0
   17.0330   49.8160   67.0690 C   0  0  0  0  0  0  0  0  0  0  0  0
   16.0640   51.9190   66.4930 O   0  0  0  0  0  0  0  0  0  0  0  0
   14.6110   49.1570   64.8400 C   0  0  0  0  0  0  0  0  0  0  0  0
   13.8260   49.0300   65.7780 O   0  0  0  0  0  0  0  0  0  0  0  0
   14.6200   48.2540   63.6000 C   0  0  1  0  0  0  0  0  0  0  0  0
   15.7430   47.2130   63.7050 C   0  0  0  0  0  0  0  0  0  0  0  0
   10.7547   51.4434   55.4917 H   0  0  0  0  0  0  0  0  0  0  0  0
   10.5936   49.6779   55.2023 H   0  0  0  0  0  0  0  0  0  0  0  0
    9.1340   50.7250   55.2023 H   0  0  0  0  0  0  0  0  0  0  0  0
   10.9231   50.0160   57.5736 H   0  0  0  0  0  0  0  0  0  0  0  0
    9.6122   51.2720   57.6062 H   0  0  0  0  0  0  0  0  0  0  0  0
    7.3227   50.7218   57.3652 H   0  0  0  0  0  0  0  0  0  0  0  0
    5.5262   49.0820   57.8345 H   0  0  0  0  0  0  0  0  0  0  0  0
    4.7870   46.8436   58.2549 H   0  0  0  0  0  0  0  0  0  0  0  0
    5.2525   44.4232   58.5882 H   0  0  0  0  0  0  0  0  0  0  0  0
    7.5998   43.5920   58.4871 H   0  0  0  0  0  0  0  0  0  0  0  0
    9.4641   45.1752   58.0718 H   0  0  0  0  0  0  0  0  0  0  0  0
   10.7768   46.5828   56.9532 H   0  0  0  0  0  0  0  0  0  0  0  0
   11.3168   48.2784   57.2571 H   0  0  0  0  0  0  0  0  0  0  0  0
   10.8780   46.1680   59.3020 H   0  0  0  0  0  0  0  0  0  0  0  0
    9.5025   44.5165   62.4347 H   0  0  0  0  0  0  0  0  0  0  0  0
    8.6050   44.6280   60.8827 H   0  0  0  0  0  0  0  0  0  0  0  0
   10.3493   44.1989   60.8827 H   0  0  0  0  0  0  0  0  0  0  0  0
   10.7314   45.5076   63.7746 H   0  0  0  0  0  0  0  0  0  0  0  0
   12.3430   46.7070   65.7700 H   0  0  0  0  0  0  0  0  0  0  0  0
   15.6887   50.9052   61.5541 H   0  0  0  0  0  0  0  0  0  0  0  0
   17.2030   51.8560   62.6130 H   0  0  0  0  0  0  0  0  0  0  0  0
   16.8263   50.0552   68.1226 H   0  0  0  0  0  0  0  0  0  0  0  0
   16.7471   48.7732   66.8668 H   0  0  0  0  0  0  0  0  0  0  0  0
   18.1062   49.9477   66.8668 H   0  0  0  0  0  0  0  0  0  0  0  0
   15.9592   47.0126   64.7647 H   0  0  0  0  0  0  0  0  0  0  0  0
   15.4267   46.2815   63.2128 H   0  0  0  0  0  0  0  0  0  0  0  0
   16.6479   47.5989   63.2128 H   0  0  0  0  0  0  0  0  0  0  0  0
  1  2  1  0
  2  3  1  0
  3  4  2  0
  4  5  1  0
  5  6  2  0
  6  7  1  0
  7  8  2  0
  8  9  1  0
  9 10  2  0
 10 11  1  0
 11 12  2  0
 12 13  1  0
 13 14  1  0
 14 15  1  0
 15 16  2  0
 15 17  1  0
 17 18  2  0
 18 19  1  0
 19 20  1  0
 18 21  1  0
 21 22  2  0
 22 23  1  0
 22 24  1  0
 24 25  2  0
 25 26  1  0
 26 27  1  0
 27 28  2  0
 28 29  1  0
 29 30  1  0
 29 31  2  0
 31 32  1  0
 32 33  1  0
 32 34  2  0
 31 35  1  0
 35 36  2  0
 35 37  1  0
 37 38  1  1
 12  3  1  0
 25 17  1  0
 37 27  1  0
 11  6  1  0
 37 24  1  0
  1 39  1  0
  1 40  1  0
  1 41  1  0
  2 42  1  0
  2 43  1  0
  4 44  1  0
  5 45  1  0
  7 46  1  0
  8 47  1  0
  9 48  1  0
 10 49  1  0
 13 50  1  0
 13 51  1  0
 14 52  1  0
 20 53  1  0
 20 54  1  0
 20 55  1  0
 21 56  1  0
 23 57  1  0
 28 58  1  0
 30 59  1  0
 33 60  1  0
 33 61  1  0
 33 62  1  0
 38 63  1  0
 38 64  1  0
 38 65  1  0
M  END
>  <meeko>  (2) 
{"is_sidechain": [false], "free_energy": -10.934, "intermolecular_energy": -15.379, "internal_energy": -1.324}

$$$$
3b1m_ligand
     RDKit          3D

 65 69  0  0  0  0  0  0  0  0999 V2000
    9.2160   45.0980   60.4530 C   0  0  0  0  0  0  0  0  0  0  0  0
    9.8530   45.6170   59.1720 C   0  0  0  0  0  0  0  0  0  0  0  0
    9.0100   46.6890   58.5120 C   0  0  0  0  0  0  0  0  0  0  0  0
    7.6190   46.5150   58.5230 C   0  0  0  0  0  0  0  0  0  0  0  0
    6.7750   47.4610   57.9490 C   0  0  0  0  0  0  0  0  0  0  0  0
    7.2910   48.6150   57.3540 C   0  0  0  0  0  0  0  0  0  0  0  0
    6.4120   49.5630   56.8020 C   0  0  0  0  0  0  0  0  0  0  0  0
    6.8910   50.7300   56.2110 C   0  0  0  0  0  0  0  0  0  0  0  0
    8.2570   50.9640   56.1690 C   0  0  0  0  0  0  0  0  0  0  0  0
    9.1410   50.0260   56.7120 C   0  0  0  0  0  0  0  0  0  0  0  0
    8.6920   48.8250   57.3140 C   0  0  0  0  0  0  0  0  0  0  0  0
    9.5610   47.8330   57.8810 C   0  0  0  0  0  0  0  0  0  0  0  0
   11.0630   48.0390   57.8490 C   0  0  0  0  0  0  0  0  0  0  0  0
   11.5880   48.1740   59.1870 N   0  0  0  0  0  0  0  0  0  0  0  0
   12.8630   47.7600   59.4970 C   0  0  0  0  0  0  0  0  0  0  0  0
   13.5580   47.1300   58.7070 O   0  0  0  0  0  0  0  0  0  0  0  0
   13.3670   48.1210   60.8560 C   0  0  0  0  0  0  0  0  0  0  0  0
   12.7050   47.7760   62.0580 C   0  0  0  0  0  0  0  0  0  0  0  0
   11.5360   47.0640   61.9440 O   0  0  0  0  0  0  0  0  0  0  0  0
   10.7770   46.8130   63.1210 C   0  0  0  0  0  0  0  0  0  0  0  0
   13.2570   48.1570   63.3020 C   0  0  0  0  0  0  0  0  0  0  0  0
   14.4460   48.8850   63.3630 C   0  0  0  0  0  0  0  0  0  0  0  0
   15.0170   49.2090   64.5540 O   0  0  0  0  0  0  0  0  0  0  0  0
   15.0770   49.2520   62.1960 C   0  0  0  0  0  0  0  0  0  0  0  0
   14.5430   48.8550   60.9610 C   0  0  0  0  0  0  0  0  0  0  0  0
   15.3400   49.2740   59.9130 O   0  0  0  0  0  0  0  0  0  0  0  0
   16.3250   50.0860   60.4570 C   0  0  0  0  0  0  0  0  0  0  0  0
   16.9650   51.0340   59.7620 C   0  0  0  0  0  0  0  0  0  0  0  0
   17.6860   52.0610   60.4800 C   0  0  0  0  0  0  0  0  0  0  0  0
   18.5320   52.7830   59.6680 O   0  0  0  0  0  0  0  0  0  0  0  0
   17.4520   52.3210   61.7860 C   0  0  0  0  0  0  0  0  0  0  0  0
   18.1520   53.4500   62.4610 C   0  0  0  0  0  0  0  0  0  0  0  0
   18.8950   53.2020   63.7470 C   0  0  0  0  0  0  0  0  0  0  0  0
   18.1310   54.5760   61.9520 O   0  0  0  0  0  0  0  0  0  0  0  0
   16.4680   51.4240   62.4870 C   0  0  0  0  0  0  0  0  0  0  0  0
   15.8340   51.8550   63.4500 O   0  0  0  0  0  0  0  0  0  0  0  0
   16.3660   49.9840   61.9680 C   0  0  1  0  0  0  0  0  0  0  0  0
   17.5630   49.1560   62.4520 C   0  0  0  0  0  0  0  0  0  0  0  0
    9.7393   45.5244   61.3216 H   0  0  0  0  0  0  0  0  0  0  0  0
    8.1568   45.3936   60.4817 H   0  0  0  0  0  0  0  0  0  0  0  0
    9.2915   44.0010   60.4817 H   0  0  0  0  0  0  0  0  0  0  0  0
   10.8400   46.0392   59.4121 H   0  0  0  0  0  0  0  0  0  0  0  0
    9.9403   44.7741   58.4706 H   0  0  0  0  0  0  0  0  0  0  0  0
    7.1885   45.6179   58.9920 H   0  0  0  0  0  0  0  0  0  0  0  0
    5.6872   47.2980   57.9640 H   0  0  0  0  0  0  0  0  0  0  0  0
    5.3279   49.3803   56.8373 H   0  0  0  0  0  0  0  0  0  0  0  0
    6.1904   51.4607   55.7807 H   0  0  0  0  0  0  0  0  0  0  0  0
    8.6446   51.8853   55.7096 H   0  0  0  0  0  0  0  0  0  0  0  0
   10.2215   50.2278   56.6702 H   0  0  0  0  0  0  0  0  0  0  0  0
   11.5358   47.1739   57.3611 H   0  0  0  0  0  0  0  0  0  0  0  0
   11.2819   48.9599   57.2886 H   0  0  0  0  0  0  0  0  0  0  0  0
   11.1530   48.8550   59.7990 H   0  0  0  0  0  0  0  0  0  0  0  0
   11.3959   47.0177   64.0070 H   0  0  0  0  0  0  0  0  0  0  0  0
    9.8921   47.4664   63.1330 H   0  0  0  0  0  0  0  0  0  0  0  0
   10.4561   45.7609   63.1330 H   0  0  0  0  0  0  0  0  0  0  0  0
   12.7433   47.8763   64.2333 H   0  0  0  0  0  0  0  0  0  0  0  0
   15.7830   48.6330   64.7140 H   0  0  0  0  0  0  0  0  0  0  0  0
   16.9428   51.0318   58.6622 H   0  0  0  0  0  0  0  0  0  0  0  0
   19.2530   53.1570   60.2240 H   0  0  0  0  0  0  0  0  0  0  0  0
   18.2358   53.4220   64.5996 H   0  0  0  0  0  0  0  0  0  0  0  0
   19.2116   52.1495   63.7904 H   0  0  0  0  0  0  0  0  0  0  0  0
   19.7804   53.8533   63.7904 H   0  0  0  0  0  0  0  0  0  0  0  0
   17.5800   49.1442   63.5518 H   0  0  0  0  0  0  0  0  0  0  0  0
   17.4728   48.1263   62.0756 H   0  0  0  0  0  0  0  0  0  0  0  0
   18.4947   49.6036   62.0756 H   0  0  0  0  0  0  0  0  0  0  0  0
  1  2  1  0
  2  3  1  0
  3  4  2  0
  4  5  1  0
  5  6  2  0
  6  7  1  0
  7  8  2  0
  8  9  1  0
  9 10  2  0
 10 11  1  0
 11 12  2  0
 12 13  1  0
 13 14  1  0
 14 15  1  0
 15 16  2  0
 15 17  1  0
 17 18  2  0
 18 19  1  0
 19 20  1  0
 18 21  1  0
 21 22  2  0
 22 23  1  0
 22 24  1  0
 24 25  2  0
 25 26  1  0
 26 27  1  0
 27 28  2  0
 28 29  1  0
 29 30  1  0
 29 31  2  0
 31 32  1  0
 32 33  1  0
 32 34  2  0
 31 35  1  0
 35 36  2  0
 35 37  1  0
 37 38  1  6
 12  3  1  0
 25 17  1  0
 37 27  1  0
 11  6  1  0
 37 24  1  0
  1 39  1  0
  1 40  1  0
  1 41  1  0
  2 42  1  0
  2 43  1  0
  4 44  1  0
  5 45  1  0
  7 46  1  0
  8 47  1  0
  9 48  1  0
 10 49  1  0
 13 50  1  0
 13 51  1  0
 14 52  1  0
 20 53  1  0
 20 54  1  0
 20 55  1  0
 21 56  1  0
 23 57  1  0
 28 58  1  0
 30 59  1  0
 33 60  1  0
 33 61  1  0
 33 62  1  0
 38 63  1  0
 38 64  1  0
 38 65  1  0
M  END
>  <meeko>  (3) 
{"is_sidechain": [false], "free_energy": -9.951, "intermolecular_energy": -14.121, "internal_energy": -1.196}

$$$$
3b1m_ligand
     RDKit          3D

 65 69  0  0  0  0  0  0  0  0999 V2000
   10.1150   46.0990   59.3630 C   0  0  0  0  0  0  0  0  0  0  0  0
   11.0690   47.2800   59.2570 C   0  0  0  0  0  0  0  0  0  0  0  0
   11.0220   47.9280   57.8880 C   0  0  0  0  0  0  0  0  0  0  0  0
   10.0220   48.8830   57.6600 C   0  0  0  0  0  0  0  0  0  0  0  0
    9.9200   49.5330   56.4340 C   0  0  0  0  0  0  0  0  0  0  0  0
   10.8170   49.2570   55.3990 C   0  0  0  0  0  0  0  0  0  0  0  0
   10.7020   49.9450   54.1790 C   0  0  0  0  0  0  0  0  0  0  0  0
   11.5860   49.7030   53.1300 C   0  0  0  0  0  0  0  0  0  0  0  0
   12.5990   48.7700   53.2910 C   0  0  0  0  0  0  0  0  0  0  0  0
   12.7220   48.0770   54.4990 C   0  0  0  0  0  0  0  0  0  0  0  0
   11.8380   48.2910   55.5860 C   0  0  0  0  0  0  0  0  0  0  0  0
   11.9220   47.6010   56.8420 C   0  0  0  0  0  0  0  0  0  0  0  0
   13.0070   46.5650   57.0620 C   0  0  0  0  0  0  0  0  0  0  0  0
   14.1110   47.1320   57.7980 N   0  0  0  0  0  0  0  0  0  0  0  0
   15.3310   47.3490   57.1990 C   0  0  0  0  0  0  0  0  0  0  0  0
   15.5880   46.9440   56.0700 O   0  0  0  0  0  0  0  0  0  0  0  0
   16.3370   48.1130   57.9960 C   0  0  0  0  0  0  0  0  0  0  0  0
   17.6450   48.4010   57.5400 C   0  0  0  0  0  0  0  0  0  0  0  0
   17.9850   47.9480   56.2890 O   0  0  0  0  0  0  0  0  0  0  0  0
   18.6760   48.8300   55.4120 C   0  0  0  0  0  0  0  0  0  0  0  0
   18.5320   49.1350   58.3610 C   0  0  0  0  0  0  0  0  0  0  0  0
   18.1400   49.5690   59.6280 C   0  0  0  0  0  0  0  0  0  0  0  0
   18.9630   50.3230   60.4040 O   0  0  0  0  0  0  0  0  0  0  0  0
   16.8800   49.2610   60.0890 C   0  0  0  0  0  0  0  0  0  0  0  0
   15.9900   48.5540   59.2680 C   0  0  0  0  0  0  0  0  0  0  0  0
   14.7650   48.3860   59.8830 O   0  0  0  0  0  0  0  0  0  0  0  0
   14.9010   48.8530   61.1830 C   0  0  0  0  0  0  0  0  0  0  0  0
   14.1330   48.4400   62.1990 C   0  0  0  0  0  0  0  0  0  0  0  0
   14.5750   48.6830   63.5530 C   0  0  0  0  0  0  0  0  0  0  0  0
   13.5770   48.4860   64.4810 O   0  0  0  0  0  0  0  0  0  0  0  0
   15.8630   48.9730   63.8460 C   0  0  0  0  0  0  0  0  0  0  0  0
   16.2910   49.1250   65.2650 C   0  0  0  0  0  0  0  0  0  0  0  0
   16.7770   50.4630   65.7550 C   0  0  0  0  0  0  0  0  0  0  0  0
   16.2280   48.1570   66.0310 O   0  0  0  0  0  0  0  0  0  0  0  0
   16.8030   49.1240   62.6810 C   0  0  0  0  0  0  0  0  0  0  0  0
   18.0000   48.8850   62.8330 O   0  0  0  0  0  0  0  0  0  0  0  0
   16.1880   49.6290   61.3690 C   0  0  1  0  0  0  0  0  0  0  0  0
   15.9380   51.1410   61.4440 C   0  0  0  0  0  0  0  0  0  0  0  0
    9.9305   45.8707   60.4231 H   0  0  0  0  0  0  0  0  0  0  0  0
    9.1638   46.3507   58.8713 H   0  0  0  0  0  0  0  0  0  0  0  0
   10.5611   45.2220   58.8713 H   0  0  0  0  0  0  0  0  0  0  0  0
   10.7923   48.0288   60.0138 H   0  0  0  0  0  0  0  0  0  0  0  0
   12.0907   46.9066   59.4208 H   0  0  0  0  0  0  0  0  0  0  0  0
    9.3077   49.1221   58.4616 H   0  0  0  0  0  0  0  0  0  0  0  0
    9.1224   50.2742   56.2775 H   0  0  0  0  0  0  0  0  0  0  0  0
    9.9004   50.6872   54.0503 H   0  0  0  0  0  0  0  0  0  0  0  0
   11.4812   50.2483   52.1805 H   0  0  0  0  0  0  0  0  0  0  0  0
   13.3045   48.5754   52.4698 H   0  0  0  0  0  0  0  0  0  0  0  0
   13.5320   47.3410   54.6095 H   0  0  0  0  0  0  0  0  0  0  0  0
   12.5900   45.7203   57.6300 H   0  0  0  0  0  0  0  0  0  0  0  0
   13.3731   46.2225   56.0829 H   0  0  0  0  0  0  0  0  0  0  0  0
   13.8980   47.6610   58.6360 H   0  0  0  0  0  0  0  0  0  0  0  0
   19.2483   49.5605   56.0027 H   0  0  0  0  0  0  0  0  0  0  0  0
   19.3640   48.2518   54.7777 H   0  0  0  0  0  0  0  0  0  0  0  0
   17.9500   49.3596   54.7777 H   0  0  0  0  0  0  0  0  0  0  0  0
   19.5436   49.3668   57.9964 H   0  0  0  0  0  0  0  0  0  0  0  0
   18.6930   51.2540   60.3540 H   0  0  0  0  0  0  0  0  0  0  0  0
   13.1809   47.9240   62.0060 H   0  0  0  0  0  0  0  0  0  0  0  0
   13.6760   49.1590   65.1930 H   0  0  0  0  0  0  0  0  0  0  0  0
   16.7801   50.4716   66.8550 H   0  0  0  0  0  0  0  0  0  0  0  0
   17.7972   50.6409   65.3840 H   0  0  0  0  0  0  0  0  0  0  0  0
   16.1088   51.2541   65.3840 H   0  0  0  0  0  0  0  0  0  0  0  0
   15.8865   51.4523   62.4978 H   0  0  0  0  0  0  0  0  0  0  0  0
   16.7602   51.6738   60.9440 H   0  0  0  0  0  0  0  0  0  0  0  0
   14.9880   51.3808   60.9440 H   0  0  0  0  0  0  0  0  0  0  0  0
  1  2  1  0
  2  3  1  0
  3  4  2  0
  4  5  1  0
  5  6  2  0
  6  7  1  0
  7  8  2  0
  8  9  1  0
  9 10  2  0
 10 11  1  0
 11 12  2  0
 12 13  1  0
 13 14  1  0
 14 15  1  0
 15 16  2  0
 15 17  1  0
 17 18  2  0
 18 19  1  0
 19 20  1  0
 18 21  1  0
 21 22  2  0
 22 23  1  0
 22 24  1  0
 24 25  2  0
 25 26  1  0
 26 27  1  0
 27 28  2  0
 28 29  1  0
 29 30  1  0
 29 31  2  0
 31 32  1  0
 32 33  1  0
 32 34  2  0
 31 35  1  0
 35 36  2  0
 35 37  1  0
 37 38  1  1
 12  3  1  0
 25 17  1  0
 37 27  1  0
 11  6  1  0
 37 24  1  0
  1 39  1  0
  1 40  1  0
  1 41  1  0
  2 42  1  0
  2 43  1  0
  4 44  1  0
  5 45  1  0
  7 46  1  0
  8 47  1  0
  9 48  1  0
 10 49  1  0
 13 50  1  0
 13 51  1  0
 14 52  1  0
 20 53  1  0
 20 54  1  0
 20 55  1  0
 21 56  1  0
 23 57  1  0
 28 58  1  0
 30 59  1  0
 33 60  1  0
 33 61  1  0
 33 62  1  0
 38 63  1  0
 38 64  1  0
 38 65  1  0
M  END
>  <meeko>  (4) 
{"is_sidechain": [false], "free_energy": -9.575, "intermolecular_energy": -13.694, "internal_energy": -1.094}

$$$$
3b1m_ligand
     RDKit          3D

 65 69  0  0  0  0  0  0  0  0999 V2000
    7.3100   44.2370   58.7690 C   0  0  0  0  0  0  0  0  0  0  0  0
    8.3260   45.1830   58.1460 C   0  0  0  0  0  0  0  0  0  0  0  0
    7.7710   46.5830   57.9770 C   0  0  0  0  0  0  0  0  0  0  0  0
    6.3900   46.7530   58.1390 C   0  0  0  0  0  0  0  0  0  0  0  0
    5.8040   48.0090   58.0120 C   0  0  0  0  0  0  0  0  0  0  0  0
    6.5790   49.1370   57.7290 C   0  0  0  0  0  0  0  0  0  0  0  0
    5.9630   50.3950   57.6280 C   0  0  0  0  0  0  0  0  0  0  0  0
    6.7060   51.5420   57.3580 C   0  0  0  0  0  0  0  0  0  0  0  0
    8.0790   51.4420   57.1890 C   0  0  0  0  0  0  0  0  0  0  0  0
    8.7030   50.1950   57.2840 C   0  0  0  0  0  0  0  0  0  0  0  0
    7.9790   49.0060   57.5500 C   0  0  0  0  0  0  0  0  0  0  0  0
    8.5760   47.7040   57.6520 C   0  0  0  0  0  0  0  0  0  0  0  0
   10.0720   47.5430   57.4640 C   0  0  0  0  0  0  0  0  0  0  0  0
   10.6990   47.1290   58.6960 N   0  0  0  0  0  0  0  0  0  0  0  0
   11.2790   48.0450   59.5440 C   0  0  0  0  0  0  0  0  0  0  0  0
   11.4230   49.2230   59.2370 O   0  0  0  0  0  0  0  0  0  0  0  0
   11.7240   47.5310   60.8740 C   0  0  0  0  0  0  0  0  0  0  0  0
   10.9980   46.5840   61.6350 C   0  0  0  0  0  0  0  0  0  0  0  0
    9.8220   46.1210   61.0970 O   0  0  0  0  0  0  0  0  0  0  0  0
    8.8350   45.5940   61.9750 C   0  0  0  0  0  0  0  0  0  0  0  0
   11.4980   46.1500   62.8840 C   0  0  0  0  0  0  0  0  0  0  0  0
   12.6960   46.6560   63.3890 C   0  0  0  0  0  0  0  0  0  0  0  0
   13.2150   46.2060   64.5620 O   0  0  0  0  0  0  0  0  0  0  0  0
   13.3900   47.6020   62.6680 C   0  0  0  0  0  0  0  0  0  0  0  0
   12.9080   48.0170   61.4180 C   0  0  0  0  0  0  0  0  0  0  0  0
   13.7630   48.9290   60.8290 O   0  0  0  0  0  0  0  0  0  0  0  0
   14.7360   49.2330   61.7700 C   0  0  0  0  0  0  0  0  0  0  0  0
   15.4280   50.3780   61.7720 C   0  0  0  0  0  0  0  0  0  0  0  0
   16.1330   50.7690   62.9720 C   0  0  0  0  0  0  0  0  0  0  0  0
   17.0320   51.7890   62.7530 O   0  0  0  0  0  0  0  0  0  0  0  0
   15.8420   50.2350   64.1790 C   0  0  0  0  0  0  0  0  0  0  0  0
   16.5300   50.7330   65.4030 C   0  0  0  0  0  0  0  0  0  0  0  0
   17.3860   49.7930   66.2100 C   0  0  0  0  0  0  0  0  0  0  0  0
   16.4080   51.9170   65.7360 O   0  0  0  0  0  0  0  0  0  0  0  0
   14.8080   49.1420   64.2040 C   0  0  0  0  0  0  0  0  0  0  0  0
   14.1370   48.9650   65.2190 O   0  0  0  0  0  0  0  0  0  0  0  0
   14.7020   48.2740   62.9430 C   0  0  1  0  0  0  0  0  0  0  0  0
   15.8580   47.2670   62.8900 C   0  0  0  0  0  0  0  0  0  0  0  0
    7.3759   44.2984   59.8653 H   0  0  0  0  0  0  0  0  0  0  0  0
    6.2978   44.5217   58.4460 H   0  0  0  0  0  0  0  0  0  0  0  0
    7.5218   43.2070   58.4460 H   0  0  0  0  0  0  0  0  0  0  0  0
    9.2129   45.2288   58.7951 H   0  0  0  0  0  0  0  0  0  0  0  0
    8.5818   44.7968   57.1483 H   0  0  0  0  0  0  0  0  0  0  0  0
    5.7598   45.8815   58.3698 H   0  0  0  0  0  0  0  0  0  0  0  0
    4.7162   48.1153   58.1360 H   0  0  0  0  0  0  0  0  0  0  0  0
    4.8745   50.4761   57.7645 H   0  0  0  0  0  0  0  0  0  0  0  0
    6.2076   52.5195   57.2794 H   0  0  0  0  0  0  0  0  0  0  0  0
    8.6756   52.3423   56.9806 H   0  0  0  0  0  0  0  0  0  0  0  0
    9.7928   50.1343   57.1477 H   0  0  0  0  0  0  0  0  0  0  0  0
   10.2591   46.7835   56.6906 H   0  0  0  0  0  0  0  0  0  0  0  0
   10.4964   48.5109   57.1589 H   0  0  0  0  0  0  0  0  0  0  0  0
   10.4280   46.2330   59.0860 H   0  0  0  0  0  0  0  0  0  0  0  0
    9.1453   45.7597   63.0172 H   0  0  0  0  0  0  0  0  0  0  0  0
    7.8751   46.0996   61.7934 H   0  0  0  0  0  0  0  0  0  0  0  0
    8.7212   44.5151   61.7934 H   0  0  0  0  0  0  0  0  0  0  0  0
   10.9356   45.4042   63.4648 H   0  0  0  0  0  0  0  0  0  0  0  0
   12.8610   46.7330   65.2970 H   0  0  0  0  0  0  0  0  0  0  0  0
   15.4601   51.0124   60.8740 H   0  0  0  0  0  0  0  0  0  0  0  0
   17.7610   51.7080   63.4090 H   0  0  0  0  0  0  0  0  0  0  0  0
   17.2202   49.9750   67.2821 H   0  0  0  0  0  0  0  0  0  0  0  0
   17.1175   48.7539   65.9687 H   0  0  0  0  0  0  0  0  0  0  0  0
   18.4456   49.9634   65.9687 H   0  0  0  0  0  0  0  0  0  0  0  0
   16.1613   47.0028   63.9138 H   0  0  0  0  0  0  0  0  0  0  0  0
   15.5309   46.3608   62.3591 H   0  0  0  0  0  0  0  0  0  0  0  0
   16.7107   47.7153   62.3591 H   0  0  0  0  0  0  0  0  0  0  0  0
  1  2  1  0
  2  3  1  0
  3  4  2  0
  4  5  1  0
  5  6  2  0
  6  7  1  0
  7  8  2  0
  8  9  1  0
  9 10  2  0
 10 11  1  0
 11 12  2  0
 12 13  1  0
 13 14  1  0
 14 15  1  0
 15 16  2  0
 15 17  1  0
 17 18  2  0
 18 19  1  0
 19 20  1  0
 18 21  1  0
 21 22  2  0
 22 23  1  0
 22 24  1  0
 24 25  2  0
 25 26  1  0
 26 27  1  0
 27 28  2  0
 28 29  1  0
 29 30  1  0
 29 31  2  0
 31 32  1  0
 32 33  1  0
 32 34  2  0
 31 35  1  0
 35 36  2  0
 35 37  1  0
 37 38  1  6
 12  3  1  0
 25 17  1  0
 37 27  1  0
 11  6  1  0
 37 24  1  0
  1 39  1  0
  1 40  1  0
  1 41  1  0
  2 42  1  0
  2 43  1  0
  4 44  1  0
  5 45  1  0
  7 46  1  0
  8 47  1  0
  9 48  1  0
 10 49  1  0
 13 50  1  0
 13 51  1  0
 14 52  1  0
 20 53  1  0
 20 54  1  0
 20 55  1  0
 21 56  1  0
 23 57  1  0
 28 58  1  0
 30 59  1  0
 33 60  1  0
 33 61  1  0
 33 62  1  0
 38 63  1  0
 38 64  1  0
 38 65  1  0
M  END
>  <meeko>  (5) 
{"is_sidechain": [false], "free_energy": -9.388, "intermolecular_energy": -13.191, "internal_energy": -1.332}

$$$$
3b1m_ligand
     RDKit          3D

 65 69  0  0  0  0  0  0  0  0999 V2000
   10.4720   50.9840   55.3660 C   0  0  0  0  0  0  0  0  0  0  0  0
   10.4050   50.6780   56.8550 C   0  0  0  0  0  0  0  0  0  0  0  0
    9.0790   50.0600   57.2500 C   0  0  0  0  0  0  0  0  0  0  0  0
    8.0520   50.9300   57.6430 C   0  0  0  0  0  0  0  0  0  0  0  0
    6.8020   50.4410   58.0090 C   0  0  0  0  0  0  0  0  0  0  0  0
    6.5320   49.0700   57.9850 C   0  0  0  0  0  0  0  0  0  0  0  0
    5.2530   48.6080   58.3380 C   0  0  0  0  0  0  0  0  0  0  0  0
    4.9460   47.2500   58.3150 C   0  0  0  0  0  0  0  0  0  0  0  0
    5.9170   46.3370   57.9340 C   0  0  0  0  0  0  0  0  0  0  0  0
    7.1950   46.7840   57.5830 C   0  0  0  0  0  0  0  0  0  0  0  0
    7.5460   48.1560   57.6010 C   0  0  0  0  0  0  0  0  0  0  0  0
    8.8440   48.6620   57.2530 C   0  0  0  0  0  0  0  0  0  0  0  0
    9.9410   47.7010   56.8400 C   0  0  0  0  0  0  0  0  0  0  0  0
   11.1180   47.8900   57.6530 N   0  0  0  0  0  0  0  0  0  0  0  0
   12.1410   46.9700   57.6510 C   0  0  0  0  0  0  0  0  0  0  0  0
   12.0480   45.8870   57.0850 O   0  0  0  0  0  0  0  0  0  0  0  0
   13.3870   47.3600   58.3770 C   0  0  0  0  0  0  0  0  0  0  0  0
   14.6770   47.3330   57.7950 C   0  0  0  0  0  0  0  0  0  0  0  0
   14.7630   46.9260   56.4860 O   0  0  0  0  0  0  0  0  0  0  0  0
   16.0330   46.9600   55.8460 C   0  0  0  0  0  0  0  0  0  0  0  0
   15.8030   47.7230   58.5560 C   0  0  0  0  0  0  0  0  0  0  0  0
   15.6630   48.1230   59.8860 C   0  0  0  0  0  0  0  0  0  0  0  0
   16.7290   48.5530   60.6110 O   0  0  0  0  0  0  0  0  0  0  0  0
   14.4140   48.1190   60.4660 C   0  0  0  0  0  0  0  0  0  0  0  0
   13.2930   47.7550   59.7060 C   0  0  0  0  0  0  0  0  0  0  0  0
   12.1310   47.8610   60.4460 O   0  0  0  0  0  0  0  0  0  0  0  0
   12.5090   48.1490   61.7490 C   0  0  0  0  0  0  0  0  0  0  0  0
   11.7550   47.8610   62.8160 C   0  0  0  0  0  0  0  0  0  0  0  0
   12.3680   47.8480   64.1250 C   0  0  0  0  0  0  0  0  0  0  0  0
   11.4440   47.8360   65.1460 O   0  0  0  0  0  0  0  0  0  0  0  0
   13.7080   47.7560   64.2870 C   0  0  0  0  0  0  0  0  0  0  0  0
   14.2900   47.6530   65.6540 C   0  0  0  0  0  0  0  0  0  0  0  0
   15.5470   48.4130   65.9860 C   0  0  0  0  0  0  0  0  0  0  0  0
   13.7280   46.9600   66.5090 O   0  0  0  0  0  0  0  0  0  0  0  0
   14.5420   47.7620   63.0340 C   0  0  0  0  0  0  0  0  0  0  0  0
   15.6360   47.1990   63.0320 O   0  0  0  0  0  0  0  0  0  0  0  0
   13.9710   48.5340   61.8380 C   0  0  1  0  0  0  0  0  0  0  0  0
   14.1530   50.0440   62.0420 C   0  0  0  0  0  0  0  0  0  0  0  0
   10.7052   52.0491   55.2207 H   0  0  0  0  0  0  0  0  0  0  0  0
   11.2570   50.3699   54.9004 H   0  0  0  0  0  0  0  0  0  0  0  0
    9.5023   50.7541   54.9004 H   0  0  0  0  0  0  0  0  0  0  0  0
   11.2133   49.9767   57.1099 H   0  0  0  0  0  0  0  0  0  0  0  0
   10.5131   51.6266   57.4013 H   0  0  0  0  0  0  0  0  0  0  0  0
    8.2372   52.0141   57.6622 H   0  0  0  0  0  0  0  0  0  0  0  0
    6.0152   51.1433   58.3216 H   0  0  0  0  0  0  0  0  0  0  0  0
    4.4807   49.3317   58.6378 H   0  0  0  0  0  0  0  0  0  0  0  0
    3.9405   46.9043   58.5970 H   0  0  0  0  0  0  0  0  0  0  0  0
    5.6828   45.2625   57.9077 H   0  0  0  0  0  0  0  0  0  0  0  0
    7.9528   46.0453   57.2830 H   0  0  0  0  0  0  0  0  0  0  0  0
    9.5809   46.6687   56.9607 H   0  0  0  0  0  0  0  0  0  0  0  0
   10.2026   47.8938   55.7891 H   0  0  0  0  0  0  0  0  0  0  0  0
   11.3330   48.8320   57.9590 H   0  0  0  0  0  0  0  0  0  0  0  0
   16.8268   46.9812   56.6072 H   0  0  0  0  0  0  0  0  0  0  0  0
   16.1512   46.0647   55.2179 H   0  0  0  0  0  0  0  0  0  0  0  0
   16.1031   47.8603   55.2179 H   0  0  0  0  0  0  0  0  0  0  0  0
   16.8014   47.7111   58.0944 H   0  0  0  0  0  0  0  0  0  0  0  0
   17.4040   47.8560   60.6400 H   0  0  0  0  0  0  0  0  0  0  0  0
   10.6844   47.6374   62.6989 H   0  0  0  0  0  0  0  0  0  0  0  0
   10.5860   47.5150   64.7860 H   0  0  0  0  0  0  0  0  0  0  0  0
   15.6574   48.4797   67.0784 H   0  0  0  0  0  0  0  0  0  0  0  0
   16.4156   47.8886   65.5610 H   0  0  0  0  0  0  0  0  0  0  0  0
   15.4862   49.4258   65.5610 H   0  0  0  0  0  0  0  0  0  0  0  0
   14.1800   50.2679   63.1186 H   0  0  0  0  0  0  0  0  0  0  0  0
   15.0964   50.3658   61.5768 H   0  0  0  0  0  0  0  0  0  0  0  0
   13.3130   50.5807   61.5768 H   0  0  0  0  0  0  0  0  0  0  0  0
  1  2  1  0
  2  3  1  0
  3  4  2  0
  4  5  1  0
  5  6  2  0
  6  7  1  0
  7  8  2  0
  8  9  1  0
  9 10  2  0
 10 11  1  0
 11 12  2  0
 12 13  1  0
 13 14  1  0
 14 15  1  0
 15 16  2  0
 15 17  1  0
 17 18  2  0
 18 19  1  0
 19 20  1  0
 18 21  1  0
 21 22  2  0
 22 23  1  0
 22 24  1  0
 24 25  2  0
 25 26  1  0
 26 27  1  0
 27 28  2  0
 28 29  1  0
 29 30  1  0
 29 31  2  0
 31 32  1  0
 32 33  1  0
 32 34  2  0
 31 35  1  0
 35 36  2  0
 35 37  1  0
 37 38  1  1
 12  3  1  0
 25 17  1  0
 37 27  1  0
 11  6  1  0
 37 24  1  0
  1 39  1  0
  1 40  1  0
  1 41  1  0
  2 42  1  0
  2 43  1  0
  4 44  1  0
  5 45  1  0
  7 46  1  0
  8 47  1  0
  9 48  1  0
 10 49  1  0
 13 50  1  0
 13 51  1  0
 14 52  1  0
 20 53  1  0
 20 54  1  0
 20 55  1  0
 21 56  1  0
 23 57  1  0
 28 58  1  0
 30 59  1  0
 33 60  1  0
 33 61  1  0
 33 62  1  0
 38 63  1  0
 38 64  1  0
 38 65  1  0
M  END
>  <meeko>  (6) 
{"is_sidechain": [false], "free_energy": -9.044, "intermolecular_energy": -13.037, "internal_energy": -1.001}

$$$$
3b1m_ligand
     RDKit          3D

 65 69  0  0  0  0  0  0  0  0999 V2000
    9.9780   45.8490   59.8100 C   0  0  0  0  0  0  0  0  0  0  0  0
   11.0380   46.9230   59.6150 C   0  0  0  0  0  0  0  0  0  0  0  0
   10.9140   47.6070   58.2690 C   0  0  0  0  0  0  0  0  0  0  0  0
    9.7620   48.3710   58.0360 C   0  0  0  0  0  0  0  0  0  0  0  0
    9.5780   49.0400   56.8300 C   0  0  0  0  0  0  0  0  0  0  0  0
   10.5420   48.9760   55.8200 C   0  0  0  0  0  0  0  0  0  0  0  0
   10.3390   49.6800   54.6210 C   0  0  0  0  0  0  0  0  0  0  0  0
   11.2840   49.6490   53.5990 C   0  0  0  0  0  0  0  0  0  0  0  0
   12.4470   48.9120   53.7660 C   0  0  0  0  0  0  0  0  0  0  0  0
   12.6590   48.2050   54.9530 C   0  0  0  0  0  0  0  0  0  0  0  0
   11.7180   48.2080   56.0120 C   0  0  0  0  0  0  0  0  0  0  0  0
   11.8900   47.4950   57.2470 C   0  0  0  0  0  0  0  0  0  0  0  0
   13.1410   46.6680   57.4710 C   0  0  0  0  0  0  0  0  0  0  0  0
   14.3020   47.5180   57.5770 N   0  0  0  0  0  0  0  0  0  0  0  0
   14.8880   47.7770   58.7950 C   0  0  0  0  0  0  0  0  0  0  0  0
   14.3800   47.4270   59.8540 O   0  0  0  0  0  0  0  0  0  0  0  0
   16.1900   48.5080   58.7640 C   0  0  0  0  0  0  0  0  0  0  0  0
   17.2410   48.2050   57.8670 C   0  0  0  0  0  0  0  0  0  0  0  0
   17.0270   47.1800   56.9780 O   0  0  0  0  0  0  0  0  0  0  0  0
   17.3270   47.3990   55.6040 C   0  0  0  0  0  0  0  0  0  0  0  0
   18.4400   48.9530   57.9060 C   0  0  0  0  0  0  0  0  0  0  0  0
   18.6100   49.9830   58.8330 C   0  0  0  0  0  0  0  0  0  0  0  0
   19.7350   50.7460   58.8440 O   0  0  0  0  0  0  0  0  0  0  0  0
   17.6040   50.2590   59.7300 C   0  0  0  0  0  0  0  0  0  0  0  0
   16.4040   49.5340   59.6770 C   0  0  0  0  0  0  0  0  0  0  0  0
   15.5030   49.9890   60.6210 O   0  0  0  0  0  0  0  0  0  0  0  0
   16.1730   50.9180   61.4030 C   0  0  0  0  0  0  0  0  0  0  0  0
   15.8230   51.2120   62.6610 C   0  0  0  0  0  0  0  0  0  0  0  0
   16.7750   51.8910   63.5110 C   0  0  0  0  0  0  0  0  0  0  0  0
   16.2000   52.3950   64.6560 O   0  0  0  0  0  0  0  0  0  0  0  0
   18.0960   51.9200   63.2270 C   0  0  0  0  0  0  0  0  0  0  0  0
   19.0520   52.5520   64.1790 C   0  0  0  0  0  0  0  0  0  0  0  0
   19.7750   53.8120   63.7810 C   0  0  0  0  0  0  0  0  0  0  0  0
   19.2310   52.0470   65.2930 O   0  0  0  0  0  0  0  0  0  0  0  0
   18.5230   51.2890   61.9290 C   0  0  0  0  0  0  0  0  0  0  0  0
   19.6580   50.8260   61.8240 O   0  0  0  0  0  0  0  0  0  0  0  0
   17.4980   51.3180   60.7880 C   0  0  1  0  0  0  0  0  0  0  0  0
   17.4370   52.7170   60.1610 C   0  0  0  0  0  0  0  0  0  0  0  0
    9.8159   45.6848   60.8855 H   0  0  0  0  0  0  0  0  0  0  0  0
    9.0366   46.1738   59.3427 H   0  0  0  0  0  0  0  0  0  0  0  0
   10.3151   44.9120   59.3427 H   0  0  0  0  0  0  0  0  0  0  0  0
   10.9287   47.6776   60.4079 H   0  0  0  0  0  0  0  0  0  0  0  0
   12.0243   46.4381   59.6594 H   0  0  0  0  0  0  0  0  0  0  0  0
    8.9920   48.4427   58.8183 H   0  0  0  0  0  0  0  0  0  0  0  0
    8.6617   49.6270   56.6693 H   0  0  0  0  0  0  0  0  0  0  0  0
    9.4175   50.2657   54.4875 H   0  0  0  0  0  0  0  0  0  0  0  0
   11.1095   50.2049   52.6660 H   0  0  0  0  0  0  0  0  0  0  0  0
   13.2012   48.8839   52.9657 H   0  0  0  0  0  0  0  0  0  0  0  0
   13.5877   47.6269   55.0687 H   0  0  0  0  0  0  0  0  0  0  0  0
   13.0303   46.0903   58.4005 H   0  0  0  0  0  0  0  0  0  0  0  0
   13.2754   45.9909   56.6146 H   0  0  0  0  0  0  0  0  0  0  0  0
   14.8670   47.6510   56.7450 H   0  0  0  0  0  0  0  0  0  0  0  0
   18.2129   48.0457   55.5207 H   0  0  0  0  0  0  0  0  0  0  0  0
   17.5295   46.4348   55.1147 H   0  0  0  0  0  0  0  0  0  0  0  0
   16.4704   47.8857   55.1147 H   0  0  0  0  0  0  0  0  0  0  0  0
   19.2487   48.7207   57.1974 H   0  0  0  0  0  0  0  0  0  0  0  0
   20.4250   50.2990   59.3620 H   0  0  0  0  0  0  0  0  0  0  0  0
   14.8272   50.9414   63.0419 H   0  0  0  0  0  0  0  0  0  0  0  0
   16.1730   51.6800   65.3330 H   0  0  0  0  0  0  0  0  0  0  0  0
   20.0874   54.3564   64.6843 H   0  0  0  0  0  0  0  0  0  0  0  0
   20.6618   53.5529   63.1840 H   0  0  0  0  0  0  0  0  0  0  0  0
   19.1038   54.4469   63.1840 H   0  0  0  0  0  0  0  0  0  0  0  0
   17.4040   53.4747   60.9577 H   0  0  0  0  0  0  0  0  0  0  0  0
   18.3289   52.8788   59.5379 H   0  0  0  0  0  0  0  0  0  0  0  0
   16.5344   52.8005   59.5379 H   0  0  0  0  0  0  0  0  0  0  0  0
  1  2  1  0
  2  3  1  0
  3  4  2  0
  4  5  1  0
  5  6  2  0
  6  7  1  0
  7  8  2  0
  8  9  1  0
  9 10  2  0
 10 11  1  0
 11 12  2  0
 12 13  1  0
 13 14  1  0
 14 15  1  0
 15 16  2  0
 15 17  1  0
 17 18  2  0
 18 19  1  0
 19 20  1  0
 18 21  1  0
 21 22  2  0
 22 23  1  0
 22 24  1  0
 24 25  2  0
 25 26  1  0
 26 27  1  0
 27 28  2  0
 28 29  1  0
 29 30  1  0
 29 31  2  0
 31 32  1  0
 32 33  1  0
 32 34  2  0
 31 35  1  0
 35 36  2  0
 35 37  1  0
 37 38  1  6
 12  3  1  0
 25 17  1  0
 37 27  1  0
 11  6  1  0
 37 24  1  0
  1 39  1  0
  1 40  1  0
  1 41  1  0
  2 42  1  0
  2 43  1  0
  4 44  1  0
  5 45  1  0
  7 46  1  0
  8 47  1  0
  9 48  1  0
 10 49  1  0
 13 50  1  0
 13 51  1  0
 14 52  1  0
 20 53  1  0
 20 54  1  0
 20 55  1  0
 21 56  1  0
 23 57  1  0
 28 58  1  0
 30 59  1  0
 33 60  1  0
 33 61  1  0
 33 62  1  0
 38 63  1  0
 38 64  1  0
 38 65  1  0
M  END
>  <meeko>  (7) 
{"is_sidechain": [false], "free_energy": -8.725, "intermolecular_energy": -12.239, "internal_energy": -1.351}

$$$$
3b1m_ligand
     RDKit          3D

 65 69  0  0  0  0  0  0  0  0999 V2000
    9.9490   45.0650   61.4600 C   0  0  0  0  0  0  0  0  0  0  0  0
   10.4600   46.4930   61.3240 C   0  0  0  0  0  0  0  0  0  0  0  0
   11.4870   46.8320   62.3850 C   0  0  0  0  0  0  0  0  0  0  0  0
   11.0800   46.7620   63.7240 C   0  0  0  0  0  0  0  0  0  0  0  0
   11.9670   47.0470   64.7580 C   0  0  0  0  0  0  0  0  0  0  0  0
   13.2910   47.4030   64.4890 C   0  0  0  0  0  0  0  0  0  0  0  0
   14.1690   47.6630   65.5550 C   0  0  0  0  0  0  0  0  0  0  0  0
   15.4990   48.0090   65.3240 C   0  0  0  0  0  0  0  0  0  0  0  0
   15.9660   48.0950   64.0210 C   0  0  0  0  0  0  0  0  0  0  0  0
   15.1010   47.8410   62.9530 C   0  0  0  0  0  0  0  0  0  0  0  0
   13.7410   47.4930   63.1480 C   0  0  0  0  0  0  0  0  0  0  0  0
   12.8150   47.2270   62.0840 C   0  0  0  0  0  0  0  0  0  0  0  0
   13.2770   47.3190   60.6430 C   0  0  0  0  0  0  0  0  0  0  0  0
   14.5690   47.9570   60.5610 N   0  0  0  0  0  0  0  0  0  0  0  0
   15.1930   48.1520   59.3500 C   0  0  0  0  0  0  0  0  0  0  0  0
   14.7640   47.6700   58.3070 O   0  0  0  0  0  0  0  0  0  0  0  0
   16.4290   48.9900   59.3650 C   0  0  0  0  0  0  0  0  0  0  0  0
   17.5200   48.7990   58.4840 C   0  0  0  0  0  0  0  0  0  0  0  0
   17.4100   47.7820   57.5670 O   0  0  0  0  0  0  0  0  0  0  0  0
   17.6970   48.0650   56.2030 C   0  0  0  0  0  0  0  0  0  0  0  0
   18.6500   49.6430   58.5670 C   0  0  0  0  0  0  0  0  0  0  0  0
   18.7140   50.6600   59.5210 C   0  0  0  0  0  0  0  0  0  0  0  0
   19.7700   51.5140   59.5750 O   0  0  0  0  0  0  0  0  0  0  0  0
   17.6700   50.8290   60.4030 C   0  0  0  0  0  0  0  0  0  0  0  0
   16.5370   50.0070   60.3070 C   0  0  0  0  0  0  0  0  0  0  0  0
   15.5820   50.3610   61.2400 O   0  0  0  0  0  0  0  0  0  0  0  0
   16.1560   51.3230   62.0580 C   0  0  0  0  0  0  0  0  0  0  0  0
   15.7570   51.5550   63.3140 C   0  0  0  0  0  0  0  0  0  0  0  0
   16.6310   52.2900   64.2010 C   0  0  0  0  0  0  0  0  0  0  0  0
   15.9930   52.7150   65.3450 O   0  0  0  0  0  0  0  0  0  0  0  0
   17.9510   52.4360   63.9470 C   0  0  0  0  0  0  0  0  0  0  0  0
   18.8310   53.1220   64.9340 C   0  0  0  0  0  0  0  0  0  0  0  0
   19.3520   54.5030   64.6340 C   0  0  0  0  0  0  0  0  0  0  0  0
   19.1120   52.5600   65.9990 O   0  0  0  0  0  0  0  0  0  0  0  0
   18.4550   51.8760   62.6440 C   0  0  0  0  0  0  0  0  0  0  0  0
   19.6270   51.5130   62.5530 O   0  0  0  0  0  0  0  0  0  0  0  0
   17.4540   51.8480   61.4820 C   0  0  1  0  0  0  0  0  0  0  0  0
   17.2880   53.2530   60.8860 C   0  0  0  0  0  0  0  0  0  0  0  0
    9.8572   44.8084   62.5257 H   0  0  0  0  0  0  0  0  0  0  0  0
    8.9647   44.9801   60.9763 H   0  0  0  0  0  0  0  0  0  0  0  0
   10.6560   44.3749   60.9763 H   0  0  0  0  0  0  0  0  0  0  0  0
   10.9212   46.6122   60.3325 H   0  0  0  0  0  0  0  0  0  0  0  0
    9.6047   47.1732   61.4495 H   0  0  0  0  0  0  0  0  0  0  0  0
   10.0443   46.4776   63.9614 H   0  0  0  0  0  0  0  0  0  0  0  0
   11.6211   46.9912   65.8007 H   0  0  0  0  0  0  0  0  0  0  0  0
   13.8003   47.5922   66.5889 H   0  0  0  0  0  0  0  0  0  0  0  0
   16.1734   48.2124   66.1689 H   0  0  0  0  0  0  0  0  0  0  0  0
   17.0154   48.3627   63.8284 H   0  0  0  0  0  0  0  0  0  0  0  0
   15.4889   47.9136   61.9262 H   0  0  0  0  0  0  0  0  0  0  0  0
   13.3473   46.3056   60.2210 H   0  0  0  0  0  0  0  0  0  0  0  0
   12.5498   47.9190   60.0762 H   0  0  0  0  0  0  0  0  0  0  0  0
   14.8560   48.5430   61.3370 H   0  0  0  0  0  0  0  0  0  0  0  0
   18.4792   48.8363   56.1453 H   0  0  0  0  0  0  0  0  0  0  0  0
   18.0475   47.1493   55.7044 H   0  0  0  0  0  0  0  0  0  0  0  0
   16.7863   48.4283   55.7044 H   0  0  0  0  0  0  0  0  0  0  0  0
   19.4895   49.4969   57.8714 H   0  0  0  0  0  0  0  0  0  0  0  0
   19.4660   52.4180   59.3920 H   0  0  0  0  0  0  0  0  0  0  0  0
   14.7799   51.1924   63.6660 H   0  0  0  0  0  0  0  0  0  0  0  0
   15.0210   52.6200   65.2140 H   0  0  0  0  0  0  0  0  0  0  0  0
   19.5517   55.0325   65.5773 H   0  0  0  0  0  0  0  0  0  0  0  0
   20.2827   54.4255   64.0528 H   0  0  0  0  0  0  0  0  0  0  0  0
   18.6020   55.0596   64.0528 H   0  0  0  0  0  0  0  0  0  0  0  0
   17.2011   53.9884   61.6994 H   0  0  0  0  0  0  0  0  0  0  0  0
   18.1639   53.4940   60.2658 H   0  0  0  0  0  0  0  0  0  0  0  0
   16.3800   53.2833   60.2658 H   0  0  0  0  0  0  0  0  0  0  0  0
  1  2  1  0
  2  3  1  0
  3  4  2  0
  4  5  1  0
  5  6  2  0
  6  7  1  0
  7  8  2  0
  8  9  1  0
  9 10  2  0
 10 11  1  0
 11 12  2  0
 12 13  1  0
 13 14  1  0
 14 15  1  0
 15 16  2  0
 15 17  1  0
 17 18  2  0
 18 19  1  0
 19 20  1  0
 18 21  1  0
 21 22  2  0
 22 23  1  0
 22 24  1  0
 24 25  2  0
 25 26  1  0
 26 27  1  0
 27 28  2  0
 28 29  1  0
 29 30  1  0
 29 31  2  0
 31 32  1  0
 32 33  1  0
 32 34  2  0
 31 35  1  0
 35 36  2  0
 35 37  1  0
 37 38  1  6
 12  3  1  0
 25 17  1  0
 37 27  1  0
 11  6  1  0
 37 24  1  0
  1 39  1  0
  1 40  1  0
  1 41  1  0
  2 42  1  0
  2 43  1  0
  4 44  1  0
  5 45  1  0
  7 46  1  0
  8 47  1  0
  9 48  1  0
 10 49  1  0
 13 50  1  0
 13 51  1  0
 14 52  1  0
 20 53  1  0
 20 54  1  0
 20 55  1  0
 21 56  1  0
 23 57  1  0
 28 58  1  0
 30 59  1  0
 33 60  1  0
 33 61  1  0
 33 62  1  0
 38 63  1  0
 38 64  1  0
 38 65  1  0
M  END
>  <meeko>  (8) 
{"is_sidechain": [false], "free_energy": -8.716, "intermolecular_energy": -13.043, "internal_energy": -0.534}

$$$$
3b1m_ligand
     RDKit          3D

 65 69  0  0  0  0  0  0  0  0999 V2000
   17.0880   47.3550   55.8640 C   0  0  0  0  0  0  0  0  0  0  0  0
   16.7170   47.4990   57.3340 C   0  0  0  0  0  0  0  0  0  0  0  0
   15.2240   47.3670   57.5590 C   0  0  0  0  0  0  0  0  0  0  0  0
   14.4670   46.7730   56.5390 C   0  0  0  0  0  0  0  0  0  0  0  0
   13.0930   46.6050   56.6740 C   0  0  0  0  0  0  0  0  0  0  0  0
   12.4300   47.0160   57.8340 C   0  0  0  0  0  0  0  0  0  0  0  0
   11.0450   46.8130   57.9510 C   0  0  0  0  0  0  0  0  0  0  0  0
   10.3540   47.1990   59.0970 C   0  0  0  0  0  0  0  0  0  0  0  0
   11.0450   47.7920   60.1430 C   0  0  0  0  0  0  0  0  0  0  0  0
   12.4230   48.0020   60.0380 C   0  0  0  0  0  0  0  0  0  0  0  0
   13.1580   47.6290   58.8850 C   0  0  0  0  0  0  0  0  0  0  0  0
   14.5710   47.8270   58.7300 C   0  0  0  0  0  0  0  0  0  0  0  0
   15.3670   48.4810   59.8430 C   0  0  0  0  0  0  0  0  0  0  0  0
   14.6590   48.3890   61.0970 N   0  0  0  0  0  0  0  0  0  0  0  0
   15.2270   47.7830   62.1940 C   0  0  0  0  0  0  0  0  0  0  0  0
   16.2860   47.1670   62.1280 O   0  0  0  0  0  0  0  0  0  0  0  0
   14.4880   47.9160   63.4850 C   0  0  0  0  0  0  0  0  0  0  0  0
   13.2970   47.2130   63.7850 C   0  0  0  0  0  0  0  0  0  0  0  0
   12.8150   46.3610   62.8200 O   0  0  0  0  0  0  0  0  0  0  0  0
   11.4880   45.8660   62.9530 C   0  0  0  0  0  0  0  0  0  0  0  0
   12.6650   47.3970   65.0350 C   0  0  0  0  0  0  0  0  0  0  0  0
   13.1920   48.2780   65.9800 C   0  0  0  0  0  0  0  0  0  0  0  0
   12.6250   48.4220   67.2070 O   0  0  0  0  0  0  0  0  0  0  0  0
   14.3320   48.9900   65.6800 C   0  0  0  0  0  0  0  0  0  0  0  0
   14.9740   48.7910   64.4490 C   0  0  0  0  0  0  0  0  0  0  0  0
   16.1220   49.5540   64.3550 O   0  0  0  0  0  0  0  0  0  0  0  0
   16.1510   50.3770   65.4710 C   0  0  0  0  0  0  0  0  0  0  0  0
   16.8020   51.5450   65.5080 C   0  0  0  0  0  0  0  0  0  0  0  0
   16.4780   52.4950   66.5490 C   0  0  0  0  0  0  0  0  0  0  0  0
   17.4080   53.5050   66.6570 O   0  0  0  0  0  0  0  0  0  0  0  0
   15.3260   52.4200   67.2530 C   0  0  0  0  0  0  0  0  0  0  0  0
   14.9910   53.4730   68.2520 C   0  0  0  0  0  0  0  0  0  0  0  0
   13.7750   54.3360   68.0440 C   0  0  0  0  0  0  0  0  0  0  0  0
   15.7020   53.6170   69.2520 O   0  0  0  0  0  0  0  0  0  0  0  0
   14.4330   51.2430   66.9650 C   0  0  0  0  0  0  0  0  0  0  0  0
   13.2200   51.3440   67.1450 O   0  0  0  0  0  0  0  0  0  0  0  0
   15.1290   49.9550   66.5060 C   0  0  1  0  0  0  0  0  0  0  0  0
   15.7840   49.2480   67.7000 C   0  0  0  0  0  0  0  0  0  0  0  0
   18.1105   46.9581   55.7811 H   0  0  0  0  0  0  0  0  0  0  0  0
   16.3857   46.6642   55.3746 H   0  0  0  0  0  0  0  0  0  0  0  0
   17.0357   48.3387   55.3746 H   0  0  0  0  0  0  0  0  0  0  0  0
   17.2332   46.7160   57.9088 H   0  0  0  0  0  0  0  0  0  0  0  0
   17.0227   48.5026   57.6645 H   0  0  0  0  0  0  0  0  0  0  0  0
   14.9669   46.4352   55.6192 H   0  0  0  0  0  0  0  0  0  0  0  0
   12.5202   46.1424   55.8568 H   0  0  0  0  0  0  0  0  0  0  0  0
   10.4964   46.3408   57.1228 H   0  0  0  0  0  0  0  0  0  0  0  0
    9.2689   47.0348   59.1718 H   0  0  0  0  0  0  0  0  0  0  0  0
   10.5094   48.0967   61.0542 H   0  0  0  0  0  0  0  0  0  0  0  0
   12.9547   48.4724   60.8783 H   0  0  0  0  0  0  0  0  0  0  0  0
   16.3384   47.9739   59.9385 H   0  0  0  0  0  0  0  0  0  0  0  0
   15.5140   49.5429   59.5964 H   0  0  0  0  0  0  0  0  0  0  0  0
   13.9030   49.0440   61.2610 H   0  0  0  0  0  0  0  0  0  0  0  0
   11.2368   45.7723   64.0198 H   0  0  0  0  0  0  0  0  0  0  0  0
   10.7866   46.5630   62.4710 H   0  0  0  0  0  0  0  0  0  0  0  0
   11.4144   44.8800   62.4710 H   0  0  0  0  0  0  0  0  0  0  0  0
   11.7459   46.8387   65.2662 H   0  0  0  0  0  0  0  0  0  0  0  0
   11.9930   49.1590   67.1880 H   0  0  0  0  0  0  0  0  0  0  0  0
   17.5719   51.7792   64.7581 H   0  0  0  0  0  0  0  0  0  0  0  0
   18.1300   53.2010   67.2530 H   0  0  0  0  0  0  0  0  0  0  0  0
   13.3620   54.6291   69.0205 H   0  0  0  0  0  0  0  0  0  0  0  0
   14.0571   55.2371   67.4798 H   0  0  0  0  0  0  0  0  0  0  0  0
   13.0175   53.7723   67.4798 H   0  0  0  0  0  0  0  0  0  0  0  0
   15.3921   49.6710   68.6367 H   0  0  0  0  0  0  0  0  0  0  0  0
   15.5559   48.1727   67.6596 H   0  0  0  0  0  0  0  0  0  0  0  0
   16.8736   49.3935   67.6596 H   0  0  0  0  0  0  0  0  0  0  0  0
  1  2  1  0
  2  3  1  0
  3  4  2  0
  4  5  1  0
  5  6  2  0
  6  7  1  0
  7  8  2  0
  8  9  1  0
  9 10  2  0
 10 11  1  0
 11 12  2  0
 12 13  1  0
 13 14  1  0
 14 15  1  0
 15 16  2  0
 15 17  1  0
 17 18  2  0
 18 19  1  0
 19 20  1  0
 18 21  1  0
 21 22  2  0
 22 23  1  0
 22 24  1  0
 24 25  2  0
 25 26  1  0
 26 27  1  0
 27 28  2  0
 28 29  1  0
 29 30  1  0
 29 31  2  0
 31 32  1  0
 32 33  1  0
 32 34  2  0
 31 35  1  0
 35 36  2  0
 35 37  1  0
 37 38  1  1
 12  3  1  0
 25 17  1  0
 37 27  1  0
 11  6  1  0
 37 24  1  0
  1 39  1  0
  1 40  1  0
  1 41  1  0
  2 42  1  0
  2 43  1  0
  4 44  1  0
  5 45  1  0
  7 46  1  0
  8 47  1  0
  9 48  1  0
 10 49  1  0
 13 50  1  0
 13 51  1  0
 14 52  1  0
 20 53  1  0
 20 54  1  0
 20 55  1  0
 21 56  1  0
 23 57  1  0
 28 58  1  0
 30 59  1  0
 33 60  1  0
 33 61  1  0
 33 62  1  0
 38 63  1  0
 38 64  1  0
 38 65  1  0
M  END
>  <meeko>  (9) 
{"is_sidechain": [false], "free_energy": -8.49, "intermolecular_energy": -13.012, "internal_energy": -0.246}

$$$$
