4llx_ligand
     RDKit          3D

 18 18  0  0  0  0  0  0  0  0999 V2000
    4.0600   13.6180   41.1860 C   0  0  0  0  0  0  0  0  0  0  0  0
    4.0570   13.5010   42.6800 C   0  0  0  0  0  0  0  0  0  0  0  0
    4.7780   12.5030   43.3020 C   0  0  0  0  0  0  0  0  0  0  0  0
    4.7200   12.4720   44.6810 C   0  0  0  0  0  0  0  0  0  0  0  0
    5.4720   11.4280   45.4480 C   0  0  0  0  0  0  0  0  0  0  0  0
    3.9990   13.3630   45.3910 N   0  0  0  0  0  0  0  0  0  0  0  0
    3.3180   14.2810   44.7010 C   0  0  0  0  0  0  0  0  0  0  0  0
    2.5910   15.2080   45.4170 N   0  0  0  0  0  0  0  0  0  0  0  0
    3.3290   14.4020   43.3710 N   0  0  0  0  0  0  0  0  0  0  0  0
    4.0872   14.6802   40.9015 H   0  0  0  0  0  0  0  0  0  0  0  0
    4.9453   13.1068   40.7800 H   0  0  0  0  0  0  0  0  0  0  0  0
    3.1496   13.1529   40.7800 H   0  0  0  0  0  0  0  0  0  0  0  0
    5.3674   11.7713   42.7301 H   0  0  0  0  0  0  0  0  0  0  0  0
    5.3457   11.6033   46.5266 H   0  0  0  0  0  0  0  0  0  0  0  0
    5.0825   10.4321   45.1903 H   0  0  0  0  0  0  0  0  0  0  0  0
    6.5400   11.4819   45.1903 H   0  0  0  0  0  0  0  0  0  0  0  0
    1.7260   15.3980   44.9340 H   0  0  0  0  0  0  0  0  0  0  0  0
    3.1840   15.9950   45.6400 H   0  0  0  0  0  0  0  0  0  0  0  0
  1  2  1  0
  2  3  2  0
  3  4  1  0
  4  5  1  0
  4  6  2  0
  6  7  1  0
  7  8  1  0
  7  9  2  0
  9  2  1  0
  1 10  1  0
  1 11  1  0
  1 12  1  0
  3 13  1  0
  5 14  1  0
  5 15  1  0
  5 16  1  0
  8 17  1  0
  8 18  1  0
M  END
>  <meeko>  (1) 
{"is_sidechain": [false], "free_energy": -5.148, "intermolecular_energy": -5.299, "internal_energy": 0.0}

$$$$
4llx_ligand
     RDKit          3D

 18 18  0  0  0  0  0  0  0  0999 V2000
    5.5070   11.3980   45.4080 C   0  0  0  0  0  0  0  0  0  0  0  0
    4.7450   12.4430   44.6520 C   0  0  0  0  0  0  0  0  0  0  0  0
    4.7890   12.4760   43.2740 C   0  0  0  0  0  0  0  0  0  0  0  0
    4.0540   13.4710   42.6610 C   0  0  0  0  0  0  0  0  0  0  0  0
    4.0350   13.5880   41.1680 C   0  0  0  0  0  0  0  0  0  0  0  0
    3.3300   14.3680   43.3610 N   0  0  0  0  0  0  0  0  0  0  0  0
    3.3640   14.2670   44.6930 C   0  0  0  0  0  0  0  0  0  0  0  0
    2.6140   15.1680   45.4190 N   0  0  0  0  0  0  0  0  0  0  0  0
    4.0280   13.3290   45.3730 N   0  0  0  0  0  0  0  0  0  0  0  0
    5.3851   11.5651   46.4884 H   0  0  0  0  0  0  0  0  0  0  0  0
    5.1220   10.4016   45.1454 H   0  0  0  0  0  0  0  0  0  0  0  0
    6.5734   11.4600   45.1454 H   0  0  0  0  0  0  0  0  0  0  0  0
    5.3776   11.7492   42.6949 H   0  0  0  0  0  0  0  0  0  0  0  0
    3.8646   14.6371   40.8846 H   0  0  0  0  0  0  0  0  0  0  0  0
    4.9997   13.2504   40.7614 H   0  0  0  0  0  0  0  0  0  0  0  0
    3.2267   12.9624   40.7614 H   0  0  0  0  0  0  0  0  0  0  0  0
    2.8220   15.0590   46.4000 H   0  0  0  0  0  0  0  0  0  0  0  0
    1.6470   15.0980   45.1360 H   0  0  0  0  0  0  0  0  0  0  0  0
  1  2  1  0
  2  3  2  0
  3  4  1  0
  4  5  1  0
  4  6  2  0
  6  7  1  0
  7  8  1  0
  7  9  2  0
  9  2  1  0
  1 10  1  0
  1 11  1  0
  1 12  1  0
  3 13  1  0
  5 14  1  0
  5 15  1  0
  5 16  1  0
  8 17  1  0
  8 18  1  0
M  END
>  <meeko>  (2) 
{"is_sidechain": [false], "free_energy": -5.145, "intermolecular_energy": -5.296, "internal_energy": 0.0}

$$$$
4llx_ligand
     RDKit          3D

 18 18  0  0  0  0  0  0  0  0999 V2000
    3.5040   13.9980   43.5460 C   0  0  0  0  0  0  0  0  0  0  0  0
    4.4450   13.1300   44.3250 C   0  0  0  0  0  0  0  0  0  0  0  0
    5.5450   12.5690   43.7110 C   0  0  0  0  0  0  0  0  0  0  0  0
    6.3580   11.7870   44.5060 C   0  0  0  0  0  0  0  0  0  0  0  0
    7.5800   11.1370   43.9320 C   0  0  0  0  0  0  0  0  0  0  0  0
    6.1000   11.5740   45.8120 N   0  0  0  0  0  0  0  0  0  0  0  0
    5.0010   12.1430   46.3130 C   0  0  0  0  0  0  0  0  0  0  0  0
    4.7360   11.9460   47.6520 N   0  0  0  0  0  0  0  0  0  0  0  0
    4.1670   12.9310   45.6300 N   0  0  0  0  0  0  0  0  0  0  0  0
    2.8775   14.5759   44.2414 H   0  0  0  0  0  0  0  0  0  0  0  0
    4.0809   14.6878   42.9124 H   0  0  0  0  0  0  0  0  0  0  0  0
    2.8629   13.3674   42.9124 H   0  0  0  0  0  0  0  0  0  0  0  0
    5.7625   12.7357   42.6457 H   0  0  0  0  0  0  0  0  0  0  0  0
    8.2298   10.7914   44.7495 H   0  0  0  0  0  0  0  0  0  0  0  0
    7.2819   10.2783   43.3125 H   0  0  0  0  0  0  0  0  0  0  0  0
    8.1254   11.8642   43.3125 H   0  0  0  0  0  0  0  0  0  0  0  0
    4.0890   11.1780   47.7540 H   0  0  0  0  0  0  0  0  0  0  0  0
    4.4840   12.8290   48.0740 H   0  0  0  0  0  0  0  0  0  0  0  0
  1  2  1  0
  2  3  2  0
  3  4  1  0
  4  5  1  0
  4  6  2  0
  6  7  1  0
  7  8  1  0
  7  9  2  0
  9  2  1  0
  1 10  1  0
  1 11  1  0
  1 12  1  0
  3 13  1  0
  5 14  1  0
  5 15  1  0
  5 16  1  0
  8 17  1  0
  8 18  1  0
M  END
>  <meeko>  (3) 
{"is_sidechain": [false], "free_energy": -5.039, "intermolecular_energy": -5.187, "internal_energy": 0.0}

$$$$
4llx_ligand
     RDKit          3D

 18 18  0  0  0  0  0  0  0  0999 V2000
    7.5040   10.5870   44.1080 C   0  0  0  0  0  0  0  0  0  0  0  0
    6.3380   11.4010   44.5800 C   0  0  0  0  0  0  0  0  0  0  0  0
    5.6210   12.1720   43.6900 C   0  0  0  0  0  0  0  0  0  0  0  0
    4.5610   12.8860   44.2120 C   0  0  0  0  0  0  0  0  0  0  0  0
    3.7190   13.7500   43.3240 C   0  0  0  0  0  0  0  0  0  0  0  0
    4.2360   12.8410   45.5200 N   0  0  0  0  0  0  0  0  0  0  0  0
    5.0010   12.0810   46.3080 C   0  0  0  0  0  0  0  0  0  0  0  0
    4.6680   12.0130   47.6450 N   0  0  0  0  0  0  0  0  0  0  0  0
    6.0310   11.3400   45.8920 N   0  0  0  0  0  0  0  0  0  0  0  0
    8.0572   10.2008   44.9768 H   0  0  0  0  0  0  0  0  0  0  0  0
    7.1413    9.7449   43.5003 H   0  0  0  0  0  0  0  0  0  0  0  0
    8.1695   11.2177   43.5003 H   0  0  0  0  0  0  0  0  0  0  0  0
    5.8795   12.2159   42.6217 H   0  0  0  0  0  0  0  0  0  0  0  0
    3.0838   14.4018   43.9419 H   0  0  0  0  0  0  0  0  0  0  0  0
    4.3707   14.3682   42.6890 H   0  0  0  0  0  0  0  0  0  0  0  0
    3.0842   13.1145   42.6890 H   0  0  0  0  0  0  0  0  0  0  0  0
    3.7630   11.5750   47.7400 H   0  0  0  0  0  0  0  0  0  0  0  0
    4.7940   12.9230   48.0650 H   0  0  0  0  0  0  0  0  0  0  0  0
  1  2  1  0
  2  3  2  0
  3  4  1  0
  4  5  1  0
  4  6  2  0
  6  7  1  0
  7  8  1  0
  7  9  2  0
  9  2  1  0
  1 10  1  0
  1 11  1  0
  1 12  1  0
  3 13  1  0
  5 14  1  0
  5 15  1  0
  5 16  1  0
  8 17  1  0
  8 18  1  0
M  END
>  <meeko>  (4) 
{"is_sidechain": [false], "free_energy": -4.998, "intermolecular_energy": -5.144, "internal_energy": 0.0}

$$$$
4llx_ligand
     RDKit          3D

 18 18  0  0  0  0  0  0  0  0999 V2000
    3.2950   14.7210   45.2960 C   0  0  0  0  0  0  0  0  0  0  0  0
    3.7340   13.8630   44.1480 C   0  0  0  0  0  0  0  0  0  0  0  0
    4.3740   12.6640   44.3800 C   0  0  0  0  0  0  0  0  0  0  0  0
    4.7400   11.9380   43.2650 C   0  0  0  0  0  0  0  0  0  0  0  0
    5.4380   10.6210   43.4130 C   0  0  0  0  0  0  0  0  0  0  0  0
    4.4900   12.3680   42.0120 N   0  0  0  0  0  0  0  0  0  0  0  0
    3.8820   13.5510   41.8870 C   0  0  0  0  0  0  0  0  0  0  0  0
    3.6060   13.9930   40.6100 N   0  0  0  0  0  0  0  0  0  0  0  0
    3.4730   14.3130   42.9040 N   0  0  0  0  0  0  0  0  0  0  0  0
    3.5494   14.2238   46.2437 H   0  0  0  0  0  0  0  0  0  0  0  0
    3.8063   15.6935   45.2434 H   0  0  0  0  0  0  0  0  0  0  0  0
    2.2072   14.8753   45.2434 H   0  0  0  0  0  0  0  0  0  0  0  0
    4.5817   12.3055   45.3990 H   0  0  0  0  0  0  0  0  0  0  0  0
    5.5609   10.3892   44.4812 H   0  0  0  0  0  0  0  0  0  0  0  0
    4.8393    9.8327   42.9332 H   0  0  0  0  0  0  0  0  0  0  0  0
    6.4264   10.6739   42.9332 H   0  0  0  0  0  0  0  0  0  0  0  0
    2.9530   14.7620   40.6580 H   0  0  0  0  0  0  0  0  0  0  0  0
    3.3560   13.2040   40.0310 H   0  0  0  0  0  0  0  0  0  0  0  0
  1  2  1  0
  2  3  2  0
  3  4  1  0
  4  5  1  0
  4  6  2  0
  6  7  1  0
  7  8  1  0
  7  9  2  0
  9  2  1  0
  1 10  1  0
  1 11  1  0
  1 12  1  0
  3 13  1  0
  5 14  1  0
  5 15  1  0
  5 16  1  0
  8 17  1  0
  8 18  1  0
M  END
>  <meeko>  (5) 
{"is_sidechain": [false], "free_energy": -4.702, "intermolecular_energy": -4.84, "internal_energy": 0.0}

$$$$
4llx_ligand
     RDKit          3D

 18 18  0  0  0  0  0  0  0  0999 V2000
    3.7980   13.6100   42.5880 C   0  0  0  0  0  0  0  0  0  0  0  0
    4.6260   12.9280   43.6340 C   0  0  0  0  0  0  0  0  0  0  0  0
    4.1380   12.7700   44.9150 C   0  0  0  0  0  0  0  0  0  0  0  0
    4.9680   12.1280   45.8120 C   0  0  0  0  0  0  0  0  0  0  0  0
    4.5270   11.9050   47.2260 C   0  0  0  0  0  0  0  0  0  0  0  0
    6.1910   11.6780   45.4670 N   0  0  0  0  0  0  0  0  0  0  0  0
    6.5850   11.8950   44.2090 C   0  0  0  0  0  0  0  0  0  0  0  0
    7.8270   11.4230   43.8400 N   0  0  0  0  0  0  0  0  0  0  0  0
    5.8460   12.4860   43.2670 N   0  0  0  0  0  0  0  0  0  0  0  0
    3.0365   14.2372   43.0745 H   0  0  0  0  0  0  0  0  0  0  0  0
    4.4458   14.2400   41.9608 H   0  0  0  0  0  0  0  0  0  0  0  0
    3.3038   12.8535   41.9608 H   0  0  0  0  0  0  0  0  0  0  0  0
    3.1421   13.1356   45.2055 H   0  0  0  0  0  0  0  0  0  0  0  0
    5.2927   12.2922   47.9143 H   0  0  0  0  0  0  0  0  0  0  0  0
    3.5769   12.4310   47.4011 H   0  0  0  0  0  0  0  0  0  0  0  0
    4.3875   10.8280   47.4011 H   0  0  0  0  0  0  0  0  0  0  0  0
    7.7150   10.7020   43.1430 H   0  0  0  0  0  0  0  0  0  0  0  0
    8.3550   11.1930   44.6710 H   0  0  0  0  0  0  0  0  0  0  0  0
  1  2  1  0
  2  3  2  0
  3  4  1  0
  4  5  1  0
  4  6  2  0
  6  7  1  0
  7  8  1  0
  7  9  2  0
  9  2  1  0
  1 10  1  0
  1 11  1  0
  1 12  1  0
  3 13  1  0
  5 14  1  0
  5 15  1  0
  5 16  1  0
  8 17  1  0
  8 18  1  0
M  END
>  <meeko>  (6) 
{"is_sidechain": [false], "free_energy": -4.694, "intermolecular_energy": -4.831, "internal_energy": 0.0}

$$$$
4llx_ligand
     RDKit          3D

 18 18  0  0  0  0  0  0  0  0999 V2000
    5.5470   10.6800   43.6870 C   0  0  0  0  0  0  0  0  0  0  0  0
    4.8010   11.9660   43.5000 C   0  0  0  0  0  0  0  0  0  0  0  0
    4.3640   12.6840   44.5930 C   0  0  0  0  0  0  0  0  0  0  0  0
    3.6880   13.8570   44.3270 C   0  0  0  0  0  0  0  0  0  0  0  0
    3.1760   14.7080   45.4490 C   0  0  0  0  0  0  0  0  0  0  0  0
    3.4600   14.2880   43.0700 N   0  0  0  0  0  0  0  0  0  0  0  0
    3.9050   13.5160   42.0750 C   0  0  0  0  0  0  0  0  0  0  0  0
    3.6940   13.9560   40.7850 N   0  0  0  0  0  0  0  0  0  0  0  0
    4.5850   12.3780   42.2340 N   0  0  0  0  0  0  0  0  0  0  0  0
    5.6646   10.4773   44.7617 H   0  0  0  0  0  0  0  0  0  0  0  0
    4.9851    9.8587   43.2183 H   0  0  0  0  0  0  0  0  0  0  0  0
    6.5389   10.7600   43.2183 H   0  0  0  0  0  0  0  0  0  0  0  0
    4.5447   12.3400   45.6221 H   0  0  0  0  0  0  0  0  0  0  0  0
    3.4511   14.2508   46.4109 H   0  0  0  0  0  0  0  0  0  0  0  0
    3.6201   15.7120   45.3799 H   0  0  0  0  0  0  0  0  0  0  0  0
    2.0809   14.7859   45.3799 H   0  0  0  0  0  0  0  0  0  0  0  0
    4.5240   14.4220   40.4520 H   0  0  0  0  0  0  0  0  0  0  0  0
    2.8230   14.4670   40.7470 H   0  0  0  0  0  0  0  0  0  0  0  0
  1  2  1  0
  2  3  2  0
  3  4  1  0
  4  5  1  0
  4  6  2  0
  6  7  1  0
  7  8  1  0
  7  9  2  0
  9  2  1  0
  1 10  1  0
  1 11  1  0
  1 12  1  0
  3 13  1  0
  5 14  1  0
  5 15  1  0
  5 16  1  0
  8 17  1  0
  8 18  1  0
M  END
>  <meeko>  (7) 
{"is_sidechain": [false], "free_energy": -4.676, "intermolecular_energy": -4.812, "internal_energy": 0.0}

$$$$
4llx_ligand
     RDKit          3D

 18 18  0  0  0  0  0  0  0  0999 V2000
    4.3870   12.0930   47.1440 C   0  0  0  0  0  0  0  0  0  0  0  0
    4.8940   12.2210   45.7390 C   0  0  0  0  0  0  0  0  0  0  0  0
    4.1390   12.8660   44.7820 C   0  0  0  0  0  0  0  0  0  0  0  0
    4.6850   12.9380   43.5160 C   0  0  0  0  0  0  0  0  0  0  0  0
    3.9430   13.6230   42.4090 C   0  0  0  0  0  0  0  0  0  0  0  0
    5.8890   12.4100   43.2200 N   0  0  0  0  0  0  0  0  0  0  0  0
    6.5370   11.7870   44.2070 C   0  0  0  0  0  0  0  0  0  0  0  0
    7.7780   11.2570   43.9200 N   0  0  0  0  0  0  0  0  0  0  0  0
    6.1000   11.6840   45.4650 N   0  0  0  0  0  0  0  0  0  0  0  0
    5.2054   12.2996   47.8494 H   0  0  0  0  0  0  0  0  0  0  0  0
    3.5720   12.8136   47.3068 H   0  0  0  0  0  0  0  0  0  0  0  0
    4.0117   11.0719   47.3068 H   0  0  0  0  0  0  0  0  0  0  0  0
    3.1552   13.2996   45.0147 H   0  0  0  0  0  0  0  0  0  0  0  0
    3.1985   14.3103   42.8371 H   0  0  0  0  0  0  0  0  0  0  0  0
    4.6521   14.1907   41.7886 H   0  0  0  0  0  0  0  0  0  0  0  0
    3.4337   12.8708   41.7886 H   0  0  0  0  0  0  0  0  0  0  0  0
    7.8400   11.0750   42.9290 H   0  0  0  0  0  0  0  0  0  0  0  0
    7.9650   10.4890   44.5490 H   0  0  0  0  0  0  0  0  0  0  0  0
  1  2  1  0
  2  3  2  0
  3  4  1  0
  4  5  1  0
  4  6  2  0
  6  7  1  0
  7  8  1  0
  7  9  2  0
  9  2  1  0
  1 10  1  0
  1 11  1  0
  1 12  1  0
  3 13  1  0
  5 14  1  0
  5 15  1  0
  5 16  1  0
  8 17  1  0
  8 18  1  0
M  END
>  <meeko>  (8) 
{"is_sidechain": [false], "free_energy": -4.599, "intermolecular_energy": -4.733, "internal_energy": 0.0}

$$$$
4llx_ligand
     RDKit          3D

 18 18  0  0  0  0  0  0  0  0999 V2000
    7.8030   11.3790   43.5900 C   0  0  0  0  0  0  0  0  0  0  0  0
    6.4580   11.8990   44.0000 C   0  0  0  0  0  0  0  0  0  0  0  0
    6.0140   11.7350   45.2960 C   0  0  0  0  0  0  0  0  0  0  0  0
    4.7650   12.2480   45.5850 C   0  0  0  0  0  0  0  0  0  0  0  0
    4.1970   12.1230   46.9650 C   0  0  0  0  0  0  0  0  0  0  0  0
    4.0120   12.8750   44.6600 N   0  0  0  0  0  0  0  0  0  0  0  0
    4.5180   12.9680   43.4270 C   0  0  0  0  0  0  0  0  0  0  0  0
    3.7640   13.6230   42.4760 N   0  0  0  0  0  0  0  0  0  0  0  0
    5.7220   12.5220   43.0580 N   0  0  0  0  0  0  0  0  0  0  0  0
    8.3965   11.1495   44.4873 H   0  0  0  0  0  0  0  0  0  0  0  0
    7.6758   10.4652   42.9909 H   0  0  0  0  0  0  0  0  0  0  0  0
    8.3236   12.1407   42.9909 H   0  0  0  0  0  0  0  0  0  0  0  0
    6.6216   11.2237   46.0572 H   0  0  0  0  0  0  0  0  0  0  0  0
    4.9913   12.2978   47.7056 H   0  0  0  0  0  0  0  0  0  0  0  0
    3.3982   12.8668   47.1015 H   0  0  0  0  0  0  0  0  0  0  0  0
    3.7843   11.1125   47.1015 H   0  0  0  0  0  0  0  0  0  0  0  0
    4.3800   14.0920   41.8290 H   0  0  0  0  0  0  0  0  0  0  0  0
    3.0590   14.1800   42.9380 H   0  0  0  0  0  0  0  0  0  0  0  0
  1  2  1  0
  2  3  2  0
  3  4  1  0
  4  5  1  0
  4  6  2  0
  6  7  1  0
  7  8  1  0
  7  9  2  0
  9  2  1  0
  1 10  1  0
  1 11  1  0
  1 12  1  0
  3 13  1  0
  5 14  1  0
  5 15  1  0
  5 16  1  0
  8 17  1  0
  8 18  1  0
M  END
>  <meeko>  (9) 
{"is_sidechain": [false], "free_energy": -4.532, "intermolecular_energy": -4.664, "internal_energy": 0.0}

$$$$
