4jfs_ligand
     RDKit          3D

 37 38  0  0  0  0  0  0  0  0999 V2000
  -16.3990   15.8080   37.2480 C   0  0  0  0  0  0  0  0  0  0  0  0
  -17.0310   15.9150   35.9770 O   0  0  0  0  0  0  0  0  0  0  0  0
  -16.8230   14.8980   35.0900 C   0  0  0  0  0  0  0  0  0  0  0  0
  -17.7150   14.8710   34.0170 C   0  0  0  0  0  0  0  0  0  0  0  0
  -17.6220   13.8880   33.0290 C   0  0  0  0  0  0  0  0  0  0  0  0
  -16.6250   12.9030   33.0970 C   0  0  0  0  0  0  0  0  0  0  0  0
  -16.4750   11.8270   32.0410 C   0  0  1  0  0  0  0  0  0  0  0  0
  -14.9900   11.4100   31.7980 C   0  0  2  0  0  0  0  0  0  0  0  0
  -14.4200   12.0240   30.6420 O   0  0  0  0  0  0  0  0  0  0  0  0
  -15.0820    9.9030   31.5590 C   0  0  2  0  0  0  0  0  0  0  0  0
  -15.5770    9.6770   30.2300 O   0  0  0  0  0  0  0  0  0  0  0  0
  -16.1410    9.4720   32.5790 C   0  0  2  0  0  0  0  0  0  0  0  0
  -16.6790    8.0670   32.3570 C   0  0  0  0  0  0  0  0  0  0  0  0
  -17.2220   10.5110   32.3190 N   0  0  1  0  0  0  0  0  0  0  0  0
  -18.3700   10.5460   33.2670 C   0  0  0  0  0  0  0  0  0  0  0  0
  -15.7290   12.9390   34.1780 C   0  0  0  0  0  0  0  0  0  0  0  0
  -15.8290   13.9270   35.1670 C   0  0  0  0  0  0  0  0  0  0  0  0
  -17.1492   15.9350   38.0424 H   0  0  0  0  0  0  0  0  0  0  0  0
  -15.9296   14.8176   37.3419 H   0  0  0  0  0  0  0  0  0  0  0  0
  -15.6298   16.5887   37.3419 H   0  0  0  0  0  0  0  0  0  0  0  0
  -18.5031   15.6353   33.9483 H   0  0  0  0  0  0  0  0  0  0  0  0
  -18.3354   13.8861   32.1917 H   0  0  0  0  0  0  0  0  0  0  0  0
  -16.9187   12.3260   31.1669 H   0  0  0  0  0  0  0  0  0  0  0  0
  -14.3524   11.7108   32.6424 H   0  0  0  0  0  0  0  0  0  0  0  0
  -14.3290   11.3470   29.9430 H   0  0  0  0  0  0  0  0  0  0  0  0
  -14.1267    9.3672   31.6602 H   0  0  0  0  0  0  0  0  0  0  0  0
  -16.5460    9.5470   30.3260 H   0  0  0  0  0  0  0  0  0  0  0  0
  -15.7509    9.4300   33.6066 H   0  0  0  0  0  0  0  0  0  0  0  0
  -16.8629    7.5869   33.3295 H   0  0  0  0  0  0  0  0  0  0  0  0
  -17.6204    8.1201   31.7905 H   0  0  0  0  0  0  0  0  0  0  0  0
  -15.9429    7.4778   31.7905 H   0  0  0  0  0  0  0  0  0  0  0  0
  -17.5970   10.2470   31.3930 H   0  0  0  0  0  0  0  0  0  0  0  0
  -17.9928   10.5345   34.3002 H   0  0  0  0  0  0  0  0  0  0  0  0
  -18.9552   11.4624   33.1005 H   0  0  0  0  0  0  0  0  0  0  0  0
  -19.0100    9.6669   33.1005 H   0  0  0  0  0  0  0  0  0  0  0  0
  -14.9363   12.1798   34.2495 H   0  0  0  0  0  0  0  0  0  0  0  0
  -15.1191   13.9350   36.0073 H   0  0  0  0  0  0  0  0  0  0  0  0
  1  2  1  0
  2  3  1  0
  3  4  2  0
  4  5  1  0
  5  6  2  0
  6  7  1  0
  7  8  1  0
  8  9  1  0
  8 10  1  0
 10 11  1  0
 10 12  1  0
 12 13  1  0
 12 14  1  0
 14 15  1  0
  6 16  1  0
 16 17  2  0
 17  3  1  0
 14  7  1  0
  1 18  1  0
  1 19  1  0
  1 20  1  0
  4 21  1  0
  5 22  1  0
  7 23  1  6
  8 24  1  1
  9 25  1  0
 10 26  1  1
 11 27  1  0
 12 28  1  1
 13 29  1  0
 13 30  1  0
 13 31  1  0
 14 32  1  6
 15 33  1  0
 15 34  1  0
 15 35  1  0
 16 36  1  0
 17 37  1  0
M  CHG  1  14   1
M  END
>  <meeko>  (1) 
{"is_sidechain": [false], "free_energy": -6.921, "intermolecular_energy": -8.134, "internal_energy": -0.23}

$$$$
4jfs_ligand
     RDKit          3D

 37 38  0  0  0  0  0  0  0  0999 V2000
  -14.7130   16.6000   35.0270 C   0  0  0  0  0  0  0  0  0  0  0  0
  -14.9690   15.3300   35.6170 O   0  0  0  0  0  0  0  0  0  0  0  0
  -15.1330   14.2710   34.7710 C   0  0  0  0  0  0  0  0  0  0  0  0
  -16.2970   14.3150   34.0040 C   0  0  0  0  0  0  0  0  0  0  0  0
  -16.5960   13.2980   33.0930 C   0  0  0  0  0  0  0  0  0  0  0  0
  -15.7280   12.2080   32.9310 C   0  0  0  0  0  0  0  0  0  0  0  0
  -16.0020   11.0920   31.9450 C   0  0  1  0  0  0  0  0  0  0  0  0
  -14.7610   10.1780   31.6940 C   0  0  2  0  0  0  0  0  0  0  0  0
  -14.0690   10.4960   30.4860 O   0  0  0  0  0  0  0  0  0  0  0  0
  -15.3730    8.7840   31.5570 C   0  0  2  0  0  0  0  0  0  0  0  0
  -15.9750    8.6710   30.2570 O   0  0  0  0  0  0  0  0  0  0  0  0
  -16.4670    8.7970   32.6280 C   0  0  2  0  0  0  0  0  0  0  0  0
  -17.4630    7.6530   32.5110 C   0  0  0  0  0  0  0  0  0  0  0  0
  -17.1400   10.1290   32.3270 N   0  0  1  0  0  0  0  0  0  0  0  0
  -18.1630   10.6070   33.2980 C   0  0  0  0  0  0  0  0  0  0  0  0
  -14.5560   12.1740   33.7060 C   0  0  0  0  0  0  0  0  0  0  0  0
  -14.2620   13.1950   34.6190 C   0  0  0  0  0  0  0  0  0  0  0  0
  -14.5621   17.3485   35.8189 H   0  0  0  0  0  0  0  0  0  0  0  0
  -13.8091   16.5390   34.4031 H   0  0  0  0  0  0  0  0  0  0  0  0
  -15.5700   16.8939   34.4031 H   0  0  0  0  0  0  0  0  0  0  0  0
  -16.9895   15.1620   34.1176 H   0  0  0  0  0  0  0  0  0  0  0  0
  -17.5196   13.3528   32.4981 H   0  0  0  0  0  0  0  0  0  0  0  0
  -16.2879   11.6657   31.0510 H   0  0  0  0  0  0  0  0  0  0  0  0
  -14.0212   10.2863   32.5008 H   0  0  0  0  0  0  0  0  0  0  0  0
  -13.1420   10.7140   30.7070 H   0  0  0  0  0  0  0  0  0  0  0  0
  -14.6544    7.9589   31.6702 H   0  0  0  0  0  0  0  0  0  0  0  0
  -15.5550    7.8860   29.8390 H   0  0  0  0  0  0  0  0  0  0  0  0
  -16.0676    8.6774   33.6459 H   0  0  0  0  0  0  0  0  0  0  0  0
  -17.7554    7.3171   33.5168 H   0  0  0  0  0  0  0  0  0  0  0  0
  -18.3543    7.9971   31.9658 H   0  0  0  0  0  0  0  0  0  0  0  0
  -16.9995    6.8176   31.9658 H   0  0  0  0  0  0  0  0  0  0  0  0
  -17.6240    9.9620   31.4300 H   0  0  0  0  0  0  0  0  0  0  0  0
  -17.8023   10.4384   34.3234 H   0  0  0  0  0  0  0  0  0  0  0  0
  -18.3410   11.6815   33.1439 H   0  0  0  0  0  0  0  0  0  0  0  0
  -19.1014   10.0541   33.1439 H   0  0  0  0  0  0  0  0  0  0  0  0
  -13.8578   11.3314   33.5938 H   0  0  0  0  0  0  0  0  0  0  0  0
  -13.3404   13.1467   35.2176 H   0  0  0  0  0  0  0  0  0  0  0  0
  1  2  1  0
  2  3  1  0
  3  4  2  0
  4  5  1  0
  5  6  2  0
  6  7  1  0
  7  8  1  0
  8  9  1  0
  8 10  1  0
 10 11  1  0
 10 12  1  0
 12 13  1  0
 12 14  1  0
 14 15  1  0
  6 16  1  0
 16 17  2  0
 17  3  1  0
 14  7  1  0
  1 18  1  0
  1 19  1  0
  1 20  1  0
  4 21  1  0
  5 22  1  0
  7 23  1  6
  8 24  1  1
  9 25  1  0
 10 26  1  1
 11 27  1  0
 12 28  1  1
 13 29  1  0
 13 30  1  0
 13 31  1  0
 14 32  1  6
 15 33  1  0
 15 34  1  0
 15 35  1  0
 16 36  1  0
 17 37  1  0
M  CHG  1  14   1
M  END
>  <meeko>  (2) 
{"is_sidechain": [false], "free_energy": -6.669, "intermolecular_energy": -8.108, "internal_energy": 0.04}

$$$$
4jfs_ligand
     RDKit          3D

 37 38  0  0  0  0  0  0  0  0999 V2000
  -11.6020   16.2290   37.1540 C   0  0  0  0  0  0  0  0  0  0  0  0
  -11.5710   15.2520   36.1200 O   0  0  0  0  0  0  0  0  0  0  0  0
  -12.7490   14.9700   35.4910 C   0  0  0  0  0  0  0  0  0  0  0  0
  -12.9890   13.6110   35.2870 C   0  0  0  0  0  0  0  0  0  0  0  0
  -14.1570   13.1740   34.6580 C   0  0  0  0  0  0  0  0  0  0  0  0
  -15.1160   14.0970   34.2150 C   0  0  0  0  0  0  0  0  0  0  0  0
  -16.4040   13.6700   33.5430 C   0  0  1  0  0  0  0  0  0  0  0  0
  -16.2580   12.3540   32.7170 C   0  0  2  0  0  0  0  0  0  0  0  0
  -16.1060   12.5880   31.3170 O   0  0  0  0  0  0  0  0  0  0  0  0
  -17.5880   11.6390   32.9540 C   0  0  2  0  0  0  0  0  0  0  0  0
  -18.5990   12.2700   32.1530 O   0  0  0  0  0  0  0  0  0  0  0  0
  -17.8560   11.9250   34.4350 C   0  0  2  0  0  0  0  0  0  0  0  0
  -19.2760   11.6090   34.8800 C   0  0  0  0  0  0  0  0  0  0  0  0
  -17.5970   13.4240   34.4840 N   0  0  1  0  0  0  0  0  0  0  0  0
  -17.5710   14.0640   35.8280 C   0  0  0  0  0  0  0  0  0  0  0  0
  -14.8680   15.4640   34.4280 C   0  0  0  0  0  0  0  0  0  0  0  0
  -13.6940   15.8960   35.0580 C   0  0  0  0  0  0  0  0  0  0  0  0
  -11.5861   15.7275   38.1329 H   0  0  0  0  0  0  0  0  0  0  0  0
  -10.7242   16.8859   37.0642 H   0  0  0  0  0  0  0  0  0  0  0  0
  -12.5196   16.8289   37.0642 H   0  0  0  0  0  0  0  0  0  0  0  0
  -12.2475   12.8728   35.6265 H   0  0  0  0  0  0  0  0  0  0  0  0
  -14.3262   12.0974   34.5088 H   0  0  0  0  0  0  0  0  0  0  0  0
  -16.6088   14.5432   32.9062 H   0  0  0  0  0  0  0  0  0  0  0  0
  -15.3645   11.7917   33.0259 H   0  0  0  0  0  0  0  0  0  0  0  0
  -15.8180   11.7560   30.8910 H   0  0  0  0  0  0  0  0  0  0  0  0
  -17.5793   10.5675   32.7054 H   0  0  0  0  0  0  0  0  0  0  0  0
  -18.1140   12.7940   31.4780 H   0  0  0  0  0  0  0  0  0  0  0  0
  -17.2409   11.3076   35.1062 H   0  0  0  0  0  0  0  0  0  0  0  0
  -19.3221   11.5987   35.9790 H   0  0  0  0  0  0  0  0  0  0  0  0
  -19.9614   12.3766   34.4914 H   0  0  0  0  0  0  0  0  0  0  0  0
  -19.5712   10.6232   34.4914 H   0  0  0  0  0  0  0  0  0  0  0  0
  -18.3970   13.8270   33.9680 H   0  0  0  0  0  0  0  0  0  0  0  0
  -17.6026   13.2862   36.6052 H   0  0  0  0  0  0  0  0  0  0  0  0
  -16.6482   14.6529   35.9359 H   0  0  0  0  0  0  0  0  0  0  0  0
  -18.4430   14.7258   35.9359 H   0  0  0  0  0  0  0  0  0  0  0  0
  -15.6079   16.2066   34.0945 H   0  0  0  0  0  0  0  0  0  0  0  0
  -13.5180   16.9710   35.2112 H   0  0  0  0  0  0  0  0  0  0  0  0
  1  2  1  0
  2  3  1  0
  3  4  2  0
  4  5  1  0
  5  6  2  0
  6  7  1  0
  7  8  1  0
  8  9  1  0
  8 10  1  0
 10 11  1  0
 10 12  1  0
 12 13  1  0
 12 14  1  0
 14 15  1  0
  6 16  1  0
 16 17  2  0
 17  3  1  0
 14  7  1  0
  1 18  1  0
  1 19  1  0
  1 20  1  0
  4 21  1  0
  5 22  1  0
  7 23  1  6
  8 24  1  1
  9 25  1  0
 10 26  1  1
 11 27  1  0
 12 28  1  1
 13 29  1  0
 13 30  1  0
 13 31  1  0
 14 32  1  6
 15 33  1  0
 15 34  1  0
 15 35  1  0
 16 36  1  0
 17 37  1  0
M  CHG  1  14   1
M  END
>  <meeko>  (3) 
{"is_sidechain": [false], "free_energy": -5.604, "intermolecular_energy": -6.658, "internal_energy": -0.159}

$$$$
4jfs_ligand
     RDKit          3D

 37 38  0  0  0  0  0  0  0  0999 V2000
  -16.5080    6.6200   31.1240 C   0  0  0  0  0  0  0  0  0  0  0  0
  -16.1920    7.8760   30.5360 O   0  0  0  0  0  0  0  0  0  0  0  0
  -15.8830    8.9020   31.3820 C   0  0  0  0  0  0  0  0  0  0  0  0
  -16.4550    8.8020   32.6510 C   0  0  0  0  0  0  0  0  0  0  0  0
  -16.2230    9.7790   33.6220 C   0  0  0  0  0  0  0  0  0  0  0  0
  -15.4090   10.8860   33.3400 C   0  0  0  0  0  0  0  0  0  0  0  0
  -15.1170   11.9610   34.3660 C   0  0  1  0  0  0  0  0  0  0  0  0
  -13.8220   12.7730   34.0510 C   0  0  2  0  0  0  0  0  0  0  0  0
  -12.6940   12.3420   34.8120 O   0  0  0  0  0  0  0  0  0  0  0  0
  -14.1860   14.1950   34.4760 C   0  0  2  0  0  0  0  0  0  0  0  0
  -14.1320   14.2760   35.9090 O   0  0  0  0  0  0  0  0  0  0  0  0
  -15.6400   14.3160   34.0110 C   0  0  2  0  0  0  0  0  0  0  0  0
  -16.3770   15.5170   34.5850 C   0  0  0  0  0  0  0  0  0  0  0  0
  -16.2190   13.0190   34.5550 N   0  0  1  0  0  0  0  0  0  0  0  0
  -17.6050   12.6660   34.1390 C   0  0  0  0  0  0  0  0  0  0  0  0
  -14.8350   10.9770   32.0610 C   0  0  0  0  0  0  0  0  0  0  0  0
  -15.0710    9.9950   31.0900 C   0  0  0  0  0  0  0  0  0  0  0  0
  -16.4849    6.7120   32.2199 H   0  0  0  0  0  0  0  0  0  0  0  0
  -17.5128    6.3075   30.8034 H   0  0  0  0  0  0  0  0  0  0  0  0
  -15.7708    5.8692   30.8034 H   0  0  0  0  0  0  0  0  0  0  0  0
  -17.0976    7.9418   32.8900 H   0  0  0  0  0  0  0  0  0  0  0  0
  -16.6826    9.6794   34.6164 H   0  0  0  0  0  0  0  0  0  0  0  0
  -15.0215   11.3586   35.2815 H   0  0  0  0  0  0  0  0  0  0  0  0
  -13.5327   12.6602   32.9957 H   0  0  0  0  0  0  0  0  0  0  0  0
  -11.9290   12.9050   34.5820 H   0  0  0  0  0  0  0  0  0  0  0  0
  -13.5256   14.9745   34.0683 H   0  0  0  0  0  0  0  0  0  0  0  0
  -14.9900   13.9170   36.2270 H   0  0  0  0  0  0  0  0  0  0  0  0
  -15.7283   14.4650   32.9247 H   0  0  0  0  0  0  0  0  0  0  0  0
  -16.3500   15.4730   35.6838 H   0  0  0  0  0  0  0  0  0  0  0  0
  -15.8914   16.4429   34.2431 H   0  0  0  0  0  0  0  0  0  0  0  0
  -17.4224   15.5034   34.2431 H   0  0  0  0  0  0  0  0  0  0  0  0
  -16.2350   13.1680   35.5780 H   0  0  0  0  0  0  0  0  0  0  0  0
  -18.2269   12.5076   35.0324 H   0  0  0  0  0  0  0  0  0  0  0  0
  -18.0275   13.4852   33.5387 H   0  0  0  0  0  0  0  0  0  0  0  0
  -17.5842   11.7445   33.5387 H   0  0  0  0  0  0  0  0  0  0  0  0
  -14.1894   11.8337   31.8178 H   0  0  0  0  0  0  0  0  0  0  0  0
  -14.6135   10.0876   30.0940 H   0  0  0  0  0  0  0  0  0  0  0  0
  1  2  1  0
  2  3  1  0
  3  4  2  0
  4  5  1  0
  5  6  2  0
  6  7  1  0
  7  8  1  0
  8  9  1  0
  8 10  1  0
 10 11  1  0
 10 12  1  0
 12 13  1  0
 12 14  1  0
 14 15  1  0
  6 16  1  0
 16 17  2  0
 17  3  1  0
 14  7  1  0
  1 18  1  0
  1 19  1  0
  1 20  1  0
  4 21  1  0
  5 22  1  0
  7 23  1  1
  8 24  1  6
  9 25  1  0
 10 26  1  6
 11 27  1  0
 12 28  1  6
 13 29  1  0
 13 30  1  0
 13 31  1  0
 14 32  1  1
 15 33  1  0
 15 34  1  0
 15 35  1  0
 16 36  1  0
 17 37  1  0
M  CHG  1  14   1
M  END
>  <meeko>  (4) 
{"is_sidechain": [false], "free_energy": -5.576, "intermolecular_energy": -6.681, "internal_energy": -0.103}

$$$$
4jfs_ligand
     RDKit          3D

 37 38  0  0  0  0  0  0  0  0999 V2000
  -21.7470   16.7500   36.0340 C   0  0  0  0  0  0  0  0  0  0  0  0
  -20.8150   16.8020   34.9600 O   0  0  0  0  0  0  0  0  0  0  0  0
  -20.0000   15.7200   34.7860 C   0  0  0  0  0  0  0  0  0  0  0  0
  -18.7510   16.0150   34.2390 C   0  0  0  0  0  0  0  0  0  0  0  0
  -17.8120   15.0070   34.0080 C   0  0  0  0  0  0  0  0  0  0  0  0
  -18.1080   13.6720   34.3210 C   0  0  0  0  0  0  0  0  0  0  0  0
  -17.1170   12.5480   34.1030 C   0  0  1  0  0  0  0  0  0  0  0  0
  -16.6070   12.4570   32.6300 C   0  0  2  0  0  0  0  0  0  0  0  0
  -17.2690   11.4440   31.8720 O   0  0  0  0  0  0  0  0  0  0  0  0
  -15.1380   12.0680   32.7900 C   0  0  2  0  0  0  0  0  0  0  0  0
  -15.0630   10.6710   33.1170 O   0  0  0  0  0  0  0  0  0  0  0  0
  -14.7060   12.9010   34.0010 C   0  0  2  0  0  0  0  0  0  0  0  0
  -13.3710   12.4820   34.5970 C   0  0  0  0  0  0  0  0  0  0  0  0
  -15.8440   12.6050   34.9660 N   0  0  1  0  0  0  0  0  0  0  0  0
  -15.8890   13.3990   36.2260 C   0  0  0  0  0  0  0  0  0  0  0  0
  -19.3680   13.3850   34.8750 C   0  0  0  0  0  0  0  0  0  0  0  0
  -20.3060   14.4000   35.1040 C   0  0  0  0  0  0  0  0  0  0  0  0
  -21.2056   16.7802   36.9911 H   0  0  0  0  0  0  0  0  0  0  0  0
  -22.4280   17.6115   35.9706 H   0  0  0  0  0  0  0  0  0  0  0  0
  -22.3279   15.8180   35.9706 H   0  0  0  0  0  0  0  0  0  0  0  0
  -18.5021   17.0562   33.9860 H   0  0  0  0  0  0  0  0  0  0  0  0
  -16.8326   15.2621   33.5772 H   0  0  0  0  0  0  0  0  0  0  0  0
  -17.7213   11.6754   34.3918 H   0  0  0  0  0  0  0  0  0  0  0  0
  -16.7851   13.3996   32.0917 H   0  0  0  0  0  0  0  0  0  0  0  0
  -18.2180   11.4480   32.1080 H   0  0  0  0  0  0  0  0  0  0  0  0
  -14.5229   12.2387   31.8942 H   0  0  0  0  0  0  0  0  0  0  0  0
  -15.8760   10.4770   33.6350 H   0  0  0  0  0  0  0  0  0  0  0  0
  -14.5467   13.9611   33.7544 H   0  0  0  0  0  0  0  0  0  0  0  0
  -13.4369   12.5027   35.6948 H   0  0  0  0  0  0  0  0  0  0  0  0
  -13.1242   11.4632   34.2636 H   0  0  0  0  0  0  0  0  0  0  0  0
  -12.5863   13.1771   34.2636 H   0  0  0  0  0  0  0  0  0  0  0  0
  -15.6900   11.6180   35.2320 H   0  0  0  0  0  0  0  0  0  0  0  0
  -15.8504   12.7188   37.0896 H   0  0  0  0  0  0  0  0  0  0  0  0
  -15.0282   14.0830   36.2593 H   0  0  0  0  0  0  0  0  0  0  0  0
  -16.8216   13.9814   36.2593 H   0  0  0  0  0  0  0  0  0  0  0  0
  -19.6215   12.3461   35.1329 H   0  0  0  0  0  0  0  0  0  0  0  0
  -21.2869   14.1531   35.5363 H   0  0  0  0  0  0  0  0  0  0  0  0
  1  2  1  0
  2  3  1  0
  3  4  2  0
  4  5  1  0
  5  6  2  0
  6  7  1  0
  7  8  1  0
  8  9  1  0
  8 10  1  0
 10 11  1  0
 10 12  1  0
 12 13  1  0
 12 14  1  0
 14 15  1  0
  6 16  1  0
 16 17  2  0
 17  3  1  0
 14  7  1  0
  1 18  1  0
  1 19  1  0
  1 20  1  0
  4 21  1  0
  5 22  1  0
  7 23  1  1
  8 24  1  6
  9 25  1  0
 10 26  1  6
 11 27  1  0
 12 28  1  6
 13 29  1  0
 13 30  1  0
 13 31  1  0
 14 32  1  1
 15 33  1  0
 15 34  1  0
 15 35  1  0
 16 36  1  0
 17 37  1  0
M  CHG  1  14   1
M  END
>  <meeko>  (5) 
{"is_sidechain": [false], "free_energy": -5.565, "intermolecular_energy": -6.621, "internal_energy": -0.15}

$$$$
4jfs_ligand
     RDKit          3D

 37 38  0  0  0  0  0  0  0  0999 V2000
  -16.5250    6.8390   31.9260 C   0  0  0  0  0  0  0  0  0  0  0  0
  -15.7920    7.7600   31.1270 O   0  0  0  0  0  0  0  0  0  0  0  0
  -15.7170    9.0500   31.5680 C   0  0  0  0  0  0  0  0  0  0  0  0
  -16.5010    9.3270   32.6880 C   0  0  0  0  0  0  0  0  0  0  0  0
  -16.5230   10.6050   33.2510 C   0  0  0  0  0  0  0  0  0  0  0  0
  -15.7540   11.6400   32.6980 C   0  0  0  0  0  0  0  0  0  0  0  0
  -15.7330   13.0370   33.2840 C   0  0  1  0  0  0  0  0  0  0  0  0
  -17.0710   13.4280   33.9860 C   0  0  2  0  0  0  0  0  0  0  0  0
  -17.9100   14.2460   33.1700 O   0  0  0  0  0  0  0  0  0  0  0  0
  -16.6100   14.2470   35.1910 C   0  0  2  0  0  0  0  0  0  0  0  0
  -16.2270   15.5560   34.7410 O   0  0  0  0  0  0  0  0  0  0  0  0
  -15.3670   13.4810   35.6540 C   0  0  2  0  0  0  0  0  0  0  0  0
  -14.5030   14.2430   36.6480 C   0  0  0  0  0  0  0  0  0  0  0  0
  -14.6370   13.3040   34.3310 N   0  0  1  0  0  0  0  0  0  0  0  0
  -13.4390   12.4190   34.3300 C   0  0  0  0  0  0  0  0  0  0  0  0
  -14.9650   11.3510   31.5720 C   0  0  0  0  0  0  0  0  0  0  0  0
  -14.9480   10.0680   31.0110 C   0  0  0  0  0  0  0  0  0  0  0  0
  -16.3512    7.0574   32.9900 H   0  0  0  0  0  0  0  0  0  0  0  0
  -17.5980    6.9331   31.7029 H   0  0  0  0  0  0  0  0  0  0  0  0
  -16.1925    5.8145   31.7029 H   0  0  0  0  0  0  0  0  0  0  0  0
  -17.1106    8.5275   33.1342 H   0  0  0  0  0  0  0  0  0  0  0  0
  -17.1480   10.8015   34.1346 H   0  0  0  0  0  0  0  0  0  0  0  0
  -15.5405   13.6399   32.3843 H   0  0  0  0  0  0  0  0  0  0  0  0
  -17.6656   12.5348   34.2282 H   0  0  0  0  0  0  0  0  0  0  0  0
  -18.8410   13.9970   33.3320 H   0  0  0  0  0  0  0  0  0  0  0  0
  -17.3716   14.3692   35.9752 H   0  0  0  0  0  0  0  0  0  0  0  0
  -16.9310   15.8370   34.1150 H   0  0  0  0  0  0  0  0  0  0  0  0
  -15.6139   12.5563   36.1962 H   0  0  0  0  0  0  0  0  0  0  0  0
  -14.8029   13.9785   37.6727 H   0  0  0  0  0  0  0  0  0  0  0  0
  -13.4467   13.9771   36.4949 H   0  0  0  0  0  0  0  0  0  0  0  0
  -14.6348   15.3243   36.4949 H   0  0  0  0  0  0  0  0  0  0  0  0
  -14.3120   14.2580   34.1010 H   0  0  0  0  0  0  0  0  0  0  0  0
  -13.1435   12.2007   35.3668 H   0  0  0  0  0  0  0  0  0  0  0  0
  -13.6780   11.4789   33.8112 H   0  0  0  0  0  0  0  0  0  0  0  0
  -12.6107   12.9237   33.8112 H   0  0  0  0  0  0  0  0  0  0  0  0
  -14.3505   12.1456   31.1237 H   0  0  0  0  0  0  0  0  0  0  0  0
  -14.3251    9.8640   30.1276 H   0  0  0  0  0  0  0  0  0  0  0  0
  1  2  1  0
  2  3  1  0
  3  4  2  0
  4  5  1  0
  5  6  2  0
  6  7  1  0
  7  8  1  0
  8  9  1  0
  8 10  1  0
 10 11  1  0
 10 12  1  0
 12 13  1  0
 12 14  1  0
 14 15  1  0
  6 16  1  0
 16 17  2  0
 17  3  1  0
 14  7  1  0
  1 18  1  0
  1 19  1  0
  1 20  1  0
  4 21  1  0
  5 22  1  0
  7 23  1  6
  8 24  1  1
  9 25  1  0
 10 26  1  1
 11 27  1  0
 12 28  1  1
 13 29  1  0
 13 30  1  0
 13 31  1  0
 14 32  1  6
 15 33  1  0
 15 34  1  0
 15 35  1  0
 16 36  1  0
 17 37  1  0
M  CHG  1  14   1
M  END
>  <meeko>  (6) 
{"is_sidechain": [false], "free_energy": -5.405, "intermolecular_energy": -6.414, "internal_energy": -0.17}

$$$$
4jfs_ligand
     RDKit          3D

 37 38  0  0  0  0  0  0  0  0999 V2000
  -21.7450   12.1050   34.5980 C   0  0  0  0  0  0  0  0  0  0  0  0
  -20.6900   11.6670   33.7500 O   0  0  0  0  0  0  0  0  0  0  0  0
  -19.4230   12.0570   34.0770 C   0  0  0  0  0  0  0  0  0  0  0  0
  -19.1920   12.1930   35.4460 C   0  0  0  0  0  0  0  0  0  0  0  0
  -17.9400   12.5840   35.9270 C   0  0  0  0  0  0  0  0  0  0  0  0
  -16.8860   12.8500   35.0400 C   0  0  0  0  0  0  0  0  0  0  0  0
  -15.5080   13.2600   35.5160 C   0  0  1  0  0  0  0  0  0  0  0  0
  -14.3670   12.8100   34.5500 C   0  0  2  0  0  0  0  0  0  0  0  0
  -13.6980   11.6280   34.9900 O   0  0  0  0  0  0  0  0  0  0  0  0
  -13.3830   13.9780   34.6000 C   0  0  2  0  0  0  0  0  0  0  0  0
  -12.6460   13.9090   35.8310 O   0  0  0  0  0  0  0  0  0  0  0  0
  -14.3150   15.1930   34.6290 C   0  0  2  0  0  0  0  0  0  0  0  0
  -13.6240   16.4960   35.0040 C   0  0  0  0  0  0  0  0  0  0  0  0
  -15.2940   14.7710   35.7140 N   0  0  1  0  0  0  0  0  0  0  0  0
  -16.4970   15.6270   35.9140 C   0  0  0  0  0  0  0  0  0  0  0  0
  -17.1270   12.7070   33.6630 C   0  0  0  0  0  0  0  0  0  0  0  0
  -18.3850   12.3160   33.1860 C   0  0  0  0  0  0  0  0  0  0  0  0
  -21.4460   11.9809   35.6493 H   0  0  0  0  0  0  0  0  0  0  0  0
  -21.9580   13.1659   34.4002 H   0  0  0  0  0  0  0  0  0  0  0  0
  -22.6468   11.5069   34.4002 H   0  0  0  0  0  0  0  0  0  0  0  0
  -20.0068   11.9896   36.1565 H   0  0  0  0  0  0  0  0  0  0  0  0
  -17.7792   12.6842   37.0106 H   0  0  0  0  0  0  0  0  0  0  0  0
  -15.4596   12.7486   36.4887 H   0  0  0  0  0  0  0  0  0  0  0  0
  -14.7643   12.5762   33.5513 H   0  0  0  0  0  0  0  0  0  0  0  0
  -14.3410   11.0630   35.4610 H   0  0  0  0  0  0  0  0  0  0  0  0
  -12.6579   13.9967   33.7731 H   0  0  0  0  0  0  0  0  0  0  0  0
  -11.7040   14.0400   35.5830 H   0  0  0  0  0  0  0  0  0  0  0  0
  -14.7531   15.4173   33.6453 H   0  0  0  0  0  0  0  0  0  0  0  0
  -13.5772   16.5842   36.0995 H   0  0  0  0  0  0  0  0  0  0  0  0
  -12.6042   16.5020   34.5918 H   0  0  0  0  0  0  0  0  0  0  0  0
  -14.1911   17.3436   34.5918 H   0  0  0  0  0  0  0  0  0  0  0  0
  -14.7350   14.8220   36.5820 H   0  0  0  0  0  0  0  0  0  0  0  0
  -16.6796   15.7569   36.9909 H   0  0  0  0  0  0  0  0  0  0  0  0
  -16.3291   16.6098   35.4494 H   0  0  0  0  0  0  0  0  0  0  0  0
  -17.3705   15.1462   35.4494 H   0  0  0  0  0  0  0  0  0  0  0  0
  -16.3149   12.9052   32.9481 H   0  0  0  0  0  0  0  0  0  0  0  0
  -18.5532   12.2133   32.1038 H   0  0  0  0  0  0  0  0  0  0  0  0
  1  2  1  0
  2  3  1  0
  3  4  2  0
  4  5  1  0
  5  6  2  0
  6  7  1  0
  7  8  1  0
  8  9  1  0
  8 10  1  0
 10 11  1  0
 10 12  1  0
 12 13  1  0
 12 14  1  0
 14 15  1  0
  6 16  1  0
 16 17  2  0
 17  3  1  0
 14  7  1  0
  1 18  1  0
  1 19  1  0
  1 20  1  0
  4 21  1  0
  5 22  1  0
  7 23  1  1
  8 24  1  6
  9 25  1  0
 10 26  1  6
 11 27  1  0
 12 28  1  6
 13 29  1  0
 13 30  1  0
 13 31  1  0
 14 32  1  1
 15 33  1  0
 15 34  1  0
 15 35  1  0
 16 36  1  0
 17 37  1  0
M  CHG  1  14   1
M  END
>  <meeko>  (7) 
{"is_sidechain": [false], "free_energy": -5.287, "intermolecular_energy": -6.248, "internal_energy": -0.197}

$$$$
4jfs_ligand
     RDKit          3D

 37 38  0  0  0  0  0  0  0  0999 V2000
  -12.2630   15.3730   35.8340 C   0  0  0  0  0  0  0  0  0  0  0  0
  -13.1670   14.5280   36.5370 O   0  0  0  0  0  0  0  0  0  0  0  0
  -14.3260   14.1860   35.9020 C   0  0  0  0  0  0  0  0  0  0  0  0
  -15.3550   13.7760   36.7490 C   0  0  0  0  0  0  0  0  0  0  0  0
  -16.5990   13.3980   36.2390 C   0  0  0  0  0  0  0  0  0  0  0  0
  -16.8390   13.4230   34.8570 C   0  0  0  0  0  0  0  0  0  0  0  0
  -18.1770   13.0380   34.2590 C   0  0  1  0  0  0  0  0  0  0  0  0
  -18.7490   11.7080   34.8400 C   0  0  2  0  0  0  0  0  0  0  0  0
  -18.5270   10.5850   33.9860 O   0  0  0  0  0  0  0  0  0  0  0  0
  -20.2510   11.9750   34.9200 C   0  0  2  0  0  0  0  0  0  0  0  0
  -20.8080   11.8750   33.5990 O   0  0  0  0  0  0  0  0  0  0  0  0
  -20.3020   13.4320   35.3870 C   0  0  2  0  0  0  0  0  0  0  0  0
  -21.6720   14.0800   35.2490 C   0  0  0  0  0  0  0  0  0  0  0  0
  -19.3060   14.0700   34.4310 N   0  0  1  0  0  0  0  0  0  0  0  0
  -18.9240   15.4860   34.6940 C   0  0  0  0  0  0  0  0  0  0  0  0
  -15.7990   13.8410   34.0110 C   0  0  0  0  0  0  0  0  0  0  0  0
  -14.5520   14.2170   34.5280 C   0  0  0  0  0  0  0  0  0  0  0  0
  -11.6559   15.9405   36.5546 H   0  0  0  0  0  0  0  0  0  0  0  0
  -11.6039   14.7597   35.2020 H   0  0  0  0  0  0  0  0  0  0  0  0
  -12.8305   16.0719   35.2020 H   0  0  0  0  0  0  0  0  0  0  0  0
  -15.1844   13.7499   37.8354 H   0  0  0  0  0  0  0  0  0  0  0  0
  -17.3965   13.0783   36.9259 H   0  0  0  0  0  0  0  0  0  0  0  0
  -17.9140   12.9508   33.1945 H   0  0  0  0  0  0  0  0  0  0  0  0
  -18.2683   11.4567   35.7970 H   0  0  0  0  0  0  0  0  0  0  0  0
  -18.3200    9.8070   34.5410 H   0  0  0  0  0  0  0  0  0  0  0  0
  -20.8019   11.2820   35.5729 H   0  0  0  0  0  0  0  0  0  0  0  0
  -20.7160   10.9300   33.3440 H   0  0  0  0  0  0  0  0  0  0  0  0
  -20.0802   13.5434   36.4586 H   0  0  0  0  0  0  0  0  0  0  0  0
  -22.0871   14.2763   36.2486 H   0  0  0  0  0  0  0  0  0  0  0  0
  -21.5756   15.0279   34.6993 H   0  0  0  0  0  0  0  0  0  0  0  0
  -22.3436   13.4041   34.6993 H   0  0  0  0  0  0  0  0  0  0  0  0
  -19.7920   14.0480   33.5200 H   0  0  0  0  0  0  0  0  0  0  0  0
  -18.8777   15.6577   35.7795 H   0  0  0  0  0  0  0  0  0  0  0  0
  -17.9390   15.6889   34.2483 H   0  0  0  0  0  0  0  0  0  0  0  0
  -19.6733   16.1568   34.2483 H   0  0  0  0  0  0  0  0  0  0  0  0
  -15.9660   13.8738   32.9243 H   0  0  0  0  0  0  0  0  0  0  0  0
  -13.7497   14.5374   33.8471 H   0  0  0  0  0  0  0  0  0  0  0  0
  1  2  1  0
  2  3  1  0
  3  4  2  0
  4  5  1  0
  5  6  2  0
  6  7  1  0
  7  8  1  0
  8  9  1  0
  8 10  1  0
 10 11  1  0
 10 12  1  0
 12 13  1  0
 12 14  1  0
 14 15  1  0
  6 16  1  0
 16 17  2  0
 17  3  1  0
 14  7  1  0
  1 18  1  0
  1 19  1  0
  1 20  1  0
  4 21  1  0
  5 22  1  0
  7 23  1  6
  8 24  1  1
  9 25  1  0
 10 26  1  1
 11 27  1  0
 12 28  1  1
 13 29  1  0
 13 30  1  0
 13 31  1  0
 14 32  1  6
 15 33  1  0
 15 34  1  0
 15 35  1  0
 16 36  1  0
 17 37  1  0
M  CHG  1  14   1
M  END
>  <meeko>  (8) 
{"is_sidechain": [false], "free_energy": -4.922, "intermolecular_energy": -5.801, "internal_energy": -0.214}

$$$$
4jfs_ligand
     RDKit          3D

 37 38  0  0  0  0  0  0  0  0999 V2000
  -14.9980    9.4220   31.3910 C   0  0  0  0  0  0  0  0  0  0  0  0
  -14.7600   10.8220   31.3030 O   0  0  0  0  0  0  0  0  0  0  0  0
  -15.3860   11.6200   32.2170 C   0  0  0  0  0  0  0  0  0  0  0  0
  -16.5730   12.2000   31.7660 C   0  0  0  0  0  0  0  0  0  0  0  0
  -17.3220   13.0390   32.5940 C   0  0  0  0  0  0  0  0  0  0  0  0
  -16.8950   13.3180   33.9010 C   0  0  0  0  0  0  0  0  0  0  0  0
  -17.6820   14.2080   34.8400 C   0  0  1  0  0  0  0  0  0  0  0  0
  -18.1120   15.5590   34.1880 C   0  0  2  0  0  0  0  0  0  0  0  0
  -17.2650   16.6490   34.5540 O   0  0  0  0  0  0  0  0  0  0  0  0
  -19.5040   15.8030   34.7680 C   0  0  2  0  0  0  0  0  0  0  0  0
  -19.3650   16.2660   36.1210 O   0  0  0  0  0  0  0  0  0  0  0  0
  -20.1130   14.3980   34.7680 C   0  0  2  0  0  0  0  0  0  0  0  0
  -21.3850   14.2730   35.5920 C   0  0  0  0  0  0  0  0  0  0  0  0
  -18.9810   13.6010   35.4000 N   0  0  1  0  0  0  0  0  0  0  0  0
  -19.1150   12.1180   35.4040 C   0  0  0  0  0  0  0  0  0  0  0  0
  -15.7010   12.7270   34.3470 C   0  0  0  0  0  0  0  0  0  0  0  0
  -14.9520   11.8870   33.5120 C   0  0  0  0  0  0  0  0  0  0  0  0
  -15.0486    9.1245   32.4488 H   0  0  0  0  0  0  0  0  0  0  0  0
  -15.9502    9.1801   30.8961 H   0  0  0  0  0  0  0  0  0  0  0  0
  -14.1793    8.8791   30.8961 H   0  0  0  0  0  0  0  0  0  0  0  0
  -16.9234   11.9933   30.7440 H   0  0  0  0  0  0  0  0  0  0  0  0
  -18.2547   13.4849   32.2182 H   0  0  0  0  0  0  0  0  0  0  0  0
  -16.9568   14.3486   35.6551 H   0  0  0  0  0  0  0  0  0  0  0  0
  -18.0677   15.4994   33.0905 H   0  0  0  0  0  0  0  0  0  0  0  0
  -16.9410   17.0800   33.7380 H   0  0  0  0  0  0  0  0  0  0  0  0
  -20.1024   16.5434   34.2169 H   0  0  0  0  0  0  0  0  0  0  0  0
  -19.5550   15.4860   36.6880 H   0  0  0  0  0  0  0  0  0  0  0  0
  -20.4321   14.0721   33.7670 H   0  0  0  0  0  0  0  0  0  0  0  0
  -21.1324   14.2978   36.6623 H   0  0  0  0  0  0  0  0  0  0  0  0
  -22.0592   15.1092   35.3549 H   0  0  0  0  0  0  0  0  0  0  0  0
  -21.8835   13.3215   35.3549 H   0  0  0  0  0  0  0  0  0  0  0  0
  -18.9840   13.9110   36.3870 H   0  0  0  0  0  0  0  0  0  0  0  0
  -19.1477   11.7556   36.4421 H   0  0  0  0  0  0  0  0  0  0  0  0
  -20.0426   11.8323   34.8864 H   0  0  0  0  0  0  0  0  0  0  0  0
  -18.2536   11.6706   34.8864 H   0  0  0  0  0  0  0  0  0  0  0  0
  -15.3479   12.9271   35.3694 H   0  0  0  0  0  0  0  0  0  0  0  0
  -14.0184   11.4374   33.8812 H   0  0  0  0  0  0  0  0  0  0  0  0
  1  2  1  0
  2  3  1  0
  3  4  2  0
  4  5  1  0
  5  6  2  0
  6  7  1  0
  7  8  1  0
  8  9  1  0
  8 10  1  0
 10 11  1  0
 10 12  1  0
 12 13  1  0
 12 14  1  0
 14 15  1  0
  6 16  1  0
 16 17  2  0
 17  3  1  0
 14  7  1  0
  1 18  1  0
  1 19  1  0
  1 20  1  0
  4 21  1  0
  5 22  1  0
  7 23  1  1
  8 24  1  6
  9 25  1  0
 10 26  1  6
 11 27  1  0
 12 28  1  6
 13 29  1  0
 13 30  1  0
 13 31  1  0
 14 32  1  1
 15 33  1  0
 15 34  1  0
 15 35  1  0
 16 36  1  0
 17 37  1  0
M  CHG  1  14   1
M  END
>  <meeko>  (9) 
{"is_sidechain": [false], "free_energy": -4.882, "intermolecular_energy": -5.762, "internal_energy": -0.206}

$$$$
