4jsz_ligand
     RDKit          3D

 17 17  0  0  0  0  0  0  0  0999 V2000
   33.2520   -2.3060   10.2960 N   0  0  0  0  0  0  0  0  0  0  0  0
   33.9550   -1.1310   11.2770 S   0  0  0  0  0  0  0  0  0  0  0  0
   35.1050   -1.7170   11.9210 O   0  0  0  0  0  0  0  0  0  0  0  0
   34.0420    0.0550   10.4570 O   0  0  0  0  0  0  0  0  0  0  0  0
   32.6900   -0.8870   12.4940 C   0  0  0  0  0  0  0  0  0  0  0  0
   32.0620    0.3590   12.5860 C   0  0  0  0  0  0  0  0  0  0  0  0
   31.0640    0.5550   13.5410 C   0  0  0  0  0  0  0  0  0  0  0  0
   30.6940   -0.4910   14.3880 C   0  0  0  0  0  0  0  0  0  0  0  0
   31.3160   -1.7370   14.2830 C   0  0  0  0  0  0  0  0  0  0  0  0
   32.3150   -1.9410   13.3320 C   0  0  0  0  0  0  0  0  0  0  0  0
   32.2720   -2.4780   10.5160 H   0  0  0  0  0  0  0  0  0  0  0  0
   33.3830   -2.0390    9.3190 H   0  0  0  0  0  0  0  0  0  0  0  0
   32.3524    1.1777   11.9111 H   0  0  0  0  0  0  0  0  0  0  0  0
   30.5689    1.5335   13.6265 H   0  0  0  0  0  0  0  0  0  0  0  0
   29.9087   -0.3331   15.1419 H   0  0  0  0  0  0  0  0  0  0  0  0
   31.0175   -2.5582   14.9512 H   0  0  0  0  0  0  0  0  0  0  0  0
   32.8036   -2.9224   13.2420 H   0  0  0  0  0  0  0  0  0  0  0  0
  1  2  1  0
  2  3  2  0
  2  4  2  0
  2  5  1  0
  5  6  2  0
  6  7  1  0
  7  8  2  0
  8  9  1  0
  9 10  2  0
 10  5  1  0
  1 11  1  0
  1 12  1  0
  6 13  1  0
  7 14  1  0
  8 15  1  0
  9 16  1  0
 10 17  1  0
M  END
>  <meeko>  (1) 
{"is_sidechain": [false], "free_energy": -4.978, "intermolecular_energy": -5.415, "internal_energy": -0.031}

$$$$
4jsz_ligand
     RDKit          3D

 17 17  0  0  0  0  0  0  0  0999 V2000
   33.2560   -2.2720   10.3060 N   0  0  0  0  0  0  0  0  0  0  0  0
   33.9510   -1.0990   11.2950 S   0  0  0  0  0  0  0  0  0  0  0  0
   35.0950   -1.6880   11.9490 O   0  0  0  0  0  0  0  0  0  0  0  0
   34.0470    0.0890   10.4780 O   0  0  0  0  0  0  0  0  0  0  0  0
   32.6760   -0.8550   12.5010 C   0  0  0  0  0  0  0  0  0  0  0  0
   32.3270   -1.9110   13.3510 C   0  0  0  0  0  0  0  0  0  0  0  0
   31.3260   -1.7220   14.3030 C   0  0  0  0  0  0  0  0  0  0  0  0
   30.6860   -0.4860   14.4070 C   0  0  0  0  0  0  0  0  0  0  0  0
   31.0470    0.5690   13.5650 C   0  0  0  0  0  0  0  0  0  0  0  0
   32.0470    0.3880   12.6100 C   0  0  0  0  0  0  0  0  0  0  0  0
   32.2880   -2.4790   10.5500 H   0  0  0  0  0  0  0  0  0  0  0  0
   33.3490   -1.9780    9.3320 H   0  0  0  0  0  0  0  0  0  0  0  0
   32.8381   -2.8816   13.2686 H   0  0  0  0  0  0  0  0  0  0  0  0
   31.0406   -2.5471   14.9722 H   0  0  0  0  0  0  0  0  0  0  0  0
   29.8932   -0.3417   15.1558 H   0  0  0  0  0  0  0  0  0  0  0  0
   30.5425    1.5423   13.6554 H   0  0  0  0  0  0  0  0  0  0  0  0
   32.3382    1.2168   11.9480 H   0  0  0  0  0  0  0  0  0  0  0  0
  1  2  1  0
  2  3  2  0
  2  4  2  0
  2  5  1  0
  5  6  2  0
  6  7  1  0
  7  8  2  0
  8  9  1  0
  9 10  2  0
 10  5  1  0
  1 11  1  0
  1 12  1  0
  6 13  1  0
  7 14  1  0
  8 15  1  0
  9 16  1  0
 10 17  1  0
M  END
>  <meeko>  (2) 
{"is_sidechain": [false], "free_energy": -4.978, "intermolecular_energy": -5.414, "internal_energy": -0.031}

$$$$
4jsz_ligand
     RDKit          3D

 17 17  0  0  0  0  0  0  0  0999 V2000
   33.2600   -2.1390   10.4780 N   0  0  0  0  0  0  0  0  0  0  0  0
   33.9240   -2.0150   12.0210 S   0  0  0  0  0  0  0  0  0  0  0  0
   34.0430   -3.3460   12.5640 O   0  0  0  0  0  0  0  0  0  0  0  0
   35.0550   -1.1250   11.8840 O   0  0  0  0  0  0  0  0  0  0  0  0
   32.6360   -1.1630   12.8900 C   0  0  0  0  0  0  0  0  0  0  0  0
   32.2430    0.1070   12.4560 C   0  0  0  0  0  0  0  0  0  0  0  0
   31.2280    0.7800   13.1360 C   0  0  0  0  0  0  0  0  0  0  0  0
   30.6080    0.1820   14.2350 C   0  0  0  0  0  0  0  0  0  0  0  0
   30.9970   -1.0920   14.6560 C   0  0  0  0  0  0  0  0  0  0  0  0
   32.0110   -1.7710   13.9820 C   0  0  0  0  0  0  0  0  0  0  0  0
   32.2620   -1.9320   10.4540 H   0  0  0  0  0  0  0  0  0  0  0  0
   33.7900   -1.5390    9.8430 H   0  0  0  0  0  0  0  0  0  0  0  0
   32.7301    0.5712   11.5858 H   0  0  0  0  0  0  0  0  0  0  0  0
   30.9159    1.7820   12.8065 H   0  0  0  0  0  0  0  0  0  0  0  0
   29.8100    0.7163   14.7715 H   0  0  0  0  0  0  0  0  0  0  0  0
   30.5027   -1.5599   15.5202 H   0  0  0  0  0  0  0  0  0  0  0  0
   32.3164   -2.7766   14.3069 H   0  0  0  0  0  0  0  0  0  0  0  0
  1  2  1  0
  2  3  2  0
  2  4  2  0
  2  5  1  0
  5  6  2  0
  6  7  1  0
  7  8  2  0
  8  9  1  0
  9 10  2  0
 10  5  1  0
  1 11  1  0
  1 12  1  0
  6 13  1  0
  7 14  1  0
  8 15  1  0
  9 16  1  0
 10 17  1  0
M  END
>  <meeko>  (3) 
{"is_sidechain": [false], "free_energy": -4.812, "intermolecular_energy": -5.234, "internal_energy": -0.032}

$$$$
4jsz_ligand
     RDKit          3D

 17 17  0  0  0  0  0  0  0  0999 V2000
   32.2430   -0.4260   15.6680 N   0  0  0  0  0  0  0  0  0  0  0  0
   31.6850   -0.9810   14.1790 S   0  0  0  0  0  0  0  0  0  0  0  0
   30.6760   -1.9830   14.4240 O   0  0  0  0  0  0  0  0  0  0  0  0
   31.4300    0.2060   13.3950 O   0  0  0  0  0  0  0  0  0  0  0  0
   33.1320   -1.7820   13.5390 C   0  0  0  0  0  0  0  0  0  0  0  0
   34.2630   -1.9000   14.3520 C   0  0  0  0  0  0  0  0  0  0  0  0
   35.4030   -2.5320   13.8540 C   0  0  0  0  0  0  0  0  0  0  0  0
   35.4040   -3.0460   12.5560 C   0  0  0  0  0  0  0  0  0  0  0  0
   34.2660   -2.9360   11.7530 C   0  0  0  0  0  0  0  0  0  0  0  0
   33.1230   -2.3060   12.2430 C   0  0  0  0  0  0  0  0  0  0  0  0
   32.9360   -1.0420   16.0910 H   0  0  0  0  0  0  0  0  0  0  0  0
   32.5970    0.5250   15.5530 H   0  0  0  0  0  0  0  0  0  0  0  0
   34.2544   -1.4980   15.3759 H   0  0  0  0  0  0  0  0  0  0  0  0
   36.3002   -2.6252   14.4836 H   0  0  0  0  0  0  0  0  0  0  0  0
   36.3051   -3.5400   12.1636 H   0  0  0  0  0  0  0  0  0  0  0  0
   34.2719   -3.3471   10.7327 H   0  0  0  0  0  0  0  0  0  0  0  0
   32.2230   -2.2221   11.6161 H   0  0  0  0  0  0  0  0  0  0  0  0
  1  2  1  0
  2  3  2  0
  2  4  2  0
  2  5  1  0
  5  6  2  0
  6  7  1  0
  7  8  2  0
  8  9  1  0
  9 10  2  0
 10  5  1  0
  1 11  1  0
  1 12  1  0
  6 13  1  0
  7 14  1  0
  8 15  1  0
  9 16  1  0
 10 17  1  0
M  END
>  <meeko>  (4) 
{"is_sidechain": [false], "free_energy": -4.736, "intermolecular_energy": -5.146, "internal_energy": -0.036}

$$$$
4jsz_ligand
     RDKit          3D

 17 17  0  0  0  0  0  0  0  0999 V2000
   32.2580   -0.4250   15.6690 N   0  0  0  0  0  0  0  0  0  0  0  0
   31.7430   -0.9910   14.1690 S   0  0  0  0  0  0  0  0  0  0  0  0
   30.7190   -1.9820   14.3920 O   0  0  0  0  0  0  0  0  0  0  0  0
   31.5230    0.1900   13.3650 O   0  0  0  0  0  0  0  0  0  0  0  0
   33.2020   -1.8100   13.5830 C   0  0  0  0  0  0  0  0  0  0  0  0
   33.1770   -2.4430   12.3360 C   0  0  0  0  0  0  0  0  0  0  0  0
   34.3230   -3.0860   11.8700 C   0  0  0  0  0  0  0  0  0  0  0  0
   35.4850   -3.0870   12.6440 C   0  0  0  0  0  0  0  0  0  0  0  0
   35.5090   -2.4420   13.8820 C   0  0  0  0  0  0  0  0  0  0  0  0
   34.3670   -1.7970   14.3560 C   0  0  0  0  0  0  0  0  0  0  0  0
   31.4900   -0.2510   16.3160 H   0  0  0  0  0  0  0  0  0  0  0  0
   32.9390   -1.0830   16.0530 H   0  0  0  0  0  0  0  0  0  0  0  0
   32.2605   -2.4336   11.7278 H   0  0  0  0  0  0  0  0  0  0  0  0
   34.3117   -3.5921   10.8934 H   0  0  0  0  0  0  0  0  0  0  0  0
   36.3866   -3.5988   12.2764 H   0  0  0  0  0  0  0  0  0  0  0  0
   36.4296   -2.4426   14.4841 H   0  0  0  0  0  0  0  0  0  0  0  0
   34.3826   -1.2831   15.3284 H   0  0  0  0  0  0  0  0  0  0  0  0
  1  2  1  0
  2  3  2  0
  2  4  2  0
  2  5  1  0
  5  6  2  0
  6  7  1  0
  7  8  2  0
  8  9  1  0
  9 10  2  0
 10  5  1  0
  1 11  1  0
  1 12  1  0
  6 13  1  0
  7 14  1  0
  8 15  1  0
  9 16  1  0
 10 17  1  0
M  END
>  <meeko>  (5) 
{"is_sidechain": [false], "free_energy": -4.73, "intermolecular_energy": -5.141, "internal_energy": -0.035}

$$$$
4jsz_ligand
     RDKit          3D

 17 17  0  0  0  0  0  0  0  0999 V2000
   33.2640   -1.5630   15.0580 N   0  0  0  0  0  0  0  0  0  0  0  0
   32.3950   -1.8790   13.6510 S   0  0  0  0  0  0  0  0  0  0  0  0
   33.1820   -2.7670   12.8300 O   0  0  0  0  0  0  0  0  0  0  0  0
   31.0560   -2.2040   14.0880 O   0  0  0  0  0  0  0  0  0  0  0  0
   32.3690   -0.2800   12.8870 C   0  0  0  0  0  0  0  0  0  0  0  0
   33.4200    0.0910   12.0420 C   0  0  0  0  0  0  0  0  0  0  0  0
   33.4020    1.3480   11.4370 C   0  0  0  0  0  0  0  0  0  0  0  0
   32.3370    2.2200   11.6710 C   0  0  0  0  0  0  0  0  0  0  0  0
   31.2840    1.8390   12.5060 C   0  0  0  0  0  0  0  0  0  0  0  0
   31.2940    0.5840   13.1150 C   0  0  0  0  0  0  0  0  0  0  0  0
   33.2520   -0.5790   15.3240 H   0  0  0  0  0  0  0  0  0  0  0  0
   32.9100   -2.1630   15.8050 H   0  0  0  0  0  0  0  0  0  0  0  0
   34.2535   -0.6023   11.8561 H   0  0  0  0  0  0  0  0  0  0  0  0
   34.2268    1.6520   10.7757 H   0  0  0  0  0  0  0  0  0  0  0  0
   32.3271    3.2119   11.1955 H   0  0  0  0  0  0  0  0  0  0  0  0
   30.4461    2.5292   12.6835 H   0  0  0  0  0  0  0  0  0  0  0  0
   30.4639    0.2772   13.7684 H   0  0  0  0  0  0  0  0  0  0  0  0
  1  2  1  0
  2  3  2  0
  2  4  2  0
  2  5  1  0
  5  6  2  0
  6  7  1  0
  7  8  2  0
  8  9  1  0
  9 10  2  0
 10  5  1  0
  1 11  1  0
  1 12  1  0
  6 13  1  0
  7 14  1  0
  8 15  1  0
  9 16  1  0
 10 17  1  0
M  END
>  <meeko>  (6) 
{"is_sidechain": [false], "free_energy": -4.688, "intermolecular_energy": -5.099, "internal_energy": -0.03}

$$$$
4jsz_ligand
     RDKit          3D

 17 17  0  0  0  0  0  0  0  0999 V2000
   34.6130   -3.2500   14.0300 N   0  0  0  0  0  0  0  0  0  0  0  0
   34.3650   -2.3370   12.6360 S   0  0  0  0  0  0  0  0  0  0  0  0
   35.5250   -1.5020   12.4370 O   0  0  0  0  0  0  0  0  0  0  0  0
   33.8990   -3.2740   11.6380 O   0  0  0  0  0  0  0  0  0  0  0  0
   33.0070   -1.3100   13.1260 C   0  0  0  0  0  0  0  0  0  0  0  0
   32.3000   -1.6220   14.2920 C   0  0  0  0  0  0  0  0  0  0  0  0
   31.2320   -0.8150   14.6830 C   0  0  0  0  0  0  0  0  0  0  0  0
   30.8820    0.2980   13.9160 C   0  0  0  0  0  0  0  0  0  0  0  0
   31.5990    0.6120   12.7590 C   0  0  0  0  0  0  0  0  0  0  0  0
   32.6680   -0.1900   12.3620 C   0  0  0  0  0  0  0  0  0  0  0  0
   35.1000   -4.1280   13.8530 H   0  0  0  0  0  0  0  0  0  0  0  0
   35.1020   -2.6740   14.7170 H   0  0  0  0  0  0  0  0  0  0  0  0
   32.5841   -2.4967   14.8955 H   0  0  0  0  0  0  0  0  0  0  0  0
   30.6657   -1.0551   15.5950 H   0  0  0  0  0  0  0  0  0  0  0  0
   30.0370    0.9311   14.2245 H   0  0  0  0  0  0  0  0  0  0  0  0
   31.3201    1.4922   12.1611 H   0  0  0  0  0  0  0  0  0  0  0  0
   33.2397    0.0567   11.4552 H   0  0  0  0  0  0  0  0  0  0  0  0
  1  2  1  0
  2  3  2  0
  2  4  2  0
  2  5  1  0
  5  6  2  0
  6  7  1  0
  7  8  2  0
  8  9  1  0
  9 10  2  0
 10  5  1  0
  1 11  1  0
  1 12  1  0
  6 13  1  0
  7 14  1  0
  8 15  1  0
  9 16  1  0
 10 17  1  0
M  END
>  <meeko>  (7) 
{"is_sidechain": [false], "free_energy": -4.636, "intermolecular_energy": -5.038, "internal_energy": -0.036}

$$$$
4jsz_ligand
     RDKit          3D

 17 17  0  0  0  0  0  0  0  0999 V2000
   34.3860   -0.0440    9.9040 N   0  0  0  0  0  0  0  0  0  0  0  0
   34.1420    0.7950   11.3430 S   0  0  0  0  0  0  0  0  0  0  0  0
   35.4170    0.9260   12.0050 O   0  0  0  0  0  0  0  0  0  0  0  0
   33.3260    1.9350   10.9920 O   0  0  0  0  0  0  0  0  0  0  0  0
   33.1480   -0.3540   12.2560 C   0  0  0  0  0  0  0  0  0  0  0  0
   32.0330    0.1150   12.9590 C   0  0  0  0  0  0  0  0  0  0  0  0
   31.2460   -0.7850   13.6760 C   0  0  0  0  0  0  0  0  0  0  0  0
   31.5700   -2.1430   13.6830 C   0  0  0  0  0  0  0  0  0  0  0  0
   32.6770   -2.6080   12.9680 C   0  0  0  0  0  0  0  0  0  0  0  0
   33.4690   -1.7140   12.2480 C   0  0  0  0  0  0  0  0  0  0  0  0
   34.5980   -1.0310   10.0460 H   0  0  0  0  0  0  0  0  0  0  0  0
   33.5690    0.0870    9.3040 H   0  0  0  0  0  0  0  0  0  0  0  0
   31.7794    1.1853   12.9461 H   0  0  0  0  0  0  0  0  0  0  0  0
   30.3702   -0.4254   14.2360 H   0  0  0  0  0  0  0  0  0  0  0  0
   30.9509   -2.8504   14.2541 H   0  0  0  0  0  0  0  0  0  0  0  0
   32.9238   -3.6799   12.9731 H   0  0  0  0  0  0  0  0  0  0  0  0
   34.3382   -2.0760   11.6792 H   0  0  0  0  0  0  0  0  0  0  0  0
  1  2  1  0
  2  3  2  0
  2  4  2  0
  2  5  1  0
  5  6  2  0
  6  7  1  0
  7  8  2  0
  8  9  1  0
  9 10  2  0
 10  5  1  0
  1 11  1  0
  1 12  1  0
  6 13  1  0
  7 14  1  0
  8 15  1  0
  9 16  1  0
 10 17  1  0
M  END
>  <meeko>  (8) 
{"is_sidechain": [false], "free_energy": -3.83, "intermolecular_energy": -4.164, "internal_energy": -0.033}

$$$$
4jsz_ligand
     RDKit          3D

 17 17  0  0  0  0  0  0  0  0999 V2000
   30.9770   -2.4700   13.6570 N   0  0  0  0  0  0  0  0  0  0  0  0
   31.8760   -1.0460   13.6100 S   0  0  0  0  0  0  0  0  0  0  0  0
   31.0090    0.0140   13.1540 O   0  0  0  0  0  0  0  0  0  0  0  0
   32.5770   -0.9900   14.8720 O   0  0  0  0  0  0  0  0  0  0  0  0
   33.0440   -1.4110   12.3280 C   0  0  0  0  0  0  0  0  0  0  0  0
   33.3390   -2.7460   12.0320 C   0  0  0  0  0  0  0  0  0  0  0  0
   34.2560   -3.0380   11.0230 C   0  0  0  0  0  0  0  0  0  0  0  0
   34.8650   -2.0020   10.3130 C   0  0  0  0  0  0  0  0  0  0  0  0
   34.5570   -0.6700   10.6040 C   0  0  0  0  0  0  0  0  0  0  0  0
   33.6410   -0.3700   11.6120 C   0  0  0  0  0  0  0  0  0  0  0  0
   31.1870   -3.0490   14.4690 H   0  0  0  0  0  0  0  0  0  0  0  0
   29.9840   -2.2340   13.6040 H   0  0  0  0  0  0  0  0  0  0  0  0
   32.8516   -3.5587   12.5906 H   0  0  0  0  0  0  0  0  0  0  0  0
   34.4994   -4.0844   10.7866 H   0  0  0  0  0  0  0  0  0  0  0  0
   35.5912   -2.2350    9.5203 H   0  0  0  0  0  0  0  0  0  0  0  0
   35.0372    0.1418   10.0379 H   0  0  0  0  0  0  0  0  0  0  0  0
   33.3908    0.6763   11.8413 H   0  0  0  0  0  0  0  0  0  0  0  0
  1  2  1  0
  2  3  2  0
  2  4  2  0
  2  5  1  0
  5  6  2  0
  6  7  1  0
  7  8  2  0
  8  9  1  0
  9 10  2  0
 10  5  1  0
  1 11  1  0
  1 12  1  0
  6 13  1  0
  7 14  1  0
  8 15  1  0
  9 16  1  0
 10 17  1  0
M  END
>  <meeko>  (9) 
{"is_sidechain": [false], "free_energy": -3.768, "intermolecular_energy": -4.094, "internal_energy": -0.035}

$$$$
