4mgd_ligand
     RDKit          3D

 30 31  0  0  0  0  0  0  0  0999 V2000
   -0.0940   -1.9030   18.8220 O   0  0  0  0  0  0  0  0  0  0  0  0
   -1.1120   -2.3820   19.5930 C   0  0  0  0  0  0  0  0  0  0  0  0
   -1.0830   -2.2830   20.9760 C   0  0  0  0  0  0  0  0  0  0  0  0
   -2.1510   -2.7900   21.7210 C   0  0  0  0  0  0  0  0  0  0  0  0
   -3.2630   -3.3950   21.0950 C   0  0  0  0  0  0  0  0  0  0  0  0
   -4.3890   -3.9460   21.9880 C   0  0  0  0  0  0  0  0  0  0  0  0
   -5.1400   -5.0870   21.2830 C   0  0  0  0  0  0  0  0  0  0  0  0
   -6.1550   -4.8370   20.3440 C   0  0  0  0  0  0  0  0  0  0  0  0
   -6.8260   -5.8910   19.7200 C   0  0  0  0  0  0  0  0  0  0  0  0
   -6.4880   -7.2020   20.0250 C   0  0  0  0  0  0  0  0  0  0  0  0
   -7.1710   -8.1980   19.3930 O   0  0  0  0  0  0  0  0  0  0  0  0
   -5.4840   -7.4800   20.9440 C   0  0  0  0  0  0  0  0  0  0  0  0
   -4.8110   -6.4260   21.5680 C   0  0  0  0  0  0  0  0  0  0  0  0
   -5.3280   -2.9340   22.7420 C   0  0  0  0  0  0  0  0  0  0  0  0
   -4.4100   -1.9870   23.9820 Cl  0  0  0  0  0  0  0  0  0  0  0  0
   -6.1920   -1.7690   21.6790 Cl  0  0  0  0  0  0  0  0  0  0  0  0
   -6.6090   -3.8280   23.6750 Cl  0  0  0  0  0  0  0  0  0  0  0  0
   -3.2530   -3.4910   19.6960 C   0  0  0  0  0  0  0  0  0  0  0  0
   -2.1850   -2.9820   18.9500 C   0  0  0  0  0  0  0  0  0  0  0  0
   -0.0350   -2.4420   18.0170 H   0  0  0  0  0  0  0  0  0  0  0  0
   -0.2280   -1.8102   21.4814 H   0  0  0  0  0  0  0  0  0  0  0  0
   -2.1250   -2.7163   22.8182 H   0  0  0  0  0  0  0  0  0  0  0  0
   -3.8414   -4.3469   22.8537 H   0  0  0  0  0  0  0  0  0  0  0  0
   -6.4242   -3.7993   20.0976 H   0  0  0  0  0  0  0  0  0  0  0  0
   -7.6206   -5.6825   18.9884 H   0  0  0  0  0  0  0  0  0  0  0  0
   -7.8750   -8.5150   19.9830 H   0  0  0  0  0  0  0  0  0  0  0  0
   -5.2207   -8.5219   21.1788 H   0  0  0  0  0  0  0  0  0  0  0  0
   -4.0127   -6.6457   22.2922 H   0  0  0  0  0  0  0  0  0  0  0  0
   -4.0958   -3.9727   19.1787 H   0  0  0  0  0  0  0  0  0  0  0  0
   -2.1958   -3.0575   17.8526 H   0  0  0  0  0  0  0  0  0  0  0  0
  1  2  1  0
  2  3  2  0
  3  4  1  0
  4  5  2  0
  5  6  1  0
  6  7  1  0
  7  8  2  0
  8  9  1  0
  9 10  2  0
 10 11  1  0
 10 12  1  0
 12 13  2  0
  6 14  1  0
 14 15  1  0
 14 16  1  0
 14 17  1  0
  5 18  1  0
 18 19  2  0
 19  2  1  0
 13  7  1  0
  1 20  1  0
  3 21  1  0
  4 22  1  0
  6 23  1  0
  8 24  1  0
  9 25  1  0
 11 26  1  0
 12 27  1  0
 13 28  1  0
 18 29  1  0
 19 30  1  0
M  END
>  <meeko>  (1) 
{"is_sidechain": [false], "free_energy": -8.724, "intermolecular_energy": -10.764, "internal_energy": -0.656}

$$$$
4mgd_ligand
     RDKit          3D

 30 31  0  0  0  0  0  0  0  0999 V2000
   -0.1530   -1.9030   18.8620 O   0  0  0  0  0  0  0  0  0  0  0  0
   -1.1480   -2.4090   19.6450 C   0  0  0  0  0  0  0  0  0  0  0  0
   -1.1080   -2.3050   21.0270 C   0  0  0  0  0  0  0  0  0  0  0  0
   -2.1530   -2.8410   21.7850 C   0  0  0  0  0  0  0  0  0  0  0  0
   -3.2520   -3.4800   21.1720 C   0  0  0  0  0  0  0  0  0  0  0  0
   -4.3530   -4.0620   22.0780 C   0  0  0  0  0  0  0  0  0  0  0  0
   -5.1090   -5.1950   21.3660 C   0  0  0  0  0  0  0  0  0  0  0  0
   -6.1480   -4.9340   20.4560 C   0  0  0  0  0  0  0  0  0  0  0  0
   -6.8230   -5.9810   19.8240 C   0  0  0  0  0  0  0  0  0  0  0  0
   -6.4660   -7.2950   20.0940 C   0  0  0  0  0  0  0  0  0  0  0  0
   -7.1540   -8.2840   19.4560 O   0  0  0  0  0  0  0  0  0  0  0  0
   -5.4390   -7.5840   20.9840 C   0  0  0  0  0  0  0  0  0  0  0  0
   -4.7610   -6.5360   21.6140 C   0  0  0  0  0  0  0  0  0  0  0  0
   -5.2830   -3.0750   22.8750 C   0  0  0  0  0  0  0  0  0  0  0  0
   -6.0790   -1.8850   21.7680 Cl  0  0  0  0  0  0  0  0  0  0  0  0
   -6.5650   -3.8700   23.8540 Cl  0  0  0  0  0  0  0  0  0  0  0  0
   -4.3010   -2.0700   24.0320 Cl  0  0  0  0  0  0  0  0  0  0  0  0
   -3.2540   -3.5810   19.7730 C   0  0  0  0  0  0  0  0  0  0  0  0
   -2.2090   -3.0430   19.0150 C   0  0  0  0  0  0  0  0  0  0  0  0
   -0.5320   -1.6440   18.0070 H   0  0  0  0  0  0  0  0  0  0  0  0
   -0.2622   -1.8056   21.5221 H   0  0  0  0  0  0  0  0  0  0  0  0
   -2.1181   -2.7632   22.8817 H   0  0  0  0  0  0  0  0  0  0  0  0
   -3.7827   -4.4774   22.9219 H   0  0  0  0  0  0  0  0  0  0  0  0
   -6.4327   -3.8938   20.2392 H   0  0  0  0  0  0  0  0  0  0  0  0
   -7.6352   -5.7648   19.1143 H   0  0  0  0  0  0  0  0  0  0  0  0
   -8.1030   -8.0800   19.4990 H   0  0  0  0  0  0  0  0  0  0  0  0
   -5.1617   -8.6281   21.1912 H   0  0  0  0  0  0  0  0  0  0  0  0
   -3.9434   -6.7630   22.3140 H   0  0  0  0  0  0  0  0  0  0  0  0
   -4.0874   -4.0894   19.2660 H   0  0  0  0  0  0  0  0  0  0  0  0
   -2.2284   -3.1227   17.9181 H   0  0  0  0  0  0  0  0  0  0  0  0
  1  2  1  0
  2  3  2  0
  3  4  1  0
  4  5  2  0
  5  6  1  0
  6  7  1  0
  7  8  2  0
  8  9  1  0
  9 10  2  0
 10 11  1  0
 10 12  1  0
 12 13  2  0
  6 14  1  0
 14 15  1  0
 14 16  1  0
 14 17  1  0
  5 18  1  0
 18 19  2  0
 19  2  1  0
 13  7  1  0
  1 20  1  0
  3 21  1  0
  4 22  1  0
  6 23  1  0
  8 24  1  0
  9 25  1  0
 11 26  1  0
 12 27  1  0
 13 28  1  0
 18 29  1  0
 19 30  1  0
M  END
>  <meeko>  (2) 
{"is_sidechain": [false], "free_energy": -8.666, "intermolecular_energy": -10.745, "internal_energy": -0.604}

$$$$
4mgd_ligand
     RDKit          3D

 30 31  0  0  0  0  0  0  0  0999 V2000
   -6.8340   -8.8910   20.6750 O   0  0  0  0  0  0  0  0  0  0  0  0
   -6.4380   -7.5910   20.7790 C   0  0  0  0  0  0  0  0  0  0  0  0
   -7.2000   -6.5550   20.2570 C   0  0  0  0  0  0  0  0  0  0  0  0
   -6.7480   -5.2400   20.3890 C   0  0  0  0  0  0  0  0  0  0  0  0
   -5.5360   -4.9410   21.0490 C   0  0  0  0  0  0  0  0  0  0  0  0
   -5.0990   -3.4670   21.1340 C   0  0  0  0  0  0  0  0  0  0  0  0
   -3.5670   -3.3450   21.1040 C   0  0  0  0  0  0  0  0  0  0  0  0
   -2.7950   -3.4200   22.2760 C   0  0  0  0  0  0  0  0  0  0  0  0
   -1.4040   -3.3020   22.2230 C   0  0  0  0  0  0  0  0  0  0  0  0
   -0.7730   -3.1120   21.0020 C   0  0  0  0  0  0  0  0  0  0  0  0
    0.5850   -3.0010   20.9990 O   0  0  0  0  0  0  0  0  0  0  0  0
   -1.5100   -3.0420   19.8260 C   0  0  0  0  0  0  0  0  0  0  0  0
   -2.9010   -3.1620   19.8780 C   0  0  0  0  0  0  0  0  0  0  0  0
   -5.7940   -2.5270   22.1870 C   0  0  0  0  0  0  0  0  0  0  0  0
   -6.4780   -3.4780   23.5660 Cl  0  0  0  0  0  0  0  0  0  0  0  0
   -4.7360   -1.2420   22.8670 Cl  0  0  0  0  0  0  0  0  0  0  0  0
   -7.2200   -1.6780   21.4390 Cl  0  0  0  0  0  0  0  0  0  0  0  0
   -4.7840   -6.0120   21.5520 C   0  0  0  0  0  0  0  0  0  0  0  0
   -5.2360   -7.3290   21.4210 C   0  0  0  0  0  0  0  0  0  0  0  0
   -7.8030   -8.9170   20.6290 H   0  0  0  0  0  0  0  0  0  0  0  0
   -8.1500   -6.7673   19.7447 H   0  0  0  0  0  0  0  0  0  0  0  0
   -7.3491   -4.4197   19.9698 H   0  0  0  0  0  0  0  0  0  0  0  0
   -5.5184   -3.0331   20.2143 H   0  0  0  0  0  0  0  0  0  0  0  0
   -3.2914   -3.5733   23.2456 H   0  0  0  0  0  0  0  0  0  0  0  0
   -0.8103   -3.3596   23.1472 H   0  0  0  0  0  0  0  0  0  0  0  0
    0.9640   -3.8020   21.3980 H   0  0  0  0  0  0  0  0  0  0  0  0
   -1.0022   -2.8933   18.8616 H   0  0  0  0  0  0  0  0  0  0  0  0
   -3.4843   -3.1127   18.9467 H   0  0  0  0  0  0  0  0  0  0  0  0
   -3.8265   -5.8140   22.0560 H   0  0  0  0  0  0  0  0  0  0  0  0
   -4.6380   -8.1581   21.8273 H   0  0  0  0  0  0  0  0  0  0  0  0
  1  2  1  0
  2  3  2  0
  3  4  1  0
  4  5  2  0
  5  6  1  0
  6  7  1  0
  7  8  2  0
  8  9  1  0
  9 10  2  0
 10 11  1  0
 10 12  1  0
 12 13  2  0
  6 14  1  0
 14 15  1  0
 14 16  1  0
 14 17  1  0
  5 18  1  0
 18 19  2  0
 19  2  1  0
 13  7  1  0
  1 20  1  0
  3 21  1  0
  4 22  1  0
  6 23  1  0
  8 24  1  0
  9 25  1  0
 11 26  1  0
 12 27  1  0
 13 28  1  0
 18 29  1  0
 19 30  1  0
M  END
>  <meeko>  (3) 
{"is_sidechain": [false], "free_energy": -8.307, "intermolecular_energy": -10.308, "internal_energy": -0.598}

$$$$
4mgd_ligand
     RDKit          3D

 30 31  0  0  0  0  0  0  0  0999 V2000
   -7.1230   -8.4090   19.6730 O   0  0  0  0  0  0  0  0  0  0  0  0
   -6.3000   -7.4180   20.1200 C   0  0  0  0  0  0  0  0  0  0  0  0
   -5.3720   -7.6430   21.1260 C   0  0  0  0  0  0  0  0  0  0  0  0
   -4.5530   -6.5930   21.5490 C   0  0  0  0  0  0  0  0  0  0  0  0
   -4.6450   -5.3090   20.9690 C   0  0  0  0  0  0  0  0  0  0  0  0
   -3.7200   -4.2010   21.5050 C   0  0  0  0  0  0  0  0  0  0  0  0
   -4.5280   -3.1210   22.2440 C   0  0  0  0  0  0  0  0  0  0  0  0
   -4.3670   -2.8870   23.6200 C   0  0  0  0  0  0  0  0  0  0  0  0
   -5.1160   -1.9030   24.2690 C   0  0  0  0  0  0  0  0  0  0  0  0
   -6.0290   -1.1440   23.5510 C   0  0  0  0  0  0  0  0  0  0  0  0
   -6.7390   -0.1960   24.2260 O   0  0  0  0  0  0  0  0  0  0  0  0
   -6.2050   -1.3480   22.1870 C   0  0  0  0  0  0  0  0  0  0  0  0
   -5.4540   -2.3310   21.5370 C   0  0  0  0  0  0  0  0  0  0  0  0
   -2.5950   -3.6280   20.5680 C   0  0  0  0  0  0  0  0  0  0  0  0
   -1.2430   -4.8150   20.3640 Cl  0  0  0  0  0  0  0  0  0  0  0  0
   -3.1530   -3.1330   18.9320 Cl  0  0  0  0  0  0  0  0  0  0  0  0
   -1.8300   -2.1570   21.3180 Cl  0  0  0  0  0  0  0  0  0  0  0  0
   -5.6030   -5.1120   19.9640 C   0  0  0  0  0  0  0  0  0  0  0  0
   -6.4220   -6.1640   19.5400 C   0  0  0  0  0  0  0  0  0  0  0  0
   -7.5090   -8.1340   18.8260 H   0  0  0  0  0  0  0  0  0  0  0  0
   -5.2817   -8.6380   21.5862 H   0  0  0  0  0  0  0  0  0  0  0  0
   -3.8211   -6.7704   22.3508 H   0  0  0  0  0  0  0  0  0  0  0  0
   -3.0838   -4.7387   22.2234 H   0  0  0  0  0  0  0  0  0  0  0  0
   -3.6430   -3.4854   24.1924 H   0  0  0  0  0  0  0  0  0  0  0  0
   -4.9824   -1.7301   25.3471 H   0  0  0  0  0  0  0  0  0  0  0  0
   -7.4290   -0.6390   24.7480 H   0  0  0  0  0  0  0  0  0  0  0  0
   -6.9293   -0.7408   21.6243 H   0  0  0  0  0  0  0  0  0  0  0  0
   -5.5885   -2.4898   20.4569 H   0  0  0  0  0  0  0  0  0  0  0  0
   -5.7118   -4.1189   19.5037 H   0  0  0  0  0  0  0  0  0  0  0  0
   -7.1639   -5.9964   18.7454 H   0  0  0  0  0  0  0  0  0  0  0  0
  1  2  1  0
  2  3  2  0
  3  4  1  0
  4  5  2  0
  5  6  1  0
  6  7  1  0
  7  8  2  0
  8  9  1  0
  9 10  2  0
 10 11  1  0
 10 12  1  0
 12 13  2  0
  6 14  1  0
 14 15  1  0
 14 16  1  0
 14 17  1  0
  5 18  1  0
 18 19  2  0
 19  2  1  0
 13  7  1  0
  1 20  1  0
  3 21  1  0
  4 22  1  0
  6 23  1  0
  8 24  1  0
  9 25  1  0
 11 26  1  0
 12 27  1  0
 13 28  1  0
 18 29  1  0
 19 30  1  0
M  END
>  <meeko>  (4) 
{"is_sidechain": [false], "free_energy": -7.45, "intermolecular_energy": -9.181, "internal_energy": -0.668}

$$$$
4mgd_ligand
     RDKit          3D

 30 31  0  0  0  0  0  0  0  0999 V2000
   -6.5390   -0.2200   24.3900 O   0  0  0  0  0  0  0  0  0  0  0  0
   -5.9650   -1.0290   23.4550 C   0  0  0  0  0  0  0  0  0  0  0  0
   -6.5390   -1.2170   22.2070 C   0  0  0  0  0  0  0  0  0  0  0  0
   -5.9110   -2.0580   21.2840 C   0  0  0  0  0  0  0  0  0  0  0  0
   -4.7000   -2.7150   21.5940 C   0  0  0  0  0  0  0  0  0  0  0  0
   -4.0820   -3.6400   20.5290 C   0  0  0  0  0  0  0  0  0  0  0  0
   -4.5480   -5.0920   20.7270 C   0  0  0  0  0  0  0  0  0  0  0  0
   -4.0470   -5.8950   21.7650 C   0  0  0  0  0  0  0  0  0  0  0  0
   -4.4830   -7.2120   21.9210 C   0  0  0  0  0  0  0  0  0  0  0  0
   -5.4220   -7.7380   21.0450 C   0  0  0  0  0  0  0  0  0  0  0  0
   -5.8160   -9.0290   21.2350 O   0  0  0  0  0  0  0  0  0  0  0  0
   -5.9400   -6.9660   20.0130 C   0  0  0  0  0  0  0  0  0  0  0  0
   -5.5060   -5.6460   19.8570 C   0  0  0  0  0  0  0  0  0  0  0  0
   -2.5520   -3.5000   20.1940 C   0  0  0  0  0  0  0  0  0  0  0  0
   -1.8290   -2.0580   21.0150 Cl  0  0  0  0  0  0  0  0  0  0  0  0
   -1.5530   -4.9360   20.6080 Cl  0  0  0  0  0  0  0  0  0  0  0  0
   -2.3150   -3.2040   18.4140 Cl  0  0  0  0  0  0  0  0  0  0  0  0
   -4.1540   -2.5130   22.8700 C   0  0  0  0  0  0  0  0  0  0  0  0
   -4.7820   -1.6700   23.7930 C   0  0  0  0  0  0  0  0  0  0  0  0
   -5.9330    0.5140   24.5810 H   0  0  0  0  0  0  0  0  0  0  0  0
   -7.4793   -0.7093   21.9459 H   0  0  0  0  0  0  0  0  0  0  0  0
   -6.3694   -2.2112   20.2959 H   0  0  0  0  0  0  0  0  0  0  0  0
   -4.4975   -3.2462   19.5897 H   0  0  0  0  0  0  0  0  0  0  0  0
   -3.3033   -5.4817   22.4622 H   0  0  0  0  0  0  0  0  0  0  0  0
   -4.0829   -7.8318   22.7370 H   0  0  0  0  0  0  0  0  0  0  0  0
   -6.3860   -9.0680   22.0210 H   0  0  0  0  0  0  0  0  0  0  0  0
   -6.6856   -7.3896   19.3241 H   0  0  0  0  0  0  0  0  0  0  0  0
   -5.9189   -5.0319   19.0431 H   0  0  0  0  0  0  0  0  0  0  0  0
   -3.2204   -3.0238   23.1484 H   0  0  0  0  0  0  0  0  0  0  0  0
   -4.3376   -1.5153   24.7873 H   0  0  0  0  0  0  0  0  0  0  0  0
  1  2  1  0
  2  3  2  0
  3  4  1  0
  4  5  2  0
  5  6  1  0
  6  7  1  0
  7  8  2  0
  8  9  1  0
  9 10  2  0
 10 11  1  0
 10 12  1  0
 12 13  2  0
  6 14  1  0
 14 15  1  0
 14 16  1  0
 14 17  1  0
  5 18  1  0
 18 19  2  0
 19  2  1  0
 13  7  1  0
  1 20  1  0
  3 21  1  0
  4 22  1  0
  6 23  1  0
  8 24  1  0
  9 25  1  0
 11 26  1  0
 12 27  1  0
 13 28  1  0
 18 29  1  0
 19 30  1  0
M  END
>  <meeko>  (5) 
{"is_sidechain": [false], "free_energy": -6.743, "intermolecular_energy": -8.807, "internal_energy": -0.169}

$$$$
4mgd_ligand
     RDKit          3D

 30 31  0  0  0  0  0  0  0  0999 V2000
   -0.2430   -2.5420   19.7880 O   0  0  0  0  0  0  0  0  0  0  0  0
   -1.4490   -3.1140   20.0650 C   0  0  0  0  0  0  0  0  0  0  0  0
   -2.5160   -3.0210   19.1830 C   0  0  0  0  0  0  0  0  0  0  0  0
   -3.7320   -3.6240   19.5150 C   0  0  0  0  0  0  0  0  0  0  0  0
   -3.8950   -4.3330   20.7250 C   0  0  0  0  0  0  0  0  0  0  0  0
   -5.2730   -4.9520   21.0240 C   0  0  0  0  0  0  0  0  0  0  0  0
   -5.8010   -4.4810   22.3890 C   0  0  0  0  0  0  0  0  0  0  0  0
   -5.9290   -5.3620   23.4770 C   0  0  0  0  0  0  0  0  0  0  0  0
   -6.4160   -4.9110   24.7060 C   0  0  0  0  0  0  0  0  0  0  0  0
   -6.7760   -3.5800   24.8600 C   0  0  0  0  0  0  0  0  0  0  0  0
   -7.2480   -3.1850   26.0770 O   0  0  0  0  0  0  0  0  0  0  0  0
   -6.6540   -2.6850   23.8040 C   0  0  0  0  0  0  0  0  0  0  0  0
   -6.1650   -3.1350   22.5750 C   0  0  0  0  0  0  0  0  0  0  0  0
   -5.4960   -6.4840   20.7470 C   0  0  0  0  0  0  0  0  0  0  0  0
   -5.1590   -6.8930   19.0160 Cl  0  0  0  0  0  0  0  0  0  0  0  0
   -4.5240   -7.5890   21.7800 Cl  0  0  0  0  0  0  0  0  0  0  0  0
   -7.2400   -6.9310   21.0120 Cl  0  0  0  0  0  0  0  0  0  0  0  0
   -2.8000   -4.3960   21.5990 C   0  0  0  0  0  0  0  0  0  0  0  0
   -1.5830   -3.7930   21.2670 C   0  0  0  0  0  0  0  0  0  0  0  0
    0.3250   -2.6200   20.5710 H   0  0  0  0  0  0  0  0  0  0  0  0
   -2.4058   -2.4784   18.2325 H   0  0  0  0  0  0  0  0  0  0  0  0
   -4.5801   -3.5446   18.8190 H   0  0  0  0  0  0  0  0  0  0  0  0
   -5.9063   -4.5411   20.2239 H   0  0  0  0  0  0  0  0  0  0  0  0
   -5.6426   -6.4175   23.3592 H   0  0  0  0  0  0  0  0  0  0  0  0
   -6.5139   -5.6096   25.5500 H   0  0  0  0  0  0  0  0  0  0  0  0
   -6.5850   -2.6130   26.4970 H   0  0  0  0  0  0  0  0  0  0  0  0
   -6.9401   -1.6309   23.9346 H   0  0  0  0  0  0  0  0  0  0  0  0
   -6.0631   -2.4260   21.7402 H   0  0  0  0  0  0  0  0  0  0  0  0
   -2.8998   -4.9263   22.5575 H   0  0  0  0  0  0  0  0  0  0  0  0
   -0.7310   -3.8572   21.9598 H   0  0  0  0  0  0  0  0  0  0  0  0
  1  2  1  0
  2  3  2  0
  3  4  1  0
  4  5  2  0
  5  6  1  0
  6  7  1  0
  7  8  2  0
  8  9  1  0
  9 10  2  0
 10 11  1  0
 10 12  1  0
 12 13  2  0
  6 14  1  0
 14 15  1  0
 14 16  1  0
 14 17  1  0
  5 18  1  0
 18 19  2  0
 19  2  1  0
 13  7  1  0
  1 20  1  0
  3 21  1  0
  4 22  1  0
  6 23  1  0
  8 24  1  0
  9 25  1  0
 11 26  1  0
 12 27  1  0
 13 28  1  0
 18 29  1  0
 19 30  1  0
M  END
>  <meeko>  (6) 
{"is_sidechain": [false], "free_energy": -6.192, "intermolecular_energy": -7.624, "internal_energy": -0.673}

$$$$
4mgd_ligand
     RDKit          3D

 30 31  0  0  0  0  0  0  0  0999 V2000
   -7.2770   -2.9820   25.8870 O   0  0  0  0  0  0  0  0  0  0  0  0
   -6.7350   -3.6040   24.8010 C   0  0  0  0  0  0  0  0  0  0  0  0
   -6.4130   -4.9530   24.8220 C   0  0  0  0  0  0  0  0  0  0  0  0
   -5.8590   -5.5420   23.6830 C   0  0  0  0  0  0  0  0  0  0  0  0
   -5.6270   -4.7950   22.5070 C   0  0  0  0  0  0  0  0  0  0  0  0
   -4.9960   -5.5150   21.3010 C   0  0  0  0  0  0  0  0  0  0  0  0
   -3.8570   -4.6770   20.6960 C   0  0  0  0  0  0  0  0  0  0  0  0
   -4.0540   -3.8710   19.5620 C   0  0  0  0  0  0  0  0  0  0  0  0
   -3.0030   -3.1210   19.0290 C   0  0  0  0  0  0  0  0  0  0  0  0
   -1.7500   -3.1690   19.6220 C   0  0  0  0  0  0  0  0  0  0  0  0
   -0.7540   -2.4230   19.0650 O   0  0  0  0  0  0  0  0  0  0  0  0
   -1.5270   -3.9520   20.7480 C   0  0  0  0  0  0  0  0  0  0  0  0
   -2.5790   -4.7000   21.2850 C   0  0  0  0  0  0  0  0  0  0  0  0
   -5.9380   -6.1800   20.2320 C   0  0  0  0  0  0  0  0  0  0  0  0
   -6.9750   -4.9430   19.4130 Cl  0  0  0  0  0  0  0  0  0  0  0  0
   -5.0890   -7.1260   18.9600 Cl  0  0  0  0  0  0  0  0  0  0  0  0
   -7.1030   -7.3250   21.0350 Cl  0  0  0  0  0  0  0  0  0  0  0  0
   -5.9510   -3.4310   22.5250 C   0  0  0  0  0  0  0  0  0  0  0  0
   -6.5070   -2.8410   23.6650 C   0  0  0  0  0  0  0  0  0  0  0  0
   -8.0360   -2.4530   25.5950 H   0  0  0  0  0  0  0  0  0  0  0  0
   -6.5921   -5.5529   25.7265 H   0  0  0  0  0  0  0  0  0  0  0  0
   -5.5979   -6.6104   23.7024 H   0  0  0  0  0  0  0  0  0  0  0  0
   -4.5801   -6.4288   21.7505 H   0  0  0  0  0  0  0  0  0  0  0  0
   -5.0463   -3.8302   19.0890 H   0  0  0  0  0  0  0  0  0  0  0  0
   -3.1687   -2.4936   18.1408 H   0  0  0  0  0  0  0  0  0  0  0  0
   -0.7350   -1.5550   19.5020 H   0  0  0  0  0  0  0  0  0  0  0  0
   -0.5307   -3.9831   21.2132 H   0  0  0  0  0  0  0  0  0  0  0  0
   -2.4054   -5.3151   22.1803 H   0  0  0  0  0  0  0  0  0  0  0  0
   -5.7656   -2.8170   21.6313 H   0  0  0  0  0  0  0  0  0  0  0  0
   -6.7636   -1.7714   23.6607 H   0  0  0  0  0  0  0  0  0  0  0  0
  1  2  1  0
  2  3  2  0
  3  4  1  0
  4  5  2  0
  5  6  1  0
  6  7  1  0
  7  8  2  0
  8  9  1  0
  9 10  2  0
 10 11  1  0
 10 12  1  0
 12 13  2  0
  6 14  1  0
 14 15  1  0
 14 16  1  0
 14 17  1  0
  5 18  1  0
 18 19  2  0
 19  2  1  0
 13  7  1  0
  1 20  1  0
  3 21  1  0
  4 22  1  0
  6 23  1  0
  8 24  1  0
  9 25  1  0
 11 26  1  0
 12 27  1  0
 13 28  1  0
 18 29  1  0
 19 30  1  0
M  END
>  <meeko>  (7) 
{"is_sidechain": [false], "free_energy": -6.067, "intermolecular_energy": -7.439, "internal_energy": -0.703}

$$$$
4mgd_ligand
     RDKit          3D

 30 31  0  0  0  0  0  0  0  0999 V2000
   -7.0620   -0.0760   24.3320 O   0  0  0  0  0  0  0  0  0  0  0  0
   -6.2800   -1.0380   23.7650 C   0  0  0  0  0  0  0  0  0  0  0  0
   -6.2720   -1.2520   22.3940 C   0  0  0  0  0  0  0  0  0  0  0  0
   -5.4530   -2.2510   21.8620 C   0  0  0  0  0  0  0  0  0  0  0  0
   -4.6280   -3.0440   22.6900 C   0  0  0  0  0  0  0  0  0  0  0  0
   -3.7700   -4.1380   22.0280 C   0  0  0  0  0  0  0  0  0  0  0  0
   -2.7410   -3.5210   21.0660 C   0  0  0  0  0  0  0  0  0  0  0  0
   -1.6100   -2.8310   21.5360 C   0  0  0  0  0  0  0  0  0  0  0  0
   -0.6920   -2.2760   20.6430 C   0  0  0  0  0  0  0  0  0  0  0  0
   -0.8920   -2.4050   19.2760 C   0  0  0  0  0  0  0  0  0  0  0  0
    0.0290   -1.8450   18.4420 O   0  0  0  0  0  0  0  0  0  0  0  0
   -1.9980   -3.0870   18.7820 C   0  0  0  0  0  0  0  0  0  0  0  0
   -2.9160   -3.6460   19.6760 C   0  0  0  0  0  0  0  0  0  0  0  0
   -4.4790   -5.4240   21.4650 C   0  0  0  0  0  0  0  0  0  0  0  0
   -5.1520   -5.1330   19.8110 Cl  0  0  0  0  0  0  0  0  0  0  0  0
   -3.4390   -6.8890   21.3930 Cl  0  0  0  0  0  0  0  0  0  0  0  0
   -5.9140   -5.8620   22.4950 Cl  0  0  0  0  0  0  0  0  0  0  0  0
   -4.6710   -2.8110   24.0720 C   0  0  0  0  0  0  0  0  0  0  0  0
   -5.4900   -1.8090   24.6050 C   0  0  0  0  0  0  0  0  0  0  0  0
   -6.4920    0.5370   24.8230 H   0  0  0  0  0  0  0  0  0  0  0  0
   -6.9042   -0.6412   21.7327 H   0  0  0  0  0  0  0  0  0  0  0  0
   -5.4506   -2.4236   20.7756 H   0  0  0  0  0  0  0  0  0  0  0  0
   -3.2469   -4.5918   22.8826 H   0  0  0  0  0  0  0  0  0  0  0  0
   -1.4468   -2.7274   22.6189 H   0  0  0  0  0  0  0  0  0  0  0  0
    0.1887   -1.7371   21.0224 H   0  0  0  0  0  0  0  0  0  0  0  0
    0.0510   -0.8870   18.6010 H   0  0  0  0  0  0  0  0  0  0  0  0
   -2.1496   -3.1860   17.6970 H   0  0  0  0  0  0  0  0  0  0  0  0
   -3.7881   -4.1917   19.2866 H   0  0  0  0  0  0  0  0  0  0  0  0
   -4.0534   -3.4233   24.7456 H   0  0  0  0  0  0  0  0  0  0  0  0
   -5.5072   -1.6328   25.6907 H   0  0  0  0  0  0  0  0  0  0  0  0
  1  2  1  0
  2  3  2  0
  3  4  1  0
  4  5  2  0
  5  6  1  0
  6  7  1  0
  7  8  2  0
  8  9  1  0
  9 10  2  0
 10 11  1  0
 10 12  1  0
 12 13  2  0
  6 14  1  0
 14 15  1  0
 14 16  1  0
 14 17  1  0
  5 18  1  0
 18 19  2  0
 19  2  1  0
 13  7  1  0
  1 20  1  0
  3 21  1  0
  4 22  1  0
  6 23  1  0
  8 24  1  0
  9 25  1  0
 11 26  1  0
 12 27  1  0
 13 28  1  0
 18 29  1  0
 19 30  1  0
M  END
>  <meeko>  (8) 
{"is_sidechain": [false], "free_energy": -5.794, "intermolecular_energy": -7.487, "internal_energy": -0.317}

$$$$
