4de1_ligand
     RDKit          3D

 34 37  0  0  0  0  0  0  0  0999 V2000
   -8.7990   55.3520   13.6890 O   0  0  0  0  0  0  0  0  0  0  0  0
   -8.8210   55.4070   12.4660 C   0  0  0  0  0  0  0  0  0  0  0  0
   -8.1370   54.5920   11.5820 N   0  0  0  0  0  0  0  0  0  0  0  0
   -7.3320   53.4780   11.8950 C   0  0  0  0  0  0  0  0  0  0  0  0
   -7.8130   52.1730   11.9960 C   0  0  0  0  0  0  0  0  0  0  0  0
   -6.9440   51.1230   12.3050 C   0  0  0  0  0  0  0  0  0  0  0  0
   -5.5860   51.3670   12.5150 C   0  0  0  0  0  0  0  0  0  0  0  0
   -5.0770   52.6670   12.4180 C   0  0  0  0  0  0  0  0  0  0  0  0
   -3.6640   52.9770   12.6250 C   0  0  0  0  0  0  0  0  0  0  0  0
   -3.0830   53.3450   13.7530 N   0  0  0  0  0  0  0  0  0  0  0  0
   -1.7510   53.5260   13.4730 N   0  0  0  0  0  0  0  0  0  0  0  0
   -1.4990   53.2760   12.1980 N   0  0  0  0  0  0  0  0  0  0  0  0
   -2.6820   52.9350   11.6720 N   0  0  0  0  0  0  0  0  0  0  0  0
   -5.9660   53.7120   12.1050 C   0  0  0  0  0  0  0  0  0  0  0  0
   -9.6290   56.4850   11.8220 C   0  0  0  0  0  0  0  0  0  0  0  0
   -9.1970   57.0520   10.5720 C   0  0  0  0  0  0  0  0  0  0  0  0
   -9.8990   58.0790    9.8950 C   0  0  0  0  0  0  0  0  0  0  0  0
  -11.0700   58.4900   10.5520 C   0  0  0  0  0  0  0  0  0  0  0  0
  -11.9690   59.4260   10.2100 N   0  0  0  0  0  0  0  0  0  0  0  0
  -12.8910   59.3940   11.1930 N   0  0  0  0  0  0  0  0  0  0  0  0
  -12.6370   58.4810   12.1760 C   0  0  0  0  0  0  0  0  0  0  0  0
  -11.4700   57.8810   11.7960 C   0  0  0  0  0  0  0  0  0  0  0  0
  -10.8140   56.8750   12.4910 C   0  0  0  0  0  0  0  0  0  0  0  0
   -8.1580   54.8570   10.6040 H   0  0  0  0  0  0  0  0  0  0  0  0
   -8.8814   51.9691   11.8317 H   0  0  0  0  0  0  0  0  0  0  0  0
   -7.3331   50.0971   12.3832 H   0  0  0  0  0  0  0  0  0  0  0  0
   -4.9118   50.5326   12.7582 H   0  0  0  0  0  0  0  0  0  0  0  0
   -2.7370   52.6930   10.6920 H   0  0  0  0  0  0  0  0  0  0  0  0
   -5.5791   54.7385   12.0231 H   0  0  0  0  0  0  0  0  0  0  0  0
   -8.2720   56.6672   10.1179 H   0  0  0  0  0  0  0  0  0  0  0  0
   -9.5588   58.5139    8.9436 H   0  0  0  0  0  0  0  0  0  0  0  0
  -13.6780   60.0310   11.1260 H   0  0  0  0  0  0  0  0  0  0  0  0
  -13.2381   58.2746   13.0738 H   0  0  0  0  0  0  0  0  0  0  0  0
  -11.1679   56.4384   13.4366 H   0  0  0  0  0  0  0  0  0  0  0  0
  1  2  2  0
  2  3  1  0
  3  4  1  0
  4  5  2  0
  5  6  1  0
  6  7  2  0
  7  8  1  0
  8  9  1  0
  9 10  2  0
 10 11  1  0
 11 12  2  0
 12 13  1  0
  8 14  2  0
  2 15  1  0
 15 16  1  0
 16 17  2  0
 17 18  1  0
 18 19  2  0
 19 20  1  0
 20 21  1  0
 21 22  2  0
 22 23  1  0
 14  4  1  0
 23 15  2  0
 13  9  1  0
 22 18  1  0
  3 24  1  0
  5 25  1  0
  6 26  1  0
  7 27  1  0
 13 28  1  0
 14 29  1  0
 16 30  1  0
 17 31  1  0
 20 32  1  0
 21 33  1  0
 23 34  1  0
M  END
>  <meeko>  (1) 
{"is_sidechain": [false], "free_energy": -8.5, "intermolecular_energy": -9.991, "internal_energy": -0.509}

$$$$
4de1_ligand
     RDKit          3D

 34 37  0  0  0  0  0  0  0  0999 V2000
   -6.4980   55.4950    8.2110 O   0  0  0  0  0  0  0  0  0  0  0  0
   -7.5710   55.4600    7.6220 C   0  0  0  0  0  0  0  0  0  0  0  0
   -8.8310   55.6090    8.1740 N   0  0  0  0  0  0  0  0  0  0  0  0
   -9.1460   55.9080    9.5150 C   0  0  0  0  0  0  0  0  0  0  0  0
  -10.3260   56.5320    9.9190 C   0  0  0  0  0  0  0  0  0  0  0  0
  -10.5620   56.7860   11.2710 C   0  0  0  0  0  0  0  0  0  0  0  0
   -9.6220   56.4190   12.2360 C   0  0  0  0  0  0  0  0  0  0  0  0
   -8.4310   55.7880   11.8580 C   0  0  0  0  0  0  0  0  0  0  0  0
   -7.4150   55.3800   12.8260 C   0  0  0  0  0  0  0  0  0  0  0  0
   -7.5380   55.3260   14.1410 N   0  0  0  0  0  0  0  0  0  0  0  0
   -6.3350   54.8870   14.6350 N   0  0  0  0  0  0  0  0  0  0  0  0
   -5.4740   54.6680   13.6540 N   0  0  0  0  0  0  0  0  0  0  0  0
   -6.1420   54.9710   12.5340 N   0  0  0  0  0  0  0  0  0  0  0  0
   -8.2100   55.5390   10.4910 C   0  0  0  0  0  0  0  0  0  0  0  0
   -7.5630   55.1890    6.1540 C   0  0  0  0  0  0  0  0  0  0  0  0
   -6.5680   54.3120    5.5950 C   0  0  0  0  0  0  0  0  0  0  0  0
   -6.4840   54.0040    4.2160 C   0  0  0  0  0  0  0  0  0  0  0  0
   -7.4730   54.6250    3.4360 C   0  0  0  0  0  0  0  0  0  0  0  0
   -7.6970   54.5660    2.1140 N   0  0  0  0  0  0  0  0  0  0  0  0
   -8.7770   55.3450    1.9110 N   0  0  0  0  0  0  0  0  0  0  0  0
   -9.2760   55.9260    3.0430 C   0  0  0  0  0  0  0  0  0  0  0  0
   -8.4590   55.4840    4.0440 C   0  0  0  0  0  0  0  0  0  0  0  0
   -8.5770   55.8120    5.3880 C   0  0  0  0  0  0  0  0  0  0  0  0
   -9.6210   55.4190    7.5690 H   0  0  0  0  0  0  0  0  0  0  0  0
  -11.0745   56.8255    9.1683 H   0  0  0  0  0  0  0  0  0  0  0  0
  -11.4959   57.2792   11.5787 H   0  0  0  0  0  0  0  0  0  0  0  0
   -9.8183   56.6267   13.2982 H   0  0  0  0  0  0  0  0  0  0  0  0
   -5.6780   54.8760   11.6400 H   0  0  0  0  0  0  0  0  0  0  0  0
   -7.2791   55.0422   10.1803 H   0  0  0  0  0  0  0  0  0  0  0  0
   -5.8336   53.8568    6.2758 H   0  0  0  0  0  0  0  0  0  0  0  0
   -5.7152   53.3397    3.7944 H   0  0  0  0  0  0  0  0  0  0  0  0
   -9.1250   55.4360    0.9630 H   0  0  0  0  0  0  0  0  0  0  0  0
  -10.1419   56.5990    3.1286 H   0  0  0  0  0  0  0  0  0  0  0  0
   -9.3556   56.4692    5.8026 H   0  0  0  0  0  0  0  0  0  0  0  0
  1  2  2  0
  2  3  1  0
  3  4  1  0
  4  5  2  0
  5  6  1  0
  6  7  2  0
  7  8  1  0
  8  9  1  0
  9 10  2  0
 10 11  1  0
 11 12  2  0
 12 13  1  0
  8 14  2  0
  2 15  1  0
 15 16  1  0
 16 17  2  0
 17 18  1  0
 18 19  2  0
 19 20  1  0
 20 21  1  0
 21 22  2  0
 22 23  1  0
 14  4  1  0
 23 15  2  0
 13  9  1  0
 22 18  1  0
  3 24  1  0
  5 25  1  0
  6 26  1  0
  7 27  1  0
 13 28  1  0
 14 29  1  0
 16 30  1  0
 17 31  1  0
 20 32  1  0
 21 33  1  0
 23 34  1  0
M  END
>  <meeko>  (2) 
{"is_sidechain": [false], "free_energy": -7.78, "intermolecular_energy": -9.611, "internal_energy": -0.043}

$$$$
4de1_ligand
     RDKit          3D

 34 37  0  0  0  0  0  0  0  0999 V2000
   -8.9520   55.7410   13.8220 O   0  0  0  0  0  0  0  0  0  0  0  0
   -8.8530   55.3630   12.6610 C   0  0  0  0  0  0  0  0  0  0  0  0
   -7.9170   54.4840   12.1480 N   0  0  0  0  0  0  0  0  0  0  0  0
   -6.9280   53.7760   12.8610 C   0  0  0  0  0  0  0  0  0  0  0  0
   -7.1620   53.0990   14.0570 C   0  0  0  0  0  0  0  0  0  0  0  0
   -6.1250   52.4160   14.6960 C   0  0  0  0  0  0  0  0  0  0  0  0
   -4.8420   52.4020   14.1460 C   0  0  0  0  0  0  0  0  0  0  0  0
   -4.5800   53.0710   12.9450 C   0  0  0  0  0  0  0  0  0  0  0  0
   -3.2570   53.0860   12.3240 C   0  0  0  0  0  0  0  0  0  0  0  0
   -2.1160   53.4580   12.8790 N   0  0  0  0  0  0  0  0  0  0  0  0
   -1.1420   53.3030   11.9240 N   0  0  0  0  0  0  0  0  0  0  0  0
   -1.6560   52.8420   10.7960 N   0  0  0  0  0  0  0  0  0  0  0  0
   -2.9650   52.7050   11.0420 N   0  0  0  0  0  0  0  0  0  0  0  0
   -5.6370   53.7530   12.3140 C   0  0  0  0  0  0  0  0  0  0  0  0
   -9.8020   55.9220   11.6530 C   0  0  0  0  0  0  0  0  0  0  0  0
  -10.0870   55.1820   10.4530 C   0  0  0  0  0  0  0  0  0  0  0  0
  -10.9690   55.6380    9.4440 C   0  0  0  0  0  0  0  0  0  0  0  0
  -11.5550   56.8830    9.7260 C   0  0  0  0  0  0  0  0  0  0  0  0
  -12.4240   57.6120    9.0090 N   0  0  0  0  0  0  0  0  0  0  0  0
  -12.6560   58.7080    9.7580 N   0  0  0  0  0  0  0  0  0  0  0  0
  -11.9700   58.7410   10.9390 C   0  0  0  0  0  0  0  0  0  0  0  0
  -11.2500   57.5800   10.9510 C   0  0  0  0  0  0  0  0  0  0  0  0
  -10.3950   57.1690   11.9640 C   0  0  0  0  0  0  0  0  0  0  0  0
   -7.8900   54.3800   11.1400 H   0  0  0  0  0  0  0  0  0  0  0  0
   -8.1689   53.1028   14.4998 H   0  0  0  0  0  0  0  0  0  0  0  0
   -6.3205   51.8853   15.6394 H   0  0  0  0  0  0  0  0  0  0  0  0
   -4.0326   51.8622   14.6594 H   0  0  0  0  0  0  0  0  0  0  0  0
   -3.5720   52.3580   10.3120 H   0  0  0  0  0  0  0  0  0  0  0  0
   -5.4457   54.2811   11.3682 H   0  0  0  0  0  0  0  0  0  0  0  0
   -9.5930   54.2094   10.3117 H   0  0  0  0  0  0  0  0  0  0  0  0
  -11.1761   55.0703    8.5249 H   0  0  0  0  0  0  0  0  0  0  0  0
  -13.3020   59.4020    9.3970 H   0  0  0  0  0  0  0  0  0  0  0  0
  -11.9924   59.5268   11.7084 H   0  0  0  0  0  0  0  0  0  0  0  0
  -10.2036   57.7370   12.8863 H   0  0  0  0  0  0  0  0  0  0  0  0
  1  2  2  0
  2  3  1  0
  3  4  1  0
  4  5  2  0
  5  6  1  0
  6  7  2  0
  7  8  1  0
  8  9  1  0
  9 10  2  0
 10 11  1  0
 11 12  2  0
 12 13  1  0
  8 14  2  0
  2 15  1  0
 15 16  1  0
 16 17  2  0
 17 18  1  0
 18 19  2  0
 19 20  1  0
 20 21  1  0
 21 22  2  0
 22 23  1  0
 14  4  1  0
 23 15  2  0
 13  9  1  0
 22 18  1  0
  3 24  1  0
  5 25  1  0
  6 26  1  0
  7 27  1  0
 13 28  1  0
 14 29  1  0
 16 30  1  0
 17 31  1  0
 20 32  1  0
 21 33  1  0
 23 34  1  0
M  END
>  <meeko>  (3) 
{"is_sidechain": [false], "free_energy": -7.776, "intermolecular_energy": -9.324, "internal_energy": -0.325}

$$$$
4de1_ligand
     RDKit          3D

 34 37  0  0  0  0  0  0  0  0999 V2000
   -7.9000   56.0600   10.5790 O   0  0  0  0  0  0  0  0  0  0  0  0
   -7.6200   55.1400    9.8210 C   0  0  0  0  0  0  0  0  0  0  0  0
   -7.0190   53.9400   10.1550 N   0  0  0  0  0  0  0  0  0  0  0  0
   -6.6730   53.4860   11.4440 C   0  0  0  0  0  0  0  0  0  0  0  0
   -7.6020   53.1640   12.4330 C   0  0  0  0  0  0  0  0  0  0  0  0
   -7.1730   52.7160   13.6840 C   0  0  0  0  0  0  0  0  0  0  0  0
   -5.8110   52.5820   13.9600 C   0  0  0  0  0  0  0  0  0  0  0  0
   -4.8580   52.8960   12.9850 C   0  0  0  0  0  0  0  0  0  0  0  0
   -3.4210   52.7720   13.2190 C   0  0  0  0  0  0  0  0  0  0  0  0
   -2.5910   53.7180   13.6220 N   0  0  0  0  0  0  0  0  0  0  0  0
   -1.3460   53.1460   13.7050 N   0  0  0  0  0  0  0  0  0  0  0  0
   -1.3910   51.8680   13.3640 N   0  0  0  0  0  0  0  0  0  0  0  0
   -2.6750   51.6350   13.0640 N   0  0  0  0  0  0  0  0  0  0  0  0
   -5.3080   53.3460   11.7290 C   0  0  0  0  0  0  0  0  0  0  0  0
   -7.9020   55.3120    8.3650 C   0  0  0  0  0  0  0  0  0  0  0  0
   -9.2500   55.5490    7.9220 C   0  0  0  0  0  0  0  0  0  0  0  0
   -9.6080   55.7190    6.5630 C   0  0  0  0  0  0  0  0  0  0  0  0
   -8.5190   55.6460    5.6790 C   0  0  0  0  0  0  0  0  0  0  0  0
   -8.4820   55.7580    4.3410 N   0  0  0  0  0  0  0  0  0  0  0  0
   -7.1810   55.6180    4.0190 N   0  0  0  0  0  0  0  0  0  0  0  0
   -6.3540   55.4110    5.0860 C   0  0  0  0  0  0  0  0  0  0  0  0
   -7.1830   55.4220    6.1720 C   0  0  0  0  0  0  0  0  0  0  0  0
   -6.7900   55.2520    7.4920 C   0  0  0  0  0  0  0  0  0  0  0  0
   -6.7330   53.3410    9.3880 H   0  0  0  0  0  0  0  0  0  0  0  0
   -8.6779   53.2634   12.2266 H   0  0  0  0  0  0  0  0  0  0  0  0
   -7.9138   52.4667   14.4580 H   0  0  0  0  0  0  0  0  0  0  0  0
   -5.4855   52.2277   14.9492 H   0  0  0  0  0  0  0  0  0  0  0  0
   -2.9550   50.7070   12.7740 H   0  0  0  0  0  0  0  0  0  0  0  0
   -4.5698   53.5938   10.9521 H   0  0  0  0  0  0  0  0  0  0  0  0
  -10.0454   55.6009    8.6801 H   0  0  0  0  0  0  0  0  0  0  0  0
  -10.6422   55.8921    6.2305 H   0  0  0  0  0  0  0  0  0  0  0  0
   -6.9260   55.6760    3.0390 H   0  0  0  0  0  0  0  0  0  0  0  0
   -5.2635   55.2674    5.0738 H   0  0  0  0  0  0  0  0  0  0  0  0
   -5.7513   55.0918    7.8168 H   0  0  0  0  0  0  0  0  0  0  0  0
  1  2  2  0
  2  3  1  0
  3  4  1  0
  4  5  2  0
  5  6  1  0
  6  7  2  0
  7  8  1  0
  8  9  1  0
  9 10  2  0
 10 11  1  0
 11 12  2  0
 12 13  1  0
  8 14  2  0
  2 15  1  0
 15 16  1  0
 16 17  2  0
 17 18  1  0
 18 19  2  0
 19 20  1  0
 20 21  1  0
 21 22  2  0
 22 23  1  0
 14  4  1  0
 23 15  2  0
 13  9  1  0
 22 18  1  0
  3 24  1  0
  5 25  1  0
  6 26  1  0
  7 27  1  0
 13 28  1  0
 14 29  1  0
 16 30  1  0
 17 31  1  0
 20 32  1  0
 21 33  1  0
 23 34  1  0
M  END
>  <meeko>  (4) 
{"is_sidechain": [false], "free_energy": -7.603, "intermolecular_energy": -8.973, "internal_energy": -0.472}

$$$$
4de1_ligand
     RDKit          3D

 34 37  0  0  0  0  0  0  0  0999 V2000
   -8.9900   53.6090    9.9780 O   0  0  0  0  0  0  0  0  0  0  0  0
   -7.9150   54.1680   10.1580 C   0  0  0  0  0  0  0  0  0  0  0  0
   -7.1640   54.8520    9.2190 N   0  0  0  0  0  0  0  0  0  0  0  0
   -7.5090   55.1190    7.8790 C   0  0  0  0  0  0  0  0  0  0  0  0
   -8.4660   56.0570    7.4920 C   0  0  0  0  0  0  0  0  0  0  0  0
   -8.7430   56.2650    6.1390 C   0  0  0  0  0  0  0  0  0  0  0  0
   -8.0670   55.5380    5.1580 C   0  0  0  0  0  0  0  0  0  0  0  0
   -7.1000   54.5930    5.5190 C   0  0  0  0  0  0  0  0  0  0  0  0
   -6.3600   53.8080    4.5330 C   0  0  0  0  0  0  0  0  0  0  0  0
   -6.2420   54.0530    3.2390 N   0  0  0  0  0  0  0  0  0  0  0  0
   -5.4590   53.0550    2.7160 N   0  0  0  0  0  0  0  0  0  0  0  0
   -5.0900   52.2010    3.6580 N   0  0  0  0  0  0  0  0  0  0  0  0
   -5.6460   52.6660    4.7830 N   0  0  0  0  0  0  0  0  0  0  0  0
   -6.8320   54.3970    6.8860 C   0  0  0  0  0  0  0  0  0  0  0  0
   -7.2950   54.0880   11.5140 C   0  0  0  0  0  0  0  0  0  0  0  0
   -7.4330   55.1890   12.4290 C   0  0  0  0  0  0  0  0  0  0  0  0
   -6.8740   55.2000   13.7300 C   0  0  0  0  0  0  0  0  0  0  0  0
   -6.1780   54.0240   14.0550 C   0  0  0  0  0  0  0  0  0  0  0  0
   -5.5290   53.6870   15.1810 N   0  0  0  0  0  0  0  0  0  0  0  0
   -5.0580   52.4460   14.9490 N   0  0  0  0  0  0  0  0  0  0  0  0
   -5.3600   51.9480   13.7130 C   0  0  0  0  0  0  0  0  0  0  0  0
   -6.0810   52.9400   13.1100 C   0  0  0  0  0  0  0  0  0  0  0  0
   -6.6120   52.8880   11.8290 C   0  0  0  0  0  0  0  0  0  0  0  0
   -6.2340   55.1400    9.4990 H   0  0  0  0  0  0  0  0  0  0  0  0
   -9.0053   56.6358    8.2563 H   0  0  0  0  0  0  0  0  0  0  0  0
   -9.4995   57.0072    5.8444 H   0  0  0  0  0  0  0  0  0  0  0  0
   -8.2955   55.7087    4.0956 H   0  0  0  0  0  0  0  0  0  0  0  0
   -5.4980   52.1690    5.6510 H   0  0  0  0  0  0  0  0  0  0  0  0
   -6.0724   53.6590    7.1832 H   0  0  0  0  0  0  0  0  0  0  0  0
   -8.0036   56.0702   12.1004 H   0  0  0  0  0  0  0  0  0  0  0  0
   -6.9753   56.0497   14.4212 H   0  0  0  0  0  0  0  0  0  0  0  0
   -4.5320   51.9930   15.6880 H   0  0  0  0  0  0  0  0  0  0  0  0
   -5.0844   50.9679   13.2965 H   0  0  0  0  0  0  0  0  0  0  0  0
   -6.5153   52.0290   11.1487 H   0  0  0  0  0  0  0  0  0  0  0  0
  1  2  2  0
  2  3  1  0
  3  4  1  0
  4  5  2  0
  5  6  1  0
  6  7  2  0
  7  8  1  0
  8  9  1  0
  9 10  2  0
 10 11  1  0
 11 12  2  0
 12 13  1  0
  8 14  2  0
  2 15  1  0
 15 16  1  0
 16 17  2  0
 17 18  1  0
 18 19  2  0
 19 20  1  0
 20 21  1  0
 21 22  2  0
 22 23  1  0
 14  4  1  0
 23 15  2  0
 13  9  1  0
 22 18  1  0
  3 24  1  0
  5 25  1  0
  6 26  1  0
  7 27  1  0
 13 28  1  0
 14 29  1  0
 16 30  1  0
 17 31  1  0
 20 32  1  0
 21 33  1  0
 23 34  1  0
M  END
>  <meeko>  (5) 
{"is_sidechain": [false], "free_energy": -7.51, "intermolecular_energy": -8.856, "internal_energy": -0.479}

$$$$
4de1_ligand
     RDKit          3D

 34 37  0  0  0  0  0  0  0  0999 V2000
   -8.4920   52.9450    9.3680 O   0  0  0  0  0  0  0  0  0  0  0  0
   -7.3640   53.3650    9.5940 C   0  0  0  0  0  0  0  0  0  0  0  0
   -6.3910   53.6830    8.6640 N   0  0  0  0  0  0  0  0  0  0  0  0
   -6.5140   53.6670    7.2590 C   0  0  0  0  0  0  0  0  0  0  0  0
   -6.1110   52.6040    6.4520 C   0  0  0  0  0  0  0  0  0  0  0  0
   -6.2750   52.6690    5.0670 C   0  0  0  0  0  0  0  0  0  0  0  0
   -6.8440   53.7960    4.4730 C   0  0  0  0  0  0  0  0  0  0  0  0
   -7.2590   54.8760    5.2590 C   0  0  0  0  0  0  0  0  0  0  0  0
   -7.8640   56.0790    4.6900 C   0  0  0  0  0  0  0  0  0  0  0  0
   -9.1320   56.2610    4.3660 N   0  0  0  0  0  0  0  0  0  0  0  0
   -9.2370   57.5370    3.8710 N   0  0  0  0  0  0  0  0  0  0  0  0
   -8.0610   58.1460    3.8860 N   0  0  0  0  0  0  0  0  0  0  0  0
   -7.2110   57.2450    4.3930 N   0  0  0  0  0  0  0  0  0  0  0  0
   -7.0880   54.7940    6.6540 C   0  0  0  0  0  0  0  0  0  0  0  0
   -6.9410   53.5230   11.0170 C   0  0  0  0  0  0  0  0  0  0  0  0
   -7.2950   54.7150   11.7400 C   0  0  0  0  0  0  0  0  0  0  0  0
   -6.9320   54.9490   13.0880 C   0  0  0  0  0  0  0  0  0  0  0  0
   -6.2000   53.9000   13.6660 C   0  0  0  0  0  0  0  0  0  0  0  0
   -5.6950   53.7770   14.9040 N   0  0  0  0  0  0  0  0  0  0  0  0
   -5.0980   52.5690   14.9150 N   0  0  0  0  0  0  0  0  0  0  0  0
   -5.1790   51.8880   13.7340 C   0  0  0  0  0  0  0  0  0  0  0  0
   -5.8820   52.7170   12.9060 C   0  0  0  0  0  0  0  0  0  0  0  0
   -6.2180   52.4470   11.5860 C   0  0  0  0  0  0  0  0  0  0  0  0
   -5.4650   53.8880    9.0210 H   0  0  0  0  0  0  0  0  0  0  0  0
   -5.6617   51.7098    6.9086 H   0  0  0  0  0  0  0  0  0  0  0  0
   -5.9531   51.8251    4.4392 H   0  0  0  0  0  0  0  0  0  0  0  0
   -6.9669   53.8354    3.3806 H   0  0  0  0  0  0  0  0  0  0  0  0
   -6.2370   57.4920    4.5040 H   0  0  0  0  0  0  0  0  0  0  0  0
   -7.4127   55.6347    7.2847 H   0  0  0  0  0  0  0  0  0  0  0  0
   -7.8794   55.4864   11.2171 H   0  0  0  0  0  0  0  0  0  0  0  0
   -7.1987   55.8672   13.6318 H   0  0  0  0  0  0  0  0  0  0  0  0
   -4.6490   52.2700   15.7740 H   0  0  0  0  0  0  0  0  0  0  0  0
   -4.7696   50.8939   13.5013 H   0  0  0  0  0  0  0  0  0  0  0  0
   -5.9572   51.5205   11.0534 H   0  0  0  0  0  0  0  0  0  0  0  0
  1  2  2  0
  2  3  1  0
  3  4  1  0
  4  5  2  0
  5  6  1  0
  6  7  2  0
  7  8  1  0
  8  9  1  0
  9 10  2  0
 10 11  1  0
 11 12  2  0
 12 13  1  0
  8 14  2  0
  2 15  1  0
 15 16  1  0
 16 17  2  0
 17 18  1  0
 18 19  2  0
 19 20  1  0
 20 21  1  0
 21 22  2  0
 22 23  1  0
 14  4  1  0
 23 15  2  0
 13  9  1  0
 22 18  1  0
  3 24  1  0
  5 25  1  0
  6 26  1  0
  7 27  1  0
 13 28  1  0
 14 29  1  0
 16 30  1  0
 17 31  1  0
 20 32  1  0
 21 33  1  0
 23 34  1  0
M  END
>  <meeko>  (6) 
{"is_sidechain": [false], "free_energy": -7.332, "intermolecular_energy": -8.628, "internal_energy": -0.498}

$$$$
4de1_ligand
     RDKit          3D

 34 37  0  0  0  0  0  0  0  0999 V2000
   -2.5680   51.2180   13.3250 O   0  0  0  0  0  0  0  0  0  0  0  0
   -3.5870   50.7200   12.8640 C   0  0  0  0  0  0  0  0  0  0  0  0
   -3.6790   49.5760   12.0910 N   0  0  0  0  0  0  0  0  0  0  0  0
   -2.6340   48.6990   11.7360 C   0  0  0  0  0  0  0  0  0  0  0  0
   -1.7740   48.9070   10.6590 C   0  0  0  0  0  0  0  0  0  0  0  0
   -0.7590   47.9880   10.3790 C   0  0  0  0  0  0  0  0  0  0  0  0
   -0.5930   46.8530   11.1740 C   0  0  0  0  0  0  0  0  0  0  0  0
   -1.4410   46.6210   12.2620 C   0  0  0  0  0  0  0  0  0  0  0  0
   -1.3100   45.4510   13.1280 C   0  0  0  0  0  0  0  0  0  0  0  0
   -0.1940   44.8340   13.4760 N   0  0  0  0  0  0  0  0  0  0  0  0
   -0.5550   43.7940   14.2970 N   0  0  0  0  0  0  0  0  0  0  0  0
   -1.8670   43.7600   14.4650 N   0  0  0  0  0  0  0  0  0  0  0  0
   -2.3360   44.7850   13.7430 N   0  0  0  0  0  0  0  0  0  0  0  0
   -2.4570   47.5570   12.5300 C   0  0  0  0  0  0  0  0  0  0  0  0
   -4.8860   51.4160   13.1040 C   0  0  0  0  0  0  0  0  0  0  0  0
   -5.0060   52.3500   14.1920 C   0  0  0  0  0  0  0  0  0  0  0  0
   -6.1990   53.0490   14.4940 C   0  0  0  0  0  0  0  0  0  0  0  0
   -7.2610   52.7570   13.6220 C   0  0  0  0  0  0  0  0  0  0  0  0
   -8.5190   53.2240   13.6050 N   0  0  0  0  0  0  0  0  0  0  0  0
   -9.0990   52.6170   12.5520 N   0  0  0  0  0  0  0  0  0  0  0  0
   -8.2800   51.7610   11.8720 C   0  0  0  0  0  0  0  0  0  0  0  0
   -7.0880   51.8260   12.5360 C   0  0  0  0  0  0  0  0  0  0  0  0
   -5.9390   51.1210   12.2050 C   0  0  0  0  0  0  0  0  0  0  0  0
   -4.5820   49.3740   11.6780 H   0  0  0  0  0  0  0  0  0  0  0  0
   -1.8948   49.7988   10.0264 H   0  0  0  0  0  0  0  0  0  0  0  0
   -0.0862   48.1605    9.5260 H   0  0  0  0  0  0  0  0  0  0  0  0
    0.2094   46.1367   10.9437 H   0  0  0  0  0  0  0  0  0  0  0  0
   -3.3310   44.9610   13.7210 H   0  0  0  0  0  0  0  0  0  0  0  0
   -3.1294   47.3885   13.3841 H   0  0  0  0  0  0  0  0  0  0  0  0
   -4.1231   52.5304   14.8229 H   0  0  0  0  0  0  0  0  0  0  0  0
   -6.2865   53.7549   15.3331 H   0  0  0  0  0  0  0  0  0  0  0  0
  -10.0690   52.8370   12.3520 H   0  0  0  0  0  0  0  0  0  0  0  0
   -8.5255   51.1549   10.9875 H   0  0  0  0  0  0  0  0  0  0  0  0
   -5.8575   50.4254   11.3567 H   0  0  0  0  0  0  0  0  0  0  0  0
  1  2  2  0
  2  3  1  0
  3  4  1  0
  4  5  2  0
  5  6  1  0
  6  7  2  0
  7  8  1  0
  8  9  1  0
  9 10  2  0
 10 11  1  0
 11 12  2  0
 12 13  1  0
  8 14  2  0
  2 15  1  0
 15 16  1  0
 16 17  2  0
 17 18  1  0
 18 19  2  0
 19 20  1  0
 20 21  1  0
 21 22  2  0
 22 23  1  0
 14  4  1  0
 23 15  2  0
 13  9  1  0
 22 18  1  0
  3 24  1  0
  5 25  1  0
  6 26  1  0
  7 27  1  0
 13 28  1  0
 14 29  1  0
 16 30  1  0
 17 31  1  0
 20 32  1  0
 21 33  1  0
 23 34  1  0
M  END
>  <meeko>  (7) 
{"is_sidechain": [false], "free_energy": -7.291, "intermolecular_energy": -8.536, "internal_energy": -0.543}

$$$$
4de1_ligand
     RDKit          3D

 34 37  0  0  0  0  0  0  0  0999 V2000
   -7.8360   53.0070   12.1240 O   0  0  0  0  0  0  0  0  0  0  0  0
   -6.7800   53.4690   11.7110 C   0  0  0  0  0  0  0  0  0  0  0  0
   -6.6190   54.5170   10.8230 N   0  0  0  0  0  0  0  0  0  0  0  0
   -7.6300   55.3260   10.2640 C   0  0  0  0  0  0  0  0  0  0  0  0
   -8.4590   56.1650   11.0080 C   0  0  0  0  0  0  0  0  0  0  0  0
   -9.4330   56.9380   10.3730 C   0  0  0  0  0  0  0  0  0  0  0  0
   -9.5880   56.8840    8.9870 C   0  0  0  0  0  0  0  0  0  0  0  0
   -8.7670   56.0520    8.2160 C   0  0  0  0  0  0  0  0  0  0  0  0
   -8.8840   55.9590    6.7620 C   0  0  0  0  0  0  0  0  0  0  0  0
   -7.9140   55.7330    5.8930 N   0  0  0  0  0  0  0  0  0  0  0  0
   -8.4890   55.7290    4.6470 N   0  0  0  0  0  0  0  0  0  0  0  0
   -9.7930   55.9450    4.7290 N   0  0  0  0  0  0  0  0  0  0  0  0
  -10.0390   56.0860    6.0370 N   0  0  0  0  0  0  0  0  0  0  0  0
   -7.7900   55.2810    8.8720 C   0  0  0  0  0  0  0  0  0  0  0  0
   -5.5060   52.8330   12.1600 C   0  0  0  0  0  0  0  0  0  0  0  0
   -5.4610   51.4140   12.3960 C   0  0  0  0  0  0  0  0  0  0  0  0
   -4.2980   50.7300   12.8260 C   0  0  0  0  0  0  0  0  0  0  0  0
   -3.1810   51.5640   12.9940 C   0  0  0  0  0  0  0  0  0  0  0  0
   -1.9320   51.2680   13.3860 N   0  0  0  0  0  0  0  0  0  0  0  0
   -1.2740   52.4440   13.3580 N   0  0  0  0  0  0  0  0  0  0  0  0
   -2.0360   53.5090   12.9720 C   0  0  0  0  0  0  0  0  0  0  0  0
   -3.2720   52.9780   12.7300 C   0  0  0  0  0  0  0  0  0  0  0  0
   -4.3870   53.6870   12.3070 C   0  0  0  0  0  0  0  0  0  0  0  0
   -5.6810   54.6890   10.4810 H   0  0  0  0  0  0  0  0  0  0  0  0
   -8.3450   56.2181   12.1008 H   0  0  0  0  0  0  0  0  0  0  0  0
  -10.0832   57.5946   10.9697 H   0  0  0  0  0  0  0  0  0  0  0  0
  -10.3587   57.4979    8.4980 H   0  0  0  0  0  0  0  0  0  0  0  0
  -10.9850   56.2600    6.3470 H   0  0  0  0  0  0  0  0  0  0  0  0
   -7.1353   54.6265    8.2778 H   0  0  0  0  0  0  0  0  0  0  0  0
   -6.3788   50.8297   12.2337 H   0  0  0  0  0  0  0  0  0  0  0  0
   -4.2721   49.6460   13.0112 H   0  0  0  0  0  0  0  0  0  0  0  0
   -0.2940   52.4450   13.6190 H   0  0  0  0  0  0  0  0  0  0  0  0
   -1.7248   54.5598   12.8770 H   0  0  0  0  0  0  0  0  0  0  0  0
   -4.3997   54.7695   12.1117 H   0  0  0  0  0  0  0  0  0  0  0  0
  1  2  2  0
  2  3  1  0
  3  4  1  0
  4  5  2  0
  5  6  1  0
  6  7  2  0
  7  8  1  0
  8  9  1  0
  9 10  2  0
 10 11  1  0
 11 12  2  0
 12 13  1  0
  8 14  2  0
  2 15  1  0
 15 16  1  0
 16 17  2  0
 17 18  1  0
 18 19  2  0
 19 20  1  0
 20 21  1  0
 21 22  2  0
 22 23  1  0
 14  4  1  0
 23 15  2  0
 13  9  1  0
 22 18  1  0
  3 24  1  0
  5 25  1  0
  6 26  1  0
  7 27  1  0
 13 28  1  0
 14 29  1  0
 16 30  1  0
 17 31  1  0
 20 32  1  0
 21 33  1  0
 23 34  1  0
M  END
>  <meeko>  (8) 
{"is_sidechain": [false], "free_energy": -7.236, "intermolecular_energy": -8.535, "internal_energy": -0.478}

$$$$
4de1_ligand
     RDKit          3D

 34 37  0  0  0  0  0  0  0  0999 V2000
   -3.3510   53.3530   13.7810 O   0  0  0  0  0  0  0  0  0  0  0  0
   -4.0790   53.2640   12.7990 C   0  0  0  0  0  0  0  0  0  0  0  0
   -3.7920   52.6300   11.6040 N   0  0  0  0  0  0  0  0  0  0  0  0
   -2.6370   51.8860   11.2870 C   0  0  0  0  0  0  0  0  0  0  0  0
   -1.4830   52.4360   10.7310 C   0  0  0  0  0  0  0  0  0  0  0  0
   -0.3800   51.6260   10.4530 C   0  0  0  0  0  0  0  0  0  0  0  0
   -0.4180   50.2580   10.7280 C   0  0  0  0  0  0  0  0  0  0  0  0
   -1.5630   49.6810   11.2880 C   0  0  0  0  0  0  0  0  0  0  0  0
   -1.6550   48.2560   11.5990 C   0  0  0  0  0  0  0  0  0  0  0  0
   -2.5900   47.6510   12.3130 N   0  0  0  0  0  0  0  0  0  0  0  0
   -2.2690   46.3170   12.3370 N   0  0  0  0  0  0  0  0  0  0  0  0
   -1.1590   46.0860   11.6540 N   0  0  0  0  0  0  0  0  0  0  0  0
   -0.7790   47.2850   11.1950 N   0  0  0  0  0  0  0  0  0  0  0  0
   -2.6650   50.5110   11.5630 C   0  0  0  0  0  0  0  0  0  0  0  0
   -5.4100   53.9370   12.8440 C   0  0  0  0  0  0  0  0  0  0  0  0
   -5.8300   54.6130   14.0430 C   0  0  0  0  0  0  0  0  0  0  0  0
   -7.0760   55.2720   14.1740 C   0  0  0  0  0  0  0  0  0  0  0  0
   -7.8690   55.2170   13.0150 C   0  0  0  0  0  0  0  0  0  0  0  0
   -9.0900   55.7210   12.7780 N   0  0  0  0  0  0  0  0  0  0  0  0
   -9.3620   55.3820   11.5030 N   0  0  0  0  0  0  0  0  0  0  0  0
   -8.3760   54.6660   10.8860 C   0  0  0  0  0  0  0  0  0  0  0  0
   -7.3980   54.5410   11.8320 C   0  0  0  0  0  0  0  0  0  0  0  0
   -6.1870   53.8850   11.6620 C   0  0  0  0  0  0  0  0  0  0  0  0
   -4.4500   52.7650   10.8450 H   0  0  0  0  0  0  0  0  0  0  0  0
   -1.4411   53.5128   10.5103 H   0  0  0  0  0  0  0  0  0  0  0  0
    0.5259   52.0694   10.0139 H   0  0  0  0  0  0  0  0  0  0  0  0
    0.4569   49.6303   10.5032 H   0  0  0  0  0  0  0  0  0  0  0  0
    0.0580   47.3570   10.6330 H   0  0  0  0  0  0  0  0  0  0  0  0
   -3.5709   50.0709   12.0053 H   0  0  0  0  0  0  0  0  0  0  0  0
   -5.1458   54.6179   14.9043 H   0  0  0  0  0  0  0  0  0  0  0  0
   -7.3938   55.7797   15.0967 H   0  0  0  0  0  0  0  0  0  0  0  0
  -10.2520   55.6750   11.1140 H   0  0  0  0  0  0  0  0  0  0  0  0
   -8.3705   54.2768    9.8572 H   0  0  0  0  0  0  0  0  0  0  0  0
   -5.8724   53.3899   10.7315 H   0  0  0  0  0  0  0  0  0  0  0  0
  1  2  2  0
  2  3  1  0
  3  4  1  0
  4  5  2  0
  5  6  1  0
  6  7  2  0
  7  8  1  0
  8  9  1  0
  9 10  2  0
 10 11  1  0
 11 12  2  0
 12 13  1  0
  8 14  2  0
  2 15  1  0
 15 16  1  0
 16 17  2  0
 17 18  1  0
 18 19  2  0
 19 20  1  0
 20 21  1  0
 21 22  2  0
 22 23  1  0
 14  4  1  0
 23 15  2  0
 13  9  1  0
 22 18  1  0
  3 24  1  0
  5 25  1  0
  6 26  1  0
  7 27  1  0
 13 28  1  0
 14 29  1  0
 16 30  1  0
 17 31  1  0
 20 32  1  0
 21 33  1  0
 23 34  1  0
M  END
>  <meeko>  (9) 
{"is_sidechain": [false], "free_energy": -7.193, "intermolecular_energy": -8.406, "internal_energy": -0.558}

$$$$
