2xdl_ligand
     RDKit          3D

 33 33  0  0  0  0  0  0  0  0999 V2000
   66.5000   37.7030   22.3800 C   0  0  0  0  0  0  0  0  0  0  0  0
   65.0970   37.3790   22.8680 C   0  0  0  0  0  0  0  0  0  0  0  0
   65.1280   36.5850   24.0960 N   0  0  0  0  0  0  0  0  0  0  0  0
   65.8860   37.1310   25.2250 C   0  0  0  0  0  0  0  0  0  0  0  0
   65.2110   38.3590   25.8170 C   0  0  0  0  0  0  0  0  0  0  0  0
   64.5130   35.3330   24.0750 C   0  0  0  0  0  0  0  0  0  0  0  0
   63.9780   34.8450   23.0830 O   0  0  0  0  0  0  0  0  0  0  0  0
   64.5080   34.5200   25.3050 C   0  0  0  0  0  0  0  0  0  0  0  0
   63.3860   34.5240   26.1400 C   0  0  0  0  0  0  0  0  0  0  0  0
   63.3880   33.7390   27.2890 C   0  0  0  0  0  0  0  0  0  0  0  0
   64.5000   32.9520   27.5700 C   0  0  0  0  0  0  0  0  0  0  0  0
   64.4770   32.1910   28.7080 O   0  0  0  0  0  0  0  0  0  0  0  0
   65.6190   32.9170   26.7240 C   0  0  0  0  0  0  0  0  0  0  0  0
   66.6270   32.0820   27.1310 O   0  0  0  0  0  0  0  0  0  0  0  0
   66.9330   30.9910   26.2710 C   0  0  0  0  0  0  0  0  0  0  0  0
   65.6180   33.7060   25.5770 C   0  0  0  0  0  0  0  0  0  0  0  0
   67.1627   37.8560   23.2445 H   0  0  0  0  0  0  0  0  0  0  0  0
   66.8783   36.8686   21.7712 H   0  0  0  0  0  0  0  0  0  0  0  0
   66.4741   38.6188   21.7712 H   0  0  0  0  0  0  0  0  0  0  0  0
   64.5602   38.3191   23.0633 H   0  0  0  0  0  0  0  0  0  0  0  0
   64.5872   36.7922   22.0897 H   0  0  0  0  0  0  0  0  0  0  0  0
   65.9689   36.3595   26.0047 H   0  0  0  0  0  0  0  0  0  0  0  0
   66.8789   37.4300   24.8578 H   0  0  0  0  0  0  0  0  0  0  0  0
   65.2427   38.3013   26.9150 H   0  0  0  0  0  0  0  0  0  0  0  0
   65.7382   39.2645   25.4820 H   0  0  0  0  0  0  0  0  0  0  0  0
   64.1640   38.3992   25.4820 H   0  0  0  0  0  0  0  0  0  0  0  0
   62.5105   35.1416   25.8909 H   0  0  0  0  0  0  0  0  0  0  0  0
   62.5213   33.7408   27.9664 H   0  0  0  0  0  0  0  0  0  0  0  0
   65.4150   32.0020   28.9060 H   0  0  0  0  0  0  0  0  0  0  0  0
   67.1812   30.1061   26.8754 H   0  0  0  0  0  0  0  0  0  0  0  0
   66.0624   30.7691   25.6363 H   0  0  0  0  0  0  0  0  0  0  0  0
   67.7920   31.2542   25.6363 H   0  0  0  0  0  0  0  0  0  0  0  0
   66.4781   33.6914   24.8914 H   0  0  0  0  0  0  0  0  0  0  0  0
  1  2  1  0
  2  3  1  0
  3  4  1  0
  4  5  1  0
  3  6  1  0
  6  7  2  0
  6  8  1  0
  8  9  2  0
  9 10  1  0
 10 11  2  0
 11 12  1  0
 11 13  1  0
 13 14  1  0
 14 15  1  0
 13 16  2  0
 16  8  1  0
  1 17  1  0
  1 18  1  0
  1 19  1  0
  2 20  1  0
  2 21  1  0
  4 22  1  0
  4 23  1  0
  5 24  1  0
  5 25  1  0
  5 26  1  0
  9 27  1  0
 10 28  1  0
 12 29  1  0
 15 30  1  0
 15 31  1  0
 15 32  1  0
 16 33  1  0
M  END
>  <meeko>  (1) 
{"is_sidechain": [false], "free_energy": -6.457, "intermolecular_energy": -8.156, "internal_energy": -0.442}

$$$$
2xdl_ligand
     RDKit          3D

 33 33  0  0  0  0  0  0  0  0999 V2000
   66.6790   31.0160   26.4220 C   0  0  0  0  0  0  0  0  0  0  0  0
   65.9500   32.1570   27.1160 C   0  0  0  0  0  0  0  0  0  0  0  0
   66.0830   33.4070   26.3710 N   0  0  0  0  0  0  0  0  0  0  0  0
   67.4380   33.8210   25.9950 C   0  0  0  0  0  0  0  0  0  0  0  0
   68.2280   34.3220   27.1930 C   0  0  0  0  0  0  0  0  0  0  0  0
   64.9270   34.1570   26.1500 C   0  0  0  0  0  0  0  0  0  0  0  0
   63.8150   33.8480   26.5710 O   0  0  0  0  0  0  0  0  0  0  0  0
   65.0260   35.4110   25.3820 C   0  0  0  0  0  0  0  0  0  0  0  0
   64.8920   35.3900   23.9900 C   0  0  0  0  0  0  0  0  0  0  0  0
   64.9700   36.5830   23.2780 C   0  0  0  0  0  0  0  0  0  0  0  0
   65.1610   37.7740   23.9710 C   0  0  0  0  0  0  0  0  0  0  0  0
   65.2370   38.9340   23.2470 O   0  0  0  0  0  0  0  0  0  0  0  0
   65.2670   37.8110   25.3700 C   0  0  0  0  0  0  0  0  0  0  0  0
   65.4390   39.0620   25.9050 O   0  0  0  0  0  0  0  0  0  0  0  0
   66.7130   39.3380   26.4750 C   0  0  0  0  0  0  0  0  0  0  0  0
   65.1930   36.6160   26.0800 C   0  0  0  0  0  0  0  0  0  0  0  0
   67.1094   30.3424   27.1777 H   0  0  0  0  0  0  0  0  0  0  0  0
   65.9705   30.4568   25.7933 H   0  0  0  0  0  0  0  0  0  0  0  0
   67.4842   31.4239   25.7933 H   0  0  0  0  0  0  0  0  0  0  0  0
   64.8832   31.9019   27.1992 H   0  0  0  0  0  0  0  0  0  0  0  0
   66.3967   32.2983   28.1112 H   0  0  0  0  0  0  0  0  0  0  0  0
   67.9643   32.9606   25.5560 H   0  0  0  0  0  0  0  0  0  0  0  0
   67.3552   34.6451   25.2711 H   0  0  0  0  0  0  0  0  0  0  0  0
   67.7283   34.0051   28.1203 H   0  0  0  0  0  0  0  0  0  0  0  0
   69.2447   33.9033   27.1629 H   0  0  0  0  0  0  0  0  0  0  0  0
   68.2827   35.4202   27.1629 H   0  0  0  0  0  0  0  0  0  0  0  0
   64.7264   34.4389   23.4627 H   0  0  0  0  0  0  0  0  0  0  0  0
   64.8818   36.5843   22.1815 H   0  0  0  0  0  0  0  0  0  0  0  0
   66.1930   39.1230   23.1710 H   0  0  0  0  0  0  0  0  0  0  0  0
   66.6352   39.3212   27.5721 H   0  0  0  0  0  0  0  0  0  0  0  0
   67.4345   38.5753   26.1468 H   0  0  0  0  0  0  0  0  0  0  0  0
   67.0542   40.3309   26.1468 H   0  0  0  0  0  0  0  0  0  0  0  0
   65.2648   36.6167   27.1777 H   0  0  0  0  0  0  0  0  0  0  0  0
  1  2  1  0
  2  3  1  0
  3  4  1  0
  4  5  1  0
  3  6  1  0
  6  7  2  0
  6  8  1  0
  8  9  2  0
  9 10  1  0
 10 11  2  0
 11 12  1  0
 11 13  1  0
 13 14  1  0
 14 15  1  0
 13 16  2  0
 16  8  1  0
  1 17  1  0
  1 18  1  0
  1 19  1  0
  2 20  1  0
  2 21  1  0
  4 22  1  0
  4 23  1  0
  5 24  1  0
  5 25  1  0
  5 26  1  0
  9 27  1  0
 10 28  1  0
 12 29  1  0
 15 30  1  0
 15 31  1  0
 15 32  1  0
 16 33  1  0
M  END
>  <meeko>  (2) 
{"is_sidechain": [false], "free_energy": -6.223, "intermolecular_energy": -7.839, "internal_energy": -0.463}

$$$$
2xdl_ligand
     RDKit          3D

 33 33  0  0  0  0  0  0  0  0999 V2000
   66.1520   37.6790   22.1990 C   0  0  0  0  0  0  0  0  0  0  0  0
   64.8870   37.4400   23.0080 C   0  0  0  0  0  0  0  0  0  0  0  0
   65.1610   36.6520   24.2080 N   0  0  0  0  0  0  0  0  0  0  0  0
   65.9020   37.3120   25.2870 C   0  0  0  0  0  0  0  0  0  0  0  0
   65.2180   38.5940   25.7380 C   0  0  0  0  0  0  0  0  0  0  0  0
   64.7780   35.3100   24.2060 C   0  0  0  0  0  0  0  0  0  0  0  0
   64.2570   34.7450   23.2480 O   0  0  0  0  0  0  0  0  0  0  0  0
   65.0200   34.4960   25.4110 C   0  0  0  0  0  0  0  0  0  0  0  0
   66.3160   34.0660   25.7130 C   0  0  0  0  0  0  0  0  0  0  0  0
   66.5330   33.3130   26.8640 C   0  0  0  0  0  0  0  0  0  0  0  0
   65.4590   33.0230   27.6970 C   0  0  0  0  0  0  0  0  0  0  0  0
   65.7000   32.2790   28.8210 O   0  0  0  0  0  0  0  0  0  0  0  0
   64.1600   33.4750   27.4200 C   0  0  0  0  0  0  0  0  0  0  0  0
   63.2120   33.1190   28.3440 O   0  0  0  0  0  0  0  0  0  0  0  0
   62.5590   31.8710   28.1340 C   0  0  0  0  0  0  0  0  0  0  0  0
   63.9420   34.2250   26.2660 C   0  0  0  0  0  0  0  0  0  0  0  0
   66.9993   37.8391   22.8820 H   0  0  0  0  0  0  0  0  0  0  0  0
   66.3527   36.8029   21.5649 H   0  0  0  0  0  0  0  0  0  0  0  0
   66.0192   38.5679   21.5649 H   0  0  0  0  0  0  0  0  0  0  0  0
   64.4645   38.4108   23.3064 H   0  0  0  0  0  0  0  0  0  0  0  0
   64.1767   36.8804   22.3817 H   0  0  0  0  0  0  0  0  0  0  0  0
   65.9718   36.6251   26.1433 H   0  0  0  0  0  0  0  0  0  0  0  0
   66.9011   37.5720   24.9073 H   0  0  0  0  0  0  0  0  0  0  0  0
   65.1979   38.6317   26.8372 H   0  0  0  0  0  0  0  0  0  0  0  0
   65.7732   39.4614   25.3515 H   0  0  0  0  0  0  0  0  0  0  0  0
   64.1884   38.6158   25.3515 H   0  0  0  0  0  0  0  0  0  0  0  0
   67.1550   34.3199   25.0484 H   0  0  0  0  0  0  0  0  0  0  0  0
   67.5423   32.9520   27.1110 H   0  0  0  0  0  0  0  0  0  0  0  0
   64.9380   32.4520   29.4080 H   0  0  0  0  0  0  0  0  0  0  0  0
   62.3200   31.4142   29.1057 H   0  0  0  0  0  0  0  0  0  0  0  0
   61.6305   32.0338   27.5671 H   0  0  0  0  0  0  0  0  0  0  0  0
   63.2221   31.2010   27.5671 H   0  0  0  0  0  0  0  0  0  0  0  0
   62.9357   34.6002   26.0284 H   0  0  0  0  0  0  0  0  0  0  0  0
  1  2  1  0
  2  3  1  0
  3  4  1  0
  4  5  1  0
  3  6  1  0
  6  7  2  0
  6  8  1  0
  8  9  2  0
  9 10  1  0
 10 11  2  0
 11 12  1  0
 11 13  1  0
 13 14  1  0
 14 15  1  0
 13 16  2  0
 16  8  1  0
  1 17  1  0
  1 18  1  0
  1 19  1  0
  2 20  1  0
  2 21  1  0
  4 22  1  0
  4 23  1  0
  5 24  1  0
  5 25  1  0
  5 26  1  0
  9 27  1  0
 10 28  1  0
 12 29  1  0
 15 30  1  0
 15 31  1  0
 15 32  1  0
 16 33  1  0
M  END
>  <meeko>  (3) 
{"is_sidechain": [false], "free_energy": -6.152, "intermolecular_energy": -8.019, "internal_energy": -0.193}

$$$$
2xdl_ligand
     RDKit          3D

 33 33  0  0  0  0  0  0  0  0999 V2000
   66.8090   31.4300   26.6110 C   0  0  0  0  0  0  0  0  0  0  0  0
   66.6230   32.6640   27.4800 C   0  0  0  0  0  0  0  0  0  0  0  0
   66.0970   33.7880   26.7080 N   0  0  0  0  0  0  0  0  0  0  0  0
   64.8230   33.5840   26.0120 C   0  0  0  0  0  0  0  0  0  0  0  0
   63.6340   33.8230   26.9300 C   0  0  0  0  0  0  0  0  0  0  0  0
   66.8830   34.9370   26.6180 C   0  0  0  0  0  0  0  0  0  0  0  0
   67.9990   35.0490   27.1170 O   0  0  0  0  0  0  0  0  0  0  0  0
   66.3680   36.0960   25.8650 C   0  0  0  0  0  0  0  0  0  0  0  0
   65.7270   37.1390   26.5420 C   0  0  0  0  0  0  0  0  0  0  0  0
   65.2620   38.2350   25.8210 C   0  0  0  0  0  0  0  0  0  0  0  0
   65.4630   38.2770   24.4460 C   0  0  0  0  0  0  0  0  0  0  0  0
   64.9930   39.3650   23.7600 O   0  0  0  0  0  0  0  0  0  0  0  0
   66.1310   37.2510   23.7610 C   0  0  0  0  0  0  0  0  0  0  0  0
   66.2620   37.4450   22.4100 O   0  0  0  0  0  0  0  0  0  0  0  0
   67.5650   37.7750   21.9400 C   0  0  0  0  0  0  0  0  0  0  0  0
   66.5930   36.1530   24.4820 C   0  0  0  0  0  0  0  0  0  0  0  0
   66.9422   30.5464   27.2525 H   0  0  0  0  0  0  0  0  0  0  0  0
   65.9216   31.2916   25.9759 H   0  0  0  0  0  0  0  0  0  0  0  0
   67.6978   31.5593   25.9759 H   0  0  0  0  0  0  0  0  0  0  0  0
   65.9191   32.4271   28.2914 H   0  0  0  0  0  0  0  0  0  0  0  0
   67.6043   32.9523   27.8848 H   0  0  0  0  0  0  0  0  0  0  0  0
   64.7645   34.2824   25.1642 H   0  0  0  0  0  0  0  0  0  0  0  0
   64.7847   32.5401   25.6672 H   0  0  0  0  0  0  0  0  0  0  0  0
   63.9610   33.7573   27.9782 H   0  0  0  0  0  0  0  0  0  0  0  0
   63.2175   34.8228   26.7378 H   0  0  0  0  0  0  0  0  0  0  0  0
   62.8636   33.0618   26.7378 H   0  0  0  0  0  0  0  0  0  0  0  0
   65.5919   37.0934   27.6327 H   0  0  0  0  0  0  0  0  0  0  0  0
   64.7418   39.0580   26.3329 H   0  0  0  0  0  0  0  0  0  0  0  0
   64.8750   40.0590   24.4380 H   0  0  0  0  0  0  0  0  0  0  0  0
   68.2324   37.9440   22.7979 H   0  0  0  0  0  0  0  0  0  0  0  0
   67.9551   36.9473   21.3295 H   0  0  0  0  0  0  0  0  0  0  0  0
   67.5141   38.6886   21.3295 H   0  0  0  0  0  0  0  0  0  0  0  0
   67.1289   35.3388   23.9721 H   0  0  0  0  0  0  0  0  0  0  0  0
  1  2  1  0
  2  3  1  0
  3  4  1  0
  4  5  1  0
  3  6  1  0
  6  7  2  0
  6  8  1  0
  8  9  2  0
  9 10  1  0
 10 11  2  0
 11 12  1  0
 11 13  1  0
 13 14  1  0
 14 15  1  0
 13 16  2  0
 16  8  1  0
  1 17  1  0
  1 18  1  0
  1 19  1  0
  2 20  1  0
  2 21  1  0
  4 22  1  0
  4 23  1  0
  5 24  1  0
  5 25  1  0
  5 26  1  0
  9 27  1  0
 10 28  1  0
 12 29  1  0
 15 30  1  0
 15 31  1  0
 15 32  1  0
 16 33  1  0
M  END
>  <meeko>  (4) 
{"is_sidechain": [false], "free_energy": -6.02, "intermolecular_energy": -7.563, "internal_energy": -0.483}

$$$$
2xdl_ligand
     RDKit          3D

 33 33  0  0  0  0  0  0  0  0999 V2000
   65.0100   32.2280   29.0550 C   0  0  0  0  0  0  0  0  0  0  0  0
   64.6240   32.3340   27.5880 C   0  0  0  0  0  0  0  0  0  0  0  0
   65.2970   33.4560   26.9380 N   0  0  0  0  0  0  0  0  0  0  0  0
   66.7610   33.4880   27.0050 C   0  0  0  0  0  0  0  0  0  0  0  0
   67.3870   32.3420   26.2250 C   0  0  0  0  0  0  0  0  0  0  0  0
   64.5000   34.4570   26.3810 C   0  0  0  0  0  0  0  0  0  0  0  0
   63.2730   34.4680   26.4320 O   0  0  0  0  0  0  0  0  0  0  0  0
   65.1510   35.5900   25.6980 C   0  0  0  0  0  0  0  0  0  0  0  0
   65.2710   35.5880   24.3040 C   0  0  0  0  0  0  0  0  0  0  0  0
   65.8720   36.6720   23.6700 C   0  0  0  0  0  0  0  0  0  0  0  0
   66.3220   37.7410   24.4370 C   0  0  0  0  0  0  0  0  0  0  0  0
   66.9120   38.7940   23.7900 O   0  0  0  0  0  0  0  0  0  0  0  0
   66.1800   37.7670   25.8330 C   0  0  0  0  0  0  0  0  0  0  0  0
   66.6600   38.8960   26.4440 O   0  0  0  0  0  0  0  0  0  0  0  0
   66.8130   38.8360   27.8580 C   0  0  0  0  0  0  0  0  0  0  0  0
   65.5820   36.6800   26.4670 C   0  0  0  0  0  0  0  0  0  0  0  0
   64.1383   32.4674   29.6817 H   0  0  0  0  0  0  0  0  0  0  0  0
   65.3476   31.2039   29.2722 H   0  0  0  0  0  0  0  0  0  0  0  0
   65.8233   32.9361   29.2722 H   0  0  0  0  0  0  0  0  0  0  0  0
   64.9062   31.4023   27.0757 H   0  0  0  0  0  0  0  0  0  0  0  0
   63.5383   32.5002   27.5275 H   0  0  0  0  0  0  0  0  0  0  0  0
   67.1160   34.4406   26.5848 H   0  0  0  0  0  0  0  0  0  0  0  0
   67.0575   33.3863   28.0594 H   0  0  0  0  0  0  0  0  0  0  0  0
   67.7929   31.5990   26.9273 H   0  0  0  0  0  0  0  0  0  0  0  0
   66.6222   31.8685   25.5918 H   0  0  0  0  0  0  0  0  0  0  0  0
   68.1986   32.7297   25.5918 H   0  0  0  0  0  0  0  0  0  0  0  0
   64.8944   34.7387   23.7151 H   0  0  0  0  0  0  0  0  0  0  0  0
   65.9894   36.6827   22.5763 H   0  0  0  0  0  0  0  0  0  0  0  0
   66.2170   39.1520   23.2040 H   0  0  0  0  0  0  0  0  0  0  0  0
   65.8934   39.1966   28.3419 H   0  0  0  0  0  0  0  0  0  0  0  0
   67.0040   37.7963   28.1624 H   0  0  0  0  0  0  0  0  0  0  0  0
   67.6598   39.4686   28.1624 H   0  0  0  0  0  0  0  0  0  0  0  0
   65.4495   36.6771   27.5590 H   0  0  0  0  0  0  0  0  0  0  0  0
  1  2  1  0
  2  3  1  0
  3  4  1  0
  4  5  1  0
  3  6  1  0
  6  7  2  0
  6  8  1  0
  8  9  2  0
  9 10  1  0
 10 11  2  0
 11 12  1  0
 11 13  1  0
 13 14  1  0
 14 15  1  0
 13 16  2  0
 16  8  1  0
  1 17  1  0
  1 18  1  0
  1 19  1  0
  2 20  1  0
  2 21  1  0
  4 22  1  0
  4 23  1  0
  5 24  1  0
  5 25  1  0
  5 26  1  0
  9 27  1  0
 10 28  1  0
 12 29  1  0
 15 30  1  0
 15 31  1  0
 15 32  1  0
 16 33  1  0
M  END
>  <meeko>  (5) 
{"is_sidechain": [false], "free_energy": -5.871, "intermolecular_energy": -7.449, "internal_energy": -0.408}

$$$$
2xdl_ligand
     RDKit          3D

 33 33  0  0  0  0  0  0  0  0999 V2000
   66.6590   31.1660   26.3700 C   0  0  0  0  0  0  0  0  0  0  0  0
   66.2740   32.1340   27.4770 C   0  0  0  0  0  0  0  0  0  0  0  0
   65.8370   33.4190   26.9350 N   0  0  0  0  0  0  0  0  0  0  0  0
   64.3960   33.6110   26.7500 C   0  0  0  0  0  0  0  0  0  0  0  0
   63.5880   32.8790   27.8100 C   0  0  0  0  0  0  0  0  0  0  0  0
   66.8210   34.3320   26.5540 C   0  0  0  0  0  0  0  0  0  0  0  0
   68.0270   34.1090   26.6140 O   0  0  0  0  0  0  0  0  0  0  0  0
   66.4100   35.6450   26.0260 C   0  0  0  0  0  0  0  0  0  0  0  0
   65.8190   35.7350   24.7620 C   0  0  0  0  0  0  0  0  0  0  0  0
   65.4190   36.9790   24.2820 C   0  0  0  0  0  0  0  0  0  0  0  0
   65.6000   38.1030   25.0810 C   0  0  0  0  0  0  0  0  0  0  0  0
   65.2000   39.3160   24.5850 O   0  0  0  0  0  0  0  0  0  0  0  0
   66.1640   38.0210   26.3640 C   0  0  0  0  0  0  0  0  0  0  0  0
   66.2620   39.2140   27.0310 O   0  0  0  0  0  0  0  0  0  0  0  0
   66.9660   39.1930   28.2680 C   0  0  0  0  0  0  0  0  0  0  0  0
   66.5670   36.7760   26.8400 C   0  0  0  0  0  0  0  0  0  0  0  0
   67.0310   30.2307   26.8137 H   0  0  0  0  0  0  0  0  0  0  0  0
   65.7777   30.9515   25.7476 H   0  0  0  0  0  0  0  0  0  0  0  0
   67.4469   31.6153   25.7476 H   0  0  0  0  0  0  0  0  0  0  0  0
   65.4541   31.6966   28.0655 H   0  0  0  0  0  0  0  0  0  0  0  0
   67.1584   32.3075   28.1076 H   0  0  0  0  0  0  0  0  0  0  0  0
   64.1696   34.6858   26.8089 H   0  0  0  0  0  0  0  0  0  0  0  0
   64.1201   33.2021   25.7668 H   0  0  0  0  0  0  0  0  0  0  0  0
   63.9289   33.1879   28.8092 H   0  0  0  0  0  0  0  0  0  0  0  0
   62.5223   33.1254   27.6938 H   0  0  0  0  0  0  0  0  0  0  0  0
   63.7283   31.7942   27.6938 H   0  0  0  0  0  0  0  0  0  0  0  0
   65.6715   34.8312   24.1526 H   0  0  0  0  0  0  0  0  0  0  0  0
   64.9658   37.0718   23.2840 H   0  0  0  0  0  0  0  0  0  0  0  0
   65.7470   39.4550   23.7880 H   0  0  0  0  0  0  0  0  0  0  0  0
   66.2465   39.2145   29.0998 H   0  0  0  0  0  0  0  0  0  0  0  0
   67.5710   38.2764   28.3301 H   0  0  0  0  0  0  0  0  0  0  0  0
   67.6245   40.0719   28.3301 H   0  0  0  0  0  0  0  0  0  0  0  0
   67.0043   36.6806   27.8448 H   0  0  0  0  0  0  0  0  0  0  0  0
  1  2  1  0
  2  3  1  0
  3  4  1  0
  4  5  1  0
  3  6  1  0
  6  7  2  0
  6  8  1  0
  8  9  2  0
  9 10  1  0
 10 11  2  0
 11 12  1  0
 11 13  1  0
 13 14  1  0
 14 15  1  0
 13 16  2  0
 16  8  1  0
  1 17  1  0
  1 18  1  0
  1 19  1  0
  2 20  1  0
  2 21  1  0
  4 22  1  0
  4 23  1  0
  5 24  1  0
  5 25  1  0
  5 26  1  0
  9 27  1  0
 10 28  1  0
 12 29  1  0
 15 30  1  0
 15 31  1  0
 15 32  1  0
 16 33  1  0
M  END
>  <meeko>  (6) 
{"is_sidechain": [false], "free_energy": -5.713, "intermolecular_energy": -7.546, "internal_energy": -0.111}

$$$$
2xdl_ligand
     RDKit          3D

 33 33  0  0  0  0  0  0  0  0999 V2000
   64.4210   32.5520   28.7510 C   0  0  0  0  0  0  0  0  0  0  0  0
   64.6050   32.5530   27.2420 C   0  0  0  0  0  0  0  0  0  0  0  0
   65.4850   33.6380   26.8120 N   0  0  0  0  0  0  0  0  0  0  0  0
   66.9200   33.4740   27.0610 C   0  0  0  0  0  0  0  0  0  0  0  0
   67.4500   32.1740   26.4760 C   0  0  0  0  0  0  0  0  0  0  0  0
   64.8920   34.7820   26.2780 C   0  0  0  0  0  0  0  0  0  0  0  0
   63.6790   34.9460   26.1780 O   0  0  0  0  0  0  0  0  0  0  0  0
   65.7550   35.8830   25.8130 C   0  0  0  0  0  0  0  0  0  0  0  0
   66.3400   36.7500   26.7420 C   0  0  0  0  0  0  0  0  0  0  0  0
   67.1670   37.7750   26.2920 C   0  0  0  0  0  0  0  0  0  0  0  0
   67.4090   37.9010   24.9280 C   0  0  0  0  0  0  0  0  0  0  0  0
   68.2240   38.9190   24.5110 O   0  0  0  0  0  0  0  0  0  0  0  0
   66.8520   37.0190   23.9900 C   0  0  0  0  0  0  0  0  0  0  0  0
   67.1960   37.2660   22.6860 O   0  0  0  0  0  0  0  0  0  0  0  0
   66.1760   37.8050   21.8520 C   0  0  0  0  0  0  0  0  0  0  0  0
   66.0210   35.9960   24.4410 C   0  0  0  0  0  0  0  0  0  0  0  0
   65.4061   32.5574   29.2405 H   0  0  0  0  0  0  0  0  0  0  0  0
   63.8570   33.4471   29.0522 H   0  0  0  0  0  0  0  0  0  0  0  0
   63.8668   31.6508   29.0522 H   0  0  0  0  0  0  0  0  0  0  0  0
   65.0446   31.5927   26.9346 H   0  0  0  0  0  0  0  0  0  0  0  0
   63.6206   32.6999   26.7736 H   0  0  0  0  0  0  0  0  0  0  0  0
   67.4593   34.3164   26.6033 H   0  0  0  0  0  0  0  0  0  0  0  0
   67.0773   33.4483   28.1494 H   0  0  0  0  0  0  0  0  0  0  0  0
   67.7284   31.4912   27.2923 H   0  0  0  0  0  0  0  0  0  0  0  0
   66.6708   31.7062   25.8563 H   0  0  0  0  0  0  0  0  0  0  0  0
   68.3342   32.3844   25.8563 H   0  0  0  0  0  0  0  0  0  0  0  0
   66.1482   36.6229   27.8177 H   0  0  0  0  0  0  0  0  0  0  0  0
   67.6234   38.4765   27.0058 H   0  0  0  0  0  0  0  0  0  0  0  0
   68.0270   39.0280   23.5600 H   0  0  0  0  0  0  0  0  0  0  0  0
   65.3761   38.2277   22.4777 H   0  0  0  0  0  0  0  0  0  0  0  0
   66.6015   38.5960   21.2169 H   0  0  0  0  0  0  0  0  0  0  0  0
   65.7623   37.0078   21.2169 H   0  0  0  0  0  0  0  0  0  0  0  0
   65.5783   35.2845   23.7284 H   0  0  0  0  0  0  0  0  0  0  0  0
  1  2  1  0
  2  3  1  0
  3  4  1  0
  4  5  1  0
  3  6  1  0
  6  7  2  0
  6  8  1  0
  8  9  2  0
  9 10  1  0
 10 11  2  0
 11 12  1  0
 11 13  1  0
 13 14  1  0
 14 15  1  0
 13 16  2  0
 16  8  1  0
  1 17  1  0
  1 18  1  0
  1 19  1  0
  2 20  1  0
  2 21  1  0
  4 22  1  0
  4 23  1  0
  5 24  1  0
  5 25  1  0
  5 26  1  0
  9 27  1  0
 10 28  1  0
 12 29  1  0
 15 30  1  0
 15 31  1  0
 15 32  1  0
 16 33  1  0
M  END
>  <meeko>  (7) 
{"is_sidechain": [false], "free_energy": -5.683, "intermolecular_energy": -7.274, "internal_energy": -0.346}

$$$$
2xdl_ligand
     RDKit          3D

 33 33  0  0  0  0  0  0  0  0999 V2000
   69.5170   40.0520   26.7590 C   0  0  0  0  0  0  0  0  0  0  0  0
   68.0430   39.8570   27.0780 C   0  0  0  0  0  0  0  0  0  0  0  0
   67.4680   38.7630   26.2990 N   0  0  0  0  0  0  0  0  0  0  0  0
   68.2730   37.5450   26.1610 C   0  0  0  0  0  0  0  0  0  0  0  0
   68.2740   36.7210   27.4390 C   0  0  0  0  0  0  0  0  0  0  0  0
   66.2410   38.9860   25.6740 C   0  0  0  0  0  0  0  0  0  0  0  0
   65.6330   40.0520   25.7100 O   0  0  0  0  0  0  0  0  0  0  0  0
   65.6250   37.8920   24.9000 C   0  0  0  0  0  0  0  0  0  0  0  0
   65.4160   38.0410   23.5250 C   0  0  0  0  0  0  0  0  0  0  0  0
   64.8500   36.9940   22.8040 C   0  0  0  0  0  0  0  0  0  0  0  0
   64.5230   35.8150   23.4640 C   0  0  0  0  0  0  0  0  0  0  0  0
   63.9650   34.8010   22.7320 O   0  0  0  0  0  0  0  0  0  0  0  0
   64.7560   35.6430   24.8370 C   0  0  0  0  0  0  0  0  0  0  0  0
   64.3930   34.4190   25.3380 O   0  0  0  0  0  0  0  0  0  0  0  0
   63.5340   34.4280   26.4730 C   0  0  0  0  0  0  0  0  0  0  0  0
   65.3190   36.6920   25.5590 C   0  0  0  0  0  0  0  0  0  0  0  0
   70.0881   40.1275   27.6961 H   0  0  0  0  0  0  0  0  0  0  0  0
   69.8824   39.1944   26.1751 H   0  0  0  0  0  0  0  0  0  0  0  0
   69.6468   40.9751   26.1751 H   0  0  0  0  0  0  0  0  0  0  0  0
   67.9359   39.6285   28.1487 H   0  0  0  0  0  0  0  0  0  0  0  0
   67.5081   40.7831   26.8205 H   0  0  0  0  0  0  0  0  0  0  0  0
   67.8590   36.9352   25.3445 H   0  0  0  0  0  0  0  0  0  0  0  0
   69.3097   37.8429   25.9454 H   0  0  0  0  0  0  0  0  0  0  0  0
   68.2732   37.3939   28.3091 H   0  0  0  0  0  0  0  0  0  0  0  0
   67.3766   36.0854   27.4662 H   0  0  0  0  0  0  0  0  0  0  0  0
   69.1729   36.0876   27.4662 H   0  0  0  0  0  0  0  0  0  0  0  0
   65.6963   38.9765   23.0187 H   0  0  0  0  0  0  0  0  0  0  0  0
   64.6636   37.0980   21.7249 H   0  0  0  0  0  0  0  0  0  0  0  0
   64.7030   34.1890   22.5440 H   0  0  0  0  0  0  0  0  0  0  0  0
   64.1396   34.4217   27.3912 H   0  0  0  0  0  0  0  0  0  0  0  0
   62.9087   35.3327   26.4524 H   0  0  0  0  0  0  0  0  0  0  0  0
   62.8899   33.5366   26.4524 H   0  0  0  0  0  0  0  0  0  0  0  0
   65.5216   36.5810   26.6345 H   0  0  0  0  0  0  0  0  0  0  0  0
  1  2  1  0
  2  3  1  0
  3  4  1  0
  4  5  1  0
  3  6  1  0
  6  7  2  0
  6  8  1  0
  8  9  2  0
  9 10  1  0
 10 11  2  0
 11 12  1  0
 11 13  1  0
 13 14  1  0
 14 15  1  0
 13 16  2  0
 16  8  1  0
  1 17  1  0
  1 18  1  0
  1 19  1  0
  2 20  1  0
  2 21  1  0
  4 22  1  0
  4 23  1  0
  5 24  1  0
  5 25  1  0
  5 26  1  0
  9 27  1  0
 10 28  1  0
 12 29  1  0
 15 30  1  0
 15 31  1  0
 15 32  1  0
 16 33  1  0
M  END
>  <meeko>  (8) 
{"is_sidechain": [false], "free_energy": -5.313, "intermolecular_energy": -7.106, "internal_energy": -0.046}

$$$$
2xdl_ligand
     RDKit          3D

 33 33  0  0  0  0  0  0  0  0999 V2000
   65.2250   32.2540   28.7590 C   0  0  0  0  0  0  0  0  0  0  0  0
   65.0980   32.3940   27.2500 C   0  0  0  0  0  0  0  0  0  0  0  0
   65.4290   33.7470   26.8090 N   0  0  0  0  0  0  0  0  0  0  0  0
   64.3330   34.7200   26.7580 C   0  0  0  0  0  0  0  0  0  0  0  0
   63.4310   34.4910   25.5550 C   0  0  0  0  0  0  0  0  0  0  0  0
   66.7360   33.9910   26.3870 C   0  0  0  0  0  0  0  0  0  0  0  0
   67.6130   33.1330   26.3320 O   0  0  0  0  0  0  0  0  0  0  0  0
   67.1050   35.3530   25.9580 C   0  0  0  0  0  0  0  0  0  0  0  0
   67.7710   36.2060   26.8440 C   0  0  0  0  0  0  0  0  0  0  0  0
   68.1290   37.4830   26.4210 C   0  0  0  0  0  0  0  0  0  0  0  0
   67.8330   37.8740   25.1190 C   0  0  0  0  0  0  0  0  0  0  0  0
   68.1940   39.1360   24.7290 O   0  0  0  0  0  0  0  0  0  0  0  0
   67.1930   37.0150   24.2130 C   0  0  0  0  0  0  0  0  0  0  0  0
   66.9840   37.5410   22.9640 O   0  0  0  0  0  0  0  0  0  0  0  0
   65.6300   37.7750   22.5930 C   0  0  0  0  0  0  0  0  0  0  0  0
   66.8310   35.7400   24.6380 C   0  0  0  0  0  0  0  0  0  0  0  0
   64.5642   32.9824   29.2517 H   0  0  0  0  0  0  0  0  0  0  0  0
   64.9361   31.2357   29.0584 H   0  0  0  0  0  0  0  0  0  0  0  0
   66.2665   32.4426   29.0584 H   0  0  0  0  0  0  0  0  0  0  0  0
   65.7831   31.6824   26.7659 H   0  0  0  0  0  0  0  0  0  0  0  0
   64.0550   32.1848   26.9701 H   0  0  0  0  0  0  0  0  0  0  0  0
   63.7330   34.6291   27.6755 H   0  0  0  0  0  0  0  0  0  0  0  0
   64.7714   35.7251   26.6707 H   0  0  0  0  0  0  0  0  0  0  0  0
   62.4185   34.2339   25.8996 H   0  0  0  0  0  0  0  0  0  0  0  0
   63.3901   35.4072   24.9477 H   0  0  0  0  0  0  0  0  0  0  0  0
   63.8321   33.6662   24.9477 H   0  0  0  0  0  0  0  0  0  0  0  0
   68.0094   35.8713   27.8644 H   0  0  0  0  0  0  0  0  0  0  0  0
   68.6395   38.1743   27.1076 H   0  0  0  0  0  0  0  0  0  0  0  0
   68.8320   39.0030   24.0010 H   0  0  0  0  0  0  0  0  0  0  0  0
   65.0148   37.8813   23.4987 H   0  0  0  0  0  0  0  0  0  0  0  0
   65.5673   38.6973   21.9968 H   0  0  0  0  0  0  0  0  0  0  0  0
   65.2614   36.9272   21.9968 H   0  0  0  0  0  0  0  0  0  0  0  0
   66.3353   35.0433   23.9460 H   0  0  0  0  0  0  0  0  0  0  0  0
  1  2  1  0
  2  3  1  0
  3  4  1  0
  4  5  1  0
  3  6  1  0
  6  7  2  0
  6  8  1  0
  8  9  2  0
  9 10  1  0
 10 11  2  0
 11 12  1  0
 11 13  1  0
 13 14  1  0
 14 15  1  0
 13 16  2  0
 16  8  1  0
  1 17  1  0
  1 18  1  0
  1 19  1  0
  2 20  1  0
  2 21  1  0
  4 22  1  0
  4 23  1  0
  5 24  1  0
  5 25  1  0
  5 26  1  0
  9 27  1  0
 10 28  1  0
 12 29  1  0
 15 30  1  0
 15 31  1  0
 15 32  1  0
 16 33  1  0
M  END
>  <meeko>  (9) 
{"is_sidechain": [false], "free_energy": -5.305, "intermolecular_energy": -6.721, "internal_energy": -0.422}

$$$$
