3dd0_ligand
     RDKit          3D

 26 27  0  0  0  0  0  0  0  0999 V2000
   -7.3240    1.0240   17.2740 C   0  0  0  0  0  0  0  0  0  0  0  0
   -6.0740    0.2340   17.6170 C   0  0  0  0  0  0  0  0  0  0  0  0
   -4.9420    1.0090   17.2250 O   0  0  0  0  0  0  0  0  0  0  0  0
   -4.7630    1.2260   15.8850 C   0  0  0  0  0  0  0  0  0  0  0  0
   -4.6000    0.2410   14.9150 C   0  0  0  0  0  0  0  0  0  0  0  0
   -4.4230    0.5870   13.5680 C   0  0  0  0  0  0  0  0  0  0  0  0
   -4.4090    1.9420   13.1840 C   0  0  0  0  0  0  0  0  0  0  0  0
   -4.2420    2.4180   11.8960 N   0  0  0  0  0  0  0  0  0  0  0  0
   -4.2950    3.7350   11.9120 C   0  0  0  0  0  0  0  0  0  0  0  0
   -4.1150    4.8140   10.5100 S   0  0  0  0  0  0  0  0  0  0  0  0
   -5.6020    5.5570   10.1980 N   0  0  0  0  0  0  0  0  0  0  0  0
   -3.8430    3.9840    9.3570 O   0  0  0  0  0  0  0  0  0  0  0  0
   -3.2380    5.8940   10.9010 O   0  0  0  0  0  0  0  0  0  0  0  0
   -4.5140    4.4740   13.4370 S   0  0  0  0  0  0  0  0  0  0  0  0
   -4.5730    2.9170   14.1700 C   0  0  0  0  0  0  0  0  0  0  0  0
   -4.7510    2.5790   15.5210 C   0  0  0  0  0  0  0  0  0  0  0  0
   -7.8240    1.3400   18.2014 H   0  0  0  0  0  0  0  0  0  0  0  0
   -7.0471    1.9115   16.6860 H   0  0  0  0  0  0  0  0  0  0  0  0
   -8.0067    0.3930   16.6860 H   0  0  0  0  0  0  0  0  0  0  0  0
   -6.0386    0.0425   18.6996 H   0  0  0  0  0  0  0  0  0  0  0  0
   -6.0763   -0.7325   17.0917 H   0  0  0  0  0  0  0  0  0  0  0  0
   -4.6102   -0.8192   15.2082 H   0  0  0  0  0  0  0  0  0  0  0  0
   -4.2950   -0.2003   12.8105 H   0  0  0  0  0  0  0  0  0  0  0  0
   -6.2430    4.8480    9.8350 H   0  0  0  0  0  0  0  0  0  0  0  0
   -5.9440    5.9750   11.0640 H   0  0  0  0  0  0  0  0  0  0  0  0
   -4.8790    3.3636   16.2813 H   0  0  0  0  0  0  0  0  0  0  0  0
  1  2  1  0
  2  3  1  0
  3  4  1  0
  4  5  2  0
  5  6  1  0
  6  7  2  0
  7  8  1  0
  8  9  2  0
  9 10  1  0
 10 11  1  0
 10 12  2  0
 10 13  2  0
  9 14  1  0
 14 15  1  0
 15 16  2  0
 16  4  1  0
 15  7  1  0
  1 17  1  0
  1 18  1  0
  1 19  1  0
  2 20  1  0
  2 21  1  0
  5 22  1  0
  6 23  1  0
 11 24  1  0
 11 25  1  0
 16 26  1  0
M  END
>  <meeko>  (1) 
{"is_sidechain": [false], "free_energy": -6.371, "intermolecular_energy": -7.674, "internal_energy": -0.182}

$$$$
3dd0_ligand
     RDKit          3D

 26 27  0  0  0  0  0  0  0  0999 V2000
   -2.2390    8.7040   14.6950 C   0  0  0  0  0  0  0  0  0  0  0  0
   -2.2390    7.9360   13.3850 C   0  0  0  0  0  0  0  0  0  0  0  0
   -3.4260    7.1450   13.3390 O   0  0  0  0  0  0  0  0  0  0  0  0
   -3.4050    5.9410   13.9890 C   0  0  0  0  0  0  0  0  0  0  0  0
   -2.2640    5.2170   14.3260 C   0  0  0  0  0  0  0  0  0  0  0  0
   -2.3690    3.9900   14.9950 C   0  0  0  0  0  0  0  0  0  0  0  0
   -3.6360    3.4770   15.3330 C   0  0  0  0  0  0  0  0  0  0  0  0
   -3.8800    2.2830   15.9890 N   0  0  0  0  0  0  0  0  0  0  0  0
   -5.1800    2.1340   16.1470 C   0  0  0  0  0  0  0  0  0  0  0  0
   -5.9970    0.7540   16.9140 S   0  0  0  0  0  0  0  0  0  0  0  0
   -5.6830    0.7880   18.5750 N   0  0  0  0  0  0  0  0  0  0  0  0
   -5.3660   -0.4500   16.4220 O   0  0  0  0  0  0  0  0  0  0  0  0
   -7.4210    0.9740   16.8030 O   0  0  0  0  0  0  0  0  0  0  0  0
   -6.1750    3.3700   15.5110 S   0  0  0  0  0  0  0  0  0  0  0  0
   -4.7700    4.2160   14.9880 C   0  0  0  0  0  0  0  0  0  0  0  0
   -4.6730    5.4460   14.3180 C   0  0  0  0  0  0  0  0  0  0  0  0
   -1.2019    8.8894   15.0113 H   0  0  0  0  0  0  0  0  0  0  0  0
   -2.7575    9.6643   14.5571 H   0  0  0  0  0  0  0  0  0  0  0  0
   -2.7575    8.1146   15.4656 H   0  0  0  0  0  0  0  0  0  0  0  0
   -2.2260    8.6396   12.5395 H   0  0  0  0  0  0  0  0  0  0  0  0
   -1.3484    7.2939   13.3178 H   0  0  0  0  0  0  0  0  0  0  0  0
   -1.2712    5.6119   14.0646 H   0  0  0  0  0  0  0  0  0  0  0  0
   -1.4607    3.4271   15.2563 H   0  0  0  0  0  0  0  0  0  0  0  0
   -5.4700   -0.1630   18.8800 H   0  0  0  0  0  0  0  0  0  0  0  0
   -4.9060    1.4290   18.7460 H   0  0  0  0  0  0  0  0  0  0  0  0
   -5.5789    6.0121   14.0556 H   0  0  0  0  0  0  0  0  0  0  0  0
  1  2  1  0
  2  3  1  0
  3  4  1  0
  4  5  2  0
  5  6  1  0
  6  7  2  0
  7  8  1  0
  8  9  2  0
  9 10  1  0
 10 11  1  0
 10 12  2  0
 10 13  2  0
  9 14  1  0
 14 15  1  0
 15 16  2  0
 16  4  1  0
 15  7  1  0
  1 17  1  0
  1 18  1  0
  1 19  1  0
  2 20  1  0
  2 21  1  0
  5 22  1  0
  6 23  1  0
 11 24  1  0
 11 25  1  0
 16 26  1  0
M  END
>  <meeko>  (2) 
{"is_sidechain": [false], "free_energy": -6.294, "intermolecular_energy": -7.56, "internal_energy": -0.204}

$$$$
3dd0_ligand
     RDKit          3D

 26 27  0  0  0  0  0  0  0  0999 V2000
   -7.4140    0.8720   17.1650 C   0  0  0  0  0  0  0  0  0  0  0  0
   -6.0470    0.3550   17.5760 C   0  0  0  0  0  0  0  0  0  0  0  0
   -5.3090    0.0690   16.3890 O   0  0  0  0  0  0  0  0  0  0  0  0
   -4.8120    1.1330   15.6850 C   0  0  0  0  0  0  0  0  0  0  0  0
   -4.2080    2.2610   16.2340 C   0  0  0  0  0  0  0  0  0  0  0  0
   -3.7360    3.2910   15.4070 C   0  0  0  0  0  0  0  0  0  0  0  0
   -3.8710    3.1910   14.0090 C   0  0  0  0  0  0  0  0  0  0  0  0
   -3.4530    4.1320   13.0850 N   0  0  0  0  0  0  0  0  0  0  0  0
   -3.7310    3.6980   11.8710 C   0  0  0  0  0  0  0  0  0  0  0  0
   -3.4080    4.5550   10.3470 S   0  0  0  0  0  0  0  0  0  0  0  0
   -1.8050    4.2670    9.8880 N   0  0  0  0  0  0  0  0  0  0  0  0
   -3.4850    5.9720   10.6220 O   0  0  0  0  0  0  0  0  0  0  0  0
   -4.2050    3.9290    9.3180 O   0  0  0  0  0  0  0  0  0  0  0  0
   -4.5180    2.1860   11.7600 S   0  0  0  0  0  0  0  0  0  0  0  0
   -4.4800    2.0530   13.4770 C   0  0  0  0  0  0  0  0  0  0  0  0
   -4.9550    1.0170   14.2970 C   0  0  0  0  0  0  0  0  0  0  0  0
   -8.0068    1.0962   18.0641 H   0  0  0  0  0  0  0  0  0  0  0  0
   -7.2951    1.7873   16.5666 H   0  0  0  0  0  0  0  0  0  0  0  0
   -7.9306    0.1071   16.5666 H   0  0  0  0  0  0  0  0  0  0  0  0
   -5.5213    1.1190   18.1675 H   0  0  0  0  0  0  0  0  0  0  0  0
   -6.1500   -0.5519   18.1899 H   0  0  0  0  0  0  0  0  0  0  0  0
   -4.1000    2.3452   17.3254 H   0  0  0  0  0  0  0  0  0  0  0  0
   -3.2599    4.1777   15.8510 H   0  0  0  0  0  0  0  0  0  0  0  0
   -1.7250    3.2870    9.6090 H   0  0  0  0  0  0  0  0  0  0  0  0
   -1.5670    4.9030    9.1260 H   0  0  0  0  0  0  0  0  0  0  0  0
   -5.4316    0.1289   13.8563 H   0  0  0  0  0  0  0  0  0  0  0  0
  1  2  1  0
  2  3  1  0
  3  4  1  0
  4  5  2  0
  5  6  1  0
  6  7  2  0
  7  8  1  0
  8  9  2  0
  9 10  1  0
 10 11  1  0
 10 12  2  0
 10 13  2  0
  9 14  1  0
 14 15  1  0
 15 16  2  0
 16  4  1  0
 15  7  1  0
  1 17  1  0
  1 18  1  0
  1 19  1  0
  2 20  1  0
  2 21  1  0
  5 22  1  0
  6 23  1  0
 11 24  1  0
 11 25  1  0
 16 26  1  0
M  END
>  <meeko>  (3) 
{"is_sidechain": [false], "free_energy": -6.04, "intermolecular_energy": -7.199, "internal_energy": -0.259}

$$$$
3dd0_ligand
     RDKit          3D

 26 27  0  0  0  0  0  0  0  0999 V2000
   -2.5840    4.6030   10.3930 C   0  0  0  0  0  0  0  0  0  0  0  0
   -1.7690    4.5510   11.6730 C   0  0  0  0  0  0  0  0  0  0  0  0
   -2.3220    5.4970   12.5860 O   0  0  0  0  0  0  0  0  0  0  0  0
   -3.3970    5.0960   13.3330 C   0  0  0  0  0  0  0  0  0  0  0  0
   -4.6290    5.7410   13.3990 C   0  0  0  0  0  0  0  0  0  0  0  0
   -5.6580    5.2320   14.2050 C   0  0  0  0  0  0  0  0  0  0  0  0
   -5.4510    4.0600   14.9570 C   0  0  0  0  0  0  0  0  0  0  0  0
   -6.3770    3.4560   15.7880 N   0  0  0  0  0  0  0  0  0  0  0  0
   -5.8420    2.3740   16.3180 C   0  0  0  0  0  0  0  0  0  0  0  0
   -6.6230    1.2670   17.4690 S   0  0  0  0  0  0  0  0  0  0  0  0
   -5.7690   -0.1930   17.4880 N   0  0  0  0  0  0  0  0  0  0  0  0
   -7.9310    0.9460   16.9410 O   0  0  0  0  0  0  0  0  0  0  0  0
   -6.4440    1.8170   18.7930 O   0  0  0  0  0  0  0  0  0  0  0  0
   -4.2240    2.0310   15.8880 S   0  0  0  0  0  0  0  0  0  0  0  0
   -4.2090    3.4270   14.8790 C   0  0  0  0  0  0  0  0  0  0  0  0
   -3.1730    3.9290   14.0750 C   0  0  0  0  0  0  0  0  0  0  0  0
   -3.6533    4.6712   10.6417 H   0  0  0  0  0  0  0  0  0  0  0  0
   -2.2874    5.4840    9.8050 H   0  0  0  0  0  0  0  0  0  0  0  0
   -2.4017    3.6914    9.8050 H   0  0  0  0  0  0  0  0  0  0  0  0
   -1.8183    3.5411   12.1063 H   0  0  0  0  0  0  0  0  0  0  0  0
   -0.7157    4.7907   11.4655 H   0  0  0  0  0  0  0  0  0  0  0  0
   -4.7969    6.6574   12.8142 H   0  0  0  0  0  0  0  0  0  0  0  0
   -6.6278    5.7492   14.2495 H   0  0  0  0  0  0  0  0  0  0  0  0
   -6.2220   -0.8190   18.1570 H   0  0  0  0  0  0  0  0  0  0  0  0
   -5.7640   -0.5790   16.5430 H   0  0  0  0  0  0  0  0  0  0  0  0
   -2.2018    3.4146   14.0286 H   0  0  0  0  0  0  0  0  0  0  0  0
  1  2  1  0
  2  3  1  0
  3  4  1  0
  4  5  2  0
  5  6  1  0
  6  7  2  0
  7  8  1  0
  8  9  2  0
  9 10  1  0
 10 11  1  0
 10 12  2  0
 10 13  2  0
  9 14  1  0
 14 15  1  0
 15 16  2  0
 16  4  1  0
 15  7  1  0
  1 17  1  0
  1 18  1  0
  1 19  1  0
  2 20  1  0
  2 21  1  0
  5 22  1  0
  6 23  1  0
 11 24  1  0
 11 25  1  0
 16 26  1  0
M  END
>  <meeko>  (4) 
{"is_sidechain": [false], "free_energy": -5.999, "intermolecular_energy": -7.118, "internal_energy": -0.291}

$$$$
3dd0_ligand
     RDKit          3D

 26 27  0  0  0  0  0  0  0  0999 V2000
   -7.3090    0.7450   17.3990 C   0  0  0  0  0  0  0  0  0  0  0  0
   -6.1960    1.5630   18.0290 C   0  0  0  0  0  0  0  0  0  0  0  0
   -5.1220    1.6380   17.0920 O   0  0  0  0  0  0  0  0  0  0  0  0
   -5.2330    2.5550   16.0810 C   0  0  0  0  0  0  0  0  0  0  0  0
   -6.0310    3.6950   16.1000 C   0  0  0  0  0  0  0  0  0  0  0  0
   -6.0620    4.5630   14.9990 C   0  0  0  0  0  0  0  0  0  0  0  0
   -5.2820    4.2860   13.8610 C   0  0  0  0  0  0  0  0  0  0  0  0
   -5.2210    5.0540   12.7120 N   0  0  0  0  0  0  0  0  0  0  0  0
   -4.3800    4.4980   11.8630 C   0  0  0  0  0  0  0  0  0  0  0  0
   -3.9750    5.0940   10.2380 S   0  0  0  0  0  0  0  0  0  0  0  0
   -5.2960    5.9550    9.6270 N   0  0  0  0  0  0  0  0  0  0  0  0
   -3.8280    3.9410    9.3770 O   0  0  0  0  0  0  0  0  0  0  0  0
   -2.9280    6.0800   10.3840 O   0  0  0  0  0  0  0  0  0  0  0  0
   -3.6450    3.0370   12.3600 S   0  0  0  0  0  0  0  0  0  0  0  0
   -4.4870    3.1380   13.8590 C   0  0  0  0  0  0  0  0  0  0  0  0
   -4.4500    2.2630   14.9570 C   0  0  0  0  0  0  0  0  0  0  0  0
   -7.9246    0.2926   18.1904 H   0  0  0  0  0  0  0  0  0  0  0  0
   -7.9363    1.3986   16.7751 H   0  0  0  0  0  0  0  0  0  0  0  0
   -6.8725   -0.0488   16.7751 H   0  0  0  0  0  0  0  0  0  0  0  0
   -6.5609    2.5745   18.2609 H   0  0  0  0  0  0  0  0  0  0  0  0
   -5.8568    1.0925   18.9636 H   0  0  0  0  0  0  0  0  0  0  0  0
   -6.6430    3.9172   16.9866 H   0  0  0  0  0  0  0  0  0  0  0  0
   -6.6966    5.4611   15.0250 H   0  0  0  0  0  0  0  0  0  0  0  0
   -5.1250    6.1430    8.6370 H   0  0  0  0  0  0  0  0  0  0  0  0
   -6.1410    5.3990    9.7710 H   0  0  0  0  0  0  0  0  0  0  0  0
   -3.8169    1.3637   14.9346 H   0  0  0  0  0  0  0  0  0  0  0  0
  1  2  1  0
  2  3  1  0
  3  4  1  0
  4  5  2  0
  5  6  1  0
  6  7  2  0
  7  8  1  0
  8  9  2  0
  9 10  1  0
 10 11  1  0
 10 12  2  0
 10 13  2  0
  9 14  1  0
 14 15  1  0
 15 16  2  0
 16  4  1  0
 15  7  1  0
  1 17  1  0
  1 18  1  0
  1 19  1  0
  2 20  1  0
  2 21  1  0
  5 22  1  0
  6 23  1  0
 11 24  1  0
 11 25  1  0
 16 26  1  0
M  END
>  <meeko>  (5) 
{"is_sidechain": [false], "free_energy": -5.753, "intermolecular_energy": -6.93, "internal_energy": -0.183}

$$$$
3dd0_ligand
     RDKit          3D

 26 27  0  0  0  0  0  0  0  0999 V2000
   -7.0560    7.1160    9.9770 C   0  0  0  0  0  0  0  0  0  0  0  0
   -6.3110    7.7340   11.1470 C   0  0  0  0  0  0  0  0  0  0  0  0
   -4.9570    7.2900   11.0900 O   0  0  0  0  0  0  0  0  0  0  0  0
   -4.6940    6.0180   11.5240 C   0  0  0  0  0  0  0  0  0  0  0  0
   -4.0980    5.0080   10.7720 C   0  0  0  0  0  0  0  0  0  0  0  0
   -3.8800    3.7400   11.3280 C   0  0  0  0  0  0  0  0  0  0  0  0
   -4.2630    3.4760   12.6570 C   0  0  0  0  0  0  0  0  0  0  0  0
   -4.1070    2.2740   13.3230 N   0  0  0  0  0  0  0  0  0  0  0  0
   -4.5670    2.3970   14.5520 C   0  0  0  0  0  0  0  0  0  0  0  0
   -4.6080    1.1260   15.7940 S   0  0  0  0  0  0  0  0  0  0  0  0
   -4.4930   -0.3820   15.0360 N   0  0  0  0  0  0  0  0  0  0  0  0
   -5.9190    1.1580   16.4030 O   0  0  0  0  0  0  0  0  0  0  0  0
   -3.3970    1.2400   16.5750 O   0  0  0  0  0  0  0  0  0  0  0  0
   -5.2270    3.9160   14.9740 S   0  0  0  0  0  0  0  0  0  0  0  0
   -4.8590    4.5010   13.3960 C   0  0  0  0  0  0  0  0  0  0  0  0
   -5.0820    5.7740   12.8470 C   0  0  0  0  0  0  0  0  0  0  0  0
   -7.8509    6.4566   10.3556 H   0  0  0  0  0  0  0  0  0  0  0  0
   -7.5018    7.9131    9.3639 H   0  0  0  0  0  0  0  0  0  0  0  0
   -6.3550    6.5306    9.3639 H   0  0  0  0  0  0  0  0  0  0  0  0
   -6.3476    8.8311   11.0756 H   0  0  0  0  0  0  0  0  0  0  0  0
   -6.7733    7.4309   12.0980 H   0  0  0  0  0  0  0  0  0  0  0  0
   -3.7960    5.2073    9.7332 H   0  0  0  0  0  0  0  0  0  0  0  0
   -3.4089    2.9497   10.7251 H   0  0  0  0  0  0  0  0  0  0  0  0
   -4.4310   -1.1000   15.7610 H   0  0  0  0  0  0  0  0  0  0  0  0
   -5.3120   -0.5090   14.4390 H   0  0  0  0  0  0  0  0  0  0  0  0
   -5.5538    6.5665   13.4465 H   0  0  0  0  0  0  0  0  0  0  0  0
  1  2  1  0
  2  3  1  0
  3  4  1  0
  4  5  2  0
  5  6  1  0
  6  7  2  0
  7  8  1  0
  8  9  2  0
  9 10  1  0
 10 11  1  0
 10 12  2  0
 10 13  2  0
  9 14  1  0
 14 15  1  0
 15 16  2  0
 16  4  1  0
 15  7  1  0
  1 17  1  0
  1 18  1  0
  1 19  1  0
  2 20  1  0
  2 21  1  0
  5 22  1  0
  6 23  1  0
 11 24  1  0
 11 25  1  0
 16 26  1  0
M  END
>  <meeko>  (6) 
{"is_sidechain": [false], "free_energy": -5.662, "intermolecular_energy": -6.72, "internal_energy": -0.283}

$$$$
3dd0_ligand
     RDKit          3D

 26 27  0  0  0  0  0  0  0  0999 V2000
   -6.4650    1.7010   18.5430 C   0  0  0  0  0  0  0  0  0  0  0  0
   -6.8560    1.1460   17.1860 C   0  0  0  0  0  0  0  0  0  0  0  0
   -5.7390    1.2930   16.3110 O   0  0  0  0  0  0  0  0  0  0  0  0
   -5.5050    2.5390   15.7940 C   0  0  0  0  0  0  0  0  0  0  0  0
   -6.4750    3.4950   15.5050 C   0  0  0  0  0  0  0  0  0  0  0  0
   -6.1120    4.7410   14.9750 C   0  0  0  0  0  0  0  0  0  0  0  0
   -4.7570    5.0360   14.7300 C   0  0  0  0  0  0  0  0  0  0  0  0
   -4.2650    6.2210   14.2110 N   0  0  0  0  0  0  0  0  0  0  0  0
   -2.9510    6.1460   14.1310 C   0  0  0  0  0  0  0  0  0  0  0  0
   -1.8600    7.4040   13.5100 S   0  0  0  0  0  0  0  0  0  0  0  0
   -0.5050    6.6610   12.8230 N   0  0  0  0  0  0  0  0  0  0  0  0
   -1.3630    8.1460   14.6470 O   0  0  0  0  0  0  0  0  0  0  0  0
   -2.5270    8.0510   12.4030 O   0  0  0  0  0  0  0  0  0  0  0  0
   -2.2360    4.6770   14.6340 S   0  0  0  0  0  0  0  0  0  0  0  0
   -3.7980    4.0650   15.0260 C   0  0  0  0  0  0  0  0  0  0  0  0
   -4.1530    2.8140   15.5570 C   0  0  0  0  0  0  0  0  0  0  0  0
   -6.9047    1.0769   19.3349 H   0  0  0  0  0  0  0  0  0  0  0  0
   -5.3692    1.6970   18.6389 H   0  0  0  0  0  0  0  0  0  0  0  0
   -6.8377    2.7315   18.6389 H   0  0  0  0  0  0  0  0  0  0  0  0
   -7.1194    0.0821   17.2796 H   0  0  0  0  0  0  0  0  0  0  0  0
   -7.7269    1.6876   16.7882 H   0  0  0  0  0  0  0  0  0  0  0  0
   -7.5352    3.2707   15.6941 H   0  0  0  0  0  0  0  0  0  0  0  0
   -6.8865    5.4891   14.7502 H   0  0  0  0  0  0  0  0  0  0  0  0
   -0.7780    6.2730   11.9180 H   0  0  0  0  0  0  0  0  0  0  0  0
    0.2370    7.3570   12.7330 H   0  0  0  0  0  0  0  0  0  0  0  0
   -3.3816    2.0630   15.7828 H   0  0  0  0  0  0  0  0  0  0  0  0
  1  2  1  0
  2  3  1  0
  3  4  1  0
  4  5  2  0
  5  6  1  0
  6  7  2  0
  7  8  1  0
  8  9  2  0
  9 10  1  0
 10 11  1  0
 10 12  2  0
 10 13  2  0
  9 14  1  0
 14 15  1  0
 15 16  2  0
 16  4  1  0
 15  7  1  0
  1 17  1  0
  1 18  1  0
  1 19  1  0
  2 20  1  0
  2 21  1  0
  5 22  1  0
  6 23  1  0
 11 24  1  0
 11 25  1  0
 16 26  1  0
M  END
>  <meeko>  (7) 
{"is_sidechain": [false], "free_energy": -5.505, "intermolecular_energy": -6.591, "internal_energy": -0.222}

$$$$
3dd0_ligand
     RDKit          3D

 26 27  0  0  0  0  0  0  0  0999 V2000
   -1.9180   10.0600   14.7730 C   0  0  0  0  0  0  0  0  0  0  0  0
   -1.2480    8.8970   14.0630 C   0  0  0  0  0  0  0  0  0  0  0  0
   -2.0220    8.5830   12.9070 O   0  0  0  0  0  0  0  0  0  0  0  0
   -2.8180    7.4710   12.9670 C   0  0  0  0  0  0  0  0  0  0  0  0
   -3.9500    7.2370   12.1910 C   0  0  0  0  0  0  0  0  0  0  0  0
   -4.6880    6.0540   12.3430 C   0  0  0  0  0  0  0  0  0  0  0  0
   -4.2870    5.0890   13.2880 C   0  0  0  0  0  0  0  0  0  0  0  0
   -4.9220    3.8870   13.5380 N   0  0  0  0  0  0  0  0  0  0  0  0
   -4.2620    3.2350   14.4750 C   0  0  0  0  0  0  0  0  0  0  0  0
   -4.6920    1.6520   15.1600 S   0  0  0  0  0  0  0  0  0  0  0  0
   -3.5990    1.2770   16.3950 N   0  0  0  0  0  0  0  0  0  0  0  0
   -4.4720    0.6610   14.1310 O   0  0  0  0  0  0  0  0  0  0  0  0
   -5.9660    1.7970   15.8260 O   0  0  0  0  0  0  0  0  0  0  0  0
   -2.8850    4.0130   15.1230 S   0  0  0  0  0  0  0  0  0  0  0  0
   -3.1490    5.3410   14.0570 C   0  0  0  0  0  0  0  0  0  0  0  0
   -2.4040    6.5220   13.9110 C   0  0  0  0  0  0  0  0  0  0  0  0
   -1.8377    9.9206   15.8612 H   0  0  0  0  0  0  0  0  0  0  0  0
   -1.4226   10.9993   14.4861 H   0  0  0  0  0  0  0  0  0  0  0  0
   -2.9791   10.1026   14.4861 H   0  0  0  0  0  0  0  0  0  0  0  0
   -0.2278    9.1796   13.7640 H   0  0  0  0  0  0  0  0  0  0  0  0
   -1.1866    8.0251   14.7308 H   0  0  0  0  0  0  0  0  0  0  0  0
   -4.2685    7.9868   11.4519 H   0  0  0  0  0  0  0  0  0  0  0  0
   -5.5804    5.8795   11.7240 H   0  0  0  0  0  0  0  0  0  0  0  0
   -3.6330    0.2680   16.5570 H   0  0  0  0  0  0  0  0  0  0  0  0
   -2.6680    1.5880   16.1120 H   0  0  0  0  0  0  0  0  0  0  0  0
   -1.5103    6.6993   14.5274 H   0  0  0  0  0  0  0  0  0  0  0  0
  1  2  1  0
  2  3  1  0
  3  4  1  0
  4  5  2  0
  5  6  1  0
  6  7  2  0
  7  8  1  0
  8  9  2  0
  9 10  1  0
 10 11  1  0
 10 12  2  0
 10 13  2  0
  9 14  1  0
 14 15  1  0
 15 16  2  0
 16  4  1  0
 15  7  1  0
  1 17  1  0
  1 18  1  0
  1 19  1  0
  2 20  1  0
  2 21  1  0
  5 22  1  0
  6 23  1  0
 11 24  1  0
 11 25  1  0
 16 26  1  0
M  END
>  <meeko>  (8) 
{"is_sidechain": [false], "free_energy": -5.354, "intermolecular_energy": -6.385, "internal_energy": -0.246}

$$$$
3dd0_ligand
     RDKit          3D

 26 27  0  0  0  0  0  0  0  0999 V2000
   -6.5800    2.5670   16.6300 C   0  0  0  0  0  0  0  0  0  0  0  0
   -5.3520    1.6750   16.6110 C   0  0  0  0  0  0  0  0  0  0  0  0
   -4.3020    2.3850   15.9570 O   0  0  0  0  0  0  0  0  0  0  0  0
   -4.3490    2.4590   14.5910 C   0  0  0  0  0  0  0  0  0  0  0  0
   -4.6840    1.4170   13.7300 C   0  0  0  0  0  0  0  0  0  0  0  0
   -4.6980    1.6130   12.3420 C   0  0  0  0  0  0  0  0  0  0  0  0
   -4.3700    2.8730   11.8050 C   0  0  0  0  0  0  0  0  0  0  0  0
   -4.3430    3.2000   10.4610 N   0  0  0  0  0  0  0  0  0  0  0  0
   -4.0070    4.4680   10.3310 C   0  0  0  0  0  0  0  0  0  0  0  0
   -3.8160    5.3550    8.8030 S   0  0  0  0  0  0  0  0  0  0  0  0
   -2.8490    6.7160    9.0790 N   0  0  0  0  0  0  0  0  0  0  0  0
   -5.1160    5.8690    8.4340 O   0  0  0  0  0  0  0  0  0  0  0  0
   -3.0380    4.5250    7.9110 O   0  0  0  0  0  0  0  0  0  0  0  0
   -3.6810    5.3250   11.7730 S   0  0  0  0  0  0  0  0  0  0  0  0
   -4.0360    3.9070   12.6830 C   0  0  0  0  0  0  0  0  0  0  0  0
   -4.0200    3.7180   14.0740 C   0  0  0  0  0  0  0  0  0  0  0  0
   -6.8661    2.7748   17.6716 H   0  0  0  0  0  0  0  0  0  0  0  0
   -6.3541    3.5130   16.1161 H   0  0  0  0  0  0  0  0  0  0  0  0
   -7.4097    2.0596   16.1161 H   0  0  0  0  0  0  0  0  0  0  0  0
   -5.0523    1.4303   17.6407 H   0  0  0  0  0  0  0  0  0  0  0  0
   -5.5689    0.7373   16.0785 H   0  0  0  0  0  0  0  0  0  0  0  0
   -4.9402    0.4303   14.1432 H   0  0  0  0  0  0  0  0  0  0  0  0
   -4.9652    0.7825   11.6721 H   0  0  0  0  0  0  0  0  0  0  0  0
   -2.9690    7.3580    8.2920 H   0  0  0  0  0  0  0  0  0  0  0  0
   -3.1300    7.1390    9.9650 H   0  0  0  0  0  0  0  0  0  0  0  0
   -3.7532    4.5460   14.7472 H   0  0  0  0  0  0  0  0  0  0  0  0
  1  2  1  0
  2  3  1  0
  3  4  1  0
  4  5  2  0
  5  6  1  0
  6  7  2  0
  7  8  1  0
  8  9  2  0
  9 10  1  0
 10 11  1  0
 10 12  2  0
 10 13  2  0
  9 14  1  0
 14 15  1  0
 15 16  2  0
 16  4  1  0
 15  7  1  0
  1 17  1  0
  1 18  1  0
  1 19  1  0
  2 20  1  0
  2 21  1  0
  5 22  1  0
  6 23  1  0
 11 24  1  0
 11 25  1  0
 16 26  1  0
M  END
>  <meeko>  (9) 
{"is_sidechain": [false], "free_energy": -5.241, "intermolecular_energy": -6.227, "internal_energy": -0.269}

$$$$
