4cr9_ligand
     RDKit          3D

 25 26  0  0  0  0  0  0  0  0999 V2000
   53.7910   19.9740   11.7130 C   0  0  0  0  0  0  0  0  0  0  0  0
   52.8230   21.1240   11.8230 C   0  0  0  0  0  0  0  0  0  0  0  0
   53.3250   22.4190   12.0000 C   0  0  0  0  0  0  0  0  0  0  0  0
   52.4590   23.5030   12.0880 C   0  0  0  0  0  0  0  0  0  0  0  0
   52.9260   24.7840   12.3160 N   0  0  0  0  0  0  0  0  0  0  0  0
   51.1430   23.2790   12.0540 N   0  0  0  0  0  0  0  0  0  0  0  0
   50.5880   22.0650   11.8890 C   0  0  0  0  0  0  0  0  0  0  0  0
   49.1950   21.9370   11.8320 C   0  0  0  0  0  0  0  0  0  0  0  0
   48.6150   20.6810   11.6520 C   0  0  0  0  0  0  0  0  0  0  0  0
   49.4060   19.5360   11.5710 C   0  0  0  0  0  0  0  0  0  0  0  0
   48.8300   18.3090   11.2540 N   0  0  0  0  0  0  0  0  0  0  0  0
   50.7990   19.6770   11.5830 C   0  0  0  0  0  0  0  0  0  0  0  0
   51.4230   20.9320   11.7630 C   0  0  0  0  0  0  0  0  0  0  0  0
   54.0752   19.6363   12.7206 H   0  0  0  0  0  0  0  0  0  0  0  0
   53.3150   19.1448   11.1691 H   0  0  0  0  0  0  0  0  0  0  0  0
   54.6892   20.3016   11.1691 H   0  0  0  0  0  0  0  0  0  0  0  0
   54.4110   22.5797   12.0698 H   0  0  0  0  0  0  0  0  0  0  0  0
   52.9030   25.4030   11.5060 H   0  0  0  0  0  0  0  0  0  0  0  0
   52.7070   25.2750   13.1740 H   0  0  0  0  0  0  0  0  0  0  0  0
   50.5320   24.0790   12.1680 H   0  0  0  0  0  0  0  0  0  0  0  0
   48.5571   22.8278   11.9293 H   0  0  0  0  0  0  0  0  0  0  0  0
   47.5214   20.5932   11.5731 H   0  0  0  0  0  0  0  0  0  0  0  0
   48.4290   18.2370   10.3220 H   0  0  0  0  0  0  0  0  0  0  0  0
   48.2150   17.9120   11.9590 H   0  0  0  0  0  0  0  0  0  0  0  0
   51.4266   18.7838   11.4482 H   0  0  0  0  0  0  0  0  0  0  0  0
  1  2  1  0
  2  3  2  0
  3  4  1  0
  4  5  1  0
  4  6  2  0
  6  7  1  0
  7  8  2  0
  8  9  1  0
  9 10  2  0
 10 11  1  0
 10 12  1  0
 12 13  2  0
 13  2  1  0
 13  7  1  0
  1 14  1  0
  1 15  1  0
  1 16  1  0
  3 17  1  0
  5 18  1  0
  5 19  1  0
  6 20  1  0
  8 21  1  0
  9 22  1  0
 11 23  1  0
 11 24  1  0
 12 25  1  0
M  CHG  1   6   1
M  END
>  <meeko>  (1) 
{"is_sidechain": [false], "free_energy": -6.894, "intermolecular_energy": -7.297, "internal_energy": 0.0}

$$$$
4cr9_ligand
     RDKit          3D

 25 26  0  0  0  0  0  0  0  0999 V2000
   49.2620   23.0990   11.6450 C   0  0  0  0  0  0  0  0  0  0  0  0
   49.6160   21.6360   11.6990 C   0  0  0  0  0  0  0  0  0  0  0  0
   48.5890   20.6860   11.6190 C   0  0  0  0  0  0  0  0  0  0  0  0
   48.8850   19.3270   11.6490 C   0  0  0  0  0  0  0  0  0  0  0  0
   47.8870   18.3710   11.6260 N   0  0  0  0  0  0  0  0  0  0  0  0
   50.1550   18.9490   11.8070 N   0  0  0  0  0  0  0  0  0  0  0  0
   51.1920   19.8010   11.8930 C   0  0  0  0  0  0  0  0  0  0  0  0
   52.4940   19.3050   12.0230 C   0  0  0  0  0  0  0  0  0  0  0  0
   53.5740   20.1860   12.1030 C   0  0  0  0  0  0  0  0  0  0  0  0
   53.3700   21.5640   12.0990 C   0  0  0  0  0  0  0  0  0  0  0  0
   54.4580   22.4320   12.0390 N   0  0  0  0  0  0  0  0  0  0  0  0
   52.0700   22.0540   11.9220 C   0  0  0  0  0  0  0  0  0  0  0  0
   50.9520   21.1930   11.8370 C   0  0  0  0  0  0  0  0  0  0  0  0
   49.1671   23.4913   12.6683 H   0  0  0  0  0  0  0  0  0  0  0  0
   50.0531   23.6483   11.1136 H   0  0  0  0  0  0  0  0  0  0  0  0
   48.3072   23.2259   11.1136 H   0  0  0  0  0  0  0  0  0  0  0  0
   47.5434   21.0165   11.5320 H   0  0  0  0  0  0  0  0  0  0  0  0
   47.0570   18.6250   11.0900 H   0  0  0  0  0  0  0  0  0  0  0  0
   48.1080   17.3870   11.5360 H   0  0  0  0  0  0  0  0  0  0  0  0
   50.3390   17.9550   11.8740 H   0  0  0  0  0  0  0  0  0  0  0  0
   52.6668   18.2194   12.0622 H   0  0  0  0  0  0  0  0  0  0  0  0
   54.5972   19.7877   12.1699 H   0  0  0  0  0  0  0  0  0  0  0  0
   54.2430   23.4190   12.1530 H   0  0  0  0  0  0  0  0  0  0  0  0
   55.1090   22.2740   11.2750 H   0  0  0  0  0  0  0  0  0  0  0  0
   51.9144   23.1403   11.8469 H   0  0  0  0  0  0  0  0  0  0  0  0
  1  2  1  0
  2  3  2  0
  3  4  1  0
  4  5  1  0
  4  6  2  0
  6  7  1  0
  7  8  2  0
  8  9  1  0
  9 10  2  0
 10 11  1  0
 10 12  1  0
 12 13  2  0
 13  2  1  0
 13  7  1  0
  1 14  1  0
  1 15  1  0
  1 16  1  0
  3 17  1  0
  5 18  1  0
  5 19  1  0
  6 20  1  0
  8 21  1  0
  9 22  1  0
 11 23  1  0
 11 24  1  0
 12 25  1  0
M  CHG  1   6   1
M  END
>  <meeko>  (2) 
{"is_sidechain": [false], "free_energy": -6.611, "intermolecular_energy": -6.998, "internal_energy": 0.0}

$$$$
4cr9_ligand
     RDKit          3D

 25 26  0  0  0  0  0  0  0  0999 V2000
   54.4150   20.8750   11.3960 C   0  0  0  0  0  0  0  0  0  0  0  0
   53.3790   21.8770   11.8360 C   0  0  0  0  0  0  0  0  0  0  0  0
   53.7960   23.1580   12.2230 C   0  0  0  0  0  0  0  0  0  0  0  0
   52.8630   24.1110   12.6180 C   0  0  0  0  0  0  0  0  0  0  0  0
   53.2520   25.3620   13.0560 N   0  0  0  0  0  0  0  0  0  0  0  0
   51.5740   23.7660   12.6700 N   0  0  0  0  0  0  0  0  0  0  0  0
   51.1010   22.5580   12.3160 C   0  0  0  0  0  0  0  0  0  0  0  0
   49.7250   22.3040   12.3730 C   0  0  0  0  0  0  0  0  0  0  0  0
   49.2290   21.0550   11.9980 C   0  0  0  0  0  0  0  0  0  0  0  0
   50.0920   20.0340   11.6050 C   0  0  0  0  0  0  0  0  0  0  0  0
   49.5800   18.8410   11.1020 N   0  0  0  0  0  0  0  0  0  0  0  0
   51.4610   20.3090   11.5070 C   0  0  0  0  0  0  0  0  0  0  0  0
   52.0010   21.5620   11.8780 C   0  0  0  0  0  0  0  0  0  0  0  0
   54.8847   20.4207   12.2808 H   0  0  0  0  0  0  0  0  0  0  0  0
   53.9338   20.0909   10.7930 H   0  0  0  0  0  0  0  0  0  0  0  0
   55.1827   21.3820   10.7930 H   0  0  0  0  0  0  0  0  0  0  0  0
   54.8665   23.4109   12.2143 H   0  0  0  0  0  0  0  0  0  0  0  0
   54.0510   25.3710   13.6900 H   0  0  0  0  0  0  0  0  0  0  0  0
   53.2600   26.1560   12.4280 H   0  0  0  0  0  0  0  0  0  0  0  0
   50.9200   24.4620   13.0060 H   0  0  0  0  0  0  0  0  0  0  0  0
   49.0347   23.0898   12.7137 H   0  0  0  0  0  0  0  0  0  0  0  0
   48.1441   20.8742   12.0128 H   0  0  0  0  0  0  0  0  0  0  0  0
   49.0230   18.2900   11.7500 H   0  0  0  0  0  0  0  0  0  0  0  0
   50.2350   18.2620   10.5820 H   0  0  0  0  0  0  0  0  0  0  0  0
   52.1368   19.5271   11.1302 H   0  0  0  0  0  0  0  0  0  0  0  0
  1  2  1  0
  2  3  2  0
  3  4  1  0
  4  5  1  0
  4  6  2  0
  6  7  1  0
  7  8  2  0
  8  9  1  0
  9 10  2  0
 10 11  1  0
 10 12  1  0
 12 13  2  0
 13  2  1  0
 13  7  1  0
  1 14  1  0
  1 15  1  0
  1 16  1  0
  3 17  1  0
  5 18  1  0
  5 19  1  0
  6 20  1  0
  8 21  1  0
  9 22  1  0
 11 23  1  0
 11 24  1  0
 12 25  1  0
M  CHG  1   6   1
M  END
>  <meeko>  (3) 
{"is_sidechain": [false], "free_energy": -6.427, "intermolecular_energy": -6.803, "internal_energy": 0.0}

$$$$
4cr9_ligand
     RDKit          3D

 25 26  0  0  0  0  0  0  0  0999 V2000
   49.8560   23.4860   12.1570 C   0  0  0  0  0  0  0  0  0  0  0  0
   50.1860   22.0340   11.9290 C   0  0  0  0  0  0  0  0  0  0  0  0
   51.5220   21.6670   11.7180 C   0  0  0  0  0  0  0  0  0  0  0  0
   51.8620   20.3340   11.5210 C   0  0  0  0  0  0  0  0  0  0  0  0
   53.1650   19.9520   11.2590 N   0  0  0  0  0  0  0  0  0  0  0  0
   50.8890   19.4200   11.4850 N   0  0  0  0  0  0  0  0  0  0  0  0
   49.5870   19.6970   11.6760 C   0  0  0  0  0  0  0  0  0  0  0  0
   48.6440   18.6620   11.6530 C   0  0  0  0  0  0  0  0  0  0  0  0
   47.2920   18.9430   11.8600 C   0  0  0  0  0  0  0  0  0  0  0  0
   46.8580   20.2540   12.0470 C   0  0  0  0  0  0  0  0  0  0  0  0
   45.5330   20.5090   12.3910 N   0  0  0  0  0  0  0  0  0  0  0  0
   47.8120   21.2780   12.1150 C   0  0  0  0  0  0  0  0  0  0  0  0
   49.1890   21.0320   11.9110 C   0  0  0  0  0  0  0  0  0  0  0  0
   49.8105   23.6864   13.2376 H   0  0  0  0  0  0  0  0  0  0  0  0
   50.6341   24.1150   11.6999 H   0  0  0  0  0  0  0  0  0  0  0  0
   48.8825   23.7169   11.6999 H   0  0  0  0  0  0  0  0  0  0  0  0
   52.3060   22.4385   11.7083 H   0  0  0  0  0  0  0  0  0  0  0  0
   53.6210   20.4620   10.5020 H   0  0  0  0  0  0  0  0  0  0  0  0
   53.8080   19.7370   12.0110 H   0  0  0  0  0  0  0  0  0  0  0  0
   51.1570   18.4630   11.2930 H   0  0  0  0  0  0  0  0  0  0  0  0
   48.9686   17.6267   11.4717 H   0  0  0  0  0  0  0  0  0  0  0  0
   46.5616   18.1207   11.8756 H   0  0  0  0  0  0  0  0  0  0  0  0
   44.8700   20.5170   11.6190 H   0  0  0  0  0  0  0  0  0  0  0  0
   45.3810   21.2900   13.0240 H   0  0  0  0  0  0  0  0  0  0  0  0
   47.4796   22.3035   12.3336 H   0  0  0  0  0  0  0  0  0  0  0  0
  1  2  1  0
  2  3  2  0
  3  4  1  0
  4  5  1  0
  4  6  2  0
  6  7  1  0
  7  8  2  0
  8  9  1  0
  9 10  2  0
 10 11  1  0
 10 12  1  0
 12 13  2  0
 13  2  1  0
 13  7  1  0
  1 14  1  0
  1 15  1  0
  1 16  1  0
  3 17  1  0
  5 18  1  0
  5 19  1  0
  6 20  1  0
  8 21  1  0
  9 22  1  0
 11 23  1  0
 11 24  1  0
 12 25  1  0
M  CHG  1   6   1
M  END
>  <meeko>  (4) 
{"is_sidechain": [false], "free_energy": -6.081, "intermolecular_energy": -6.436, "internal_energy": 0.0}

$$$$
4cr9_ligand
     RDKit          3D

 25 26  0  0  0  0  0  0  0  0999 V2000
   54.3310   22.7190   12.1560 C   0  0  0  0  0  0  0  0  0  0  0  0
   53.5700   21.4210   12.2240 C   0  0  0  0  0  0  0  0  0  0  0  0
   54.2710   20.2370   12.4910 C   0  0  0  0  0  0  0  0  0  0  0  0
   53.5960   19.0250   12.5770 C   0  0  0  0  0  0  0  0  0  0  0  0
   54.2700   17.8370   12.7860 N   0  0  0  0  0  0  0  0  0  0  0  0
   52.2800   19.0030   12.3500 N   0  0  0  0  0  0  0  0  0  0  0  0
   51.5420   20.0960   12.0870 C   0  0  0  0  0  0  0  0  0  0  0  0
   50.1600   19.9750   11.8970 C   0  0  0  0  0  0  0  0  0  0  0  0
   49.3890   21.1080   11.6320 C   0  0  0  0  0  0  0  0  0  0  0  0
   49.9840   22.3630   11.5100 C   0  0  0  0  0  0  0  0  0  0  0  0
   49.1930   23.5020   11.3860 N   0  0  0  0  0  0  0  0  0  0  0  0
   51.3590   22.4830   11.7470 C   0  0  0  0  0  0  0  0  0  0  0  0
   52.1730   21.3590   12.0180 C   0  0  0  0  0  0  0  0  0  0  0  0
   54.5399   23.0754   13.1755 H   0  0  0  0  0  0  0  0  0  0  0  0
   55.2792   22.5605   11.6214 H   0  0  0  0  0  0  0  0  0  0  0  0
   53.7296   23.4691   11.6214 H   0  0  0  0  0  0  0  0  0  0  0  0
   55.3613   20.2671   12.6333 H   0  0  0  0  0  0  0  0  0  0  0  0
   54.0460   17.3590   13.6590 H   0  0  0  0  0  0  0  0  0  0  0  0
   54.4260   17.1840   12.0280 H   0  0  0  0  0  0  0  0  0  0  0  0
   51.8190   18.1020   12.3720 H   0  0  0  0  0  0  0  0  0  0  0  0
   49.6815   18.9863   11.9566 H   0  0  0  0  0  0  0  0  0  0  0  0
   48.2993   21.0096   11.5181 H   0  0  0  0  0  0  0  0  0  0  0  0
   49.1720   23.9270   10.4620 H   0  0  0  0  0  0  0  0  0  0  0  0
   49.3020   24.1990   12.1170 H   0  0  0  0  0  0  0  0  0  0  0  0
   51.8196   23.4816   11.7216 H   0  0  0  0  0  0  0  0  0  0  0  0
  1  2  1  0
  2  3  2  0
  3  4  1  0
  4  5  1  0
  4  6  2  0
  6  7  1  0
  7  8  2  0
  8  9  1  0
  9 10  2  0
 10 11  1  0
 10 12  1  0
 12 13  2  0
 13  2  1  0
 13  7  1  0
  1 14  1  0
  1 15  1  0
  1 16  1  0
  3 17  1  0
  5 18  1  0
  5 19  1  0
  6 20  1  0
  8 21  1  0
  9 22  1  0
 11 23  1  0
 11 24  1  0
 12 25  1  0
M  CHG  1   6   1
M  END
>  <meeko>  (5) 
{"is_sidechain": [false], "free_energy": -5.622, "intermolecular_energy": -5.951, "internal_energy": 0.0}

$$$$
4cr9_ligand
     RDKit          3D

 25 26  0  0  0  0  0  0  0  0999 V2000
   50.8260   23.0500   11.6520 C   0  0  0  0  0  0  0  0  0  0  0  0
   50.9270   21.5500   11.7590 C   0  0  0  0  0  0  0  0  0  0  0  0
   49.7750   20.7770   11.5620 C   0  0  0  0  0  0  0  0  0  0  0  0
   49.8380   19.3900   11.6380 C   0  0  0  0  0  0  0  0  0  0  0  0
   48.7070   18.6080   11.5000 N   0  0  0  0  0  0  0  0  0  0  0  0
   51.0010   18.8150   11.9520 N   0  0  0  0  0  0  0  0  0  0  0  0
   52.1460   19.4910   12.1580 C   0  0  0  0  0  0  0  0  0  0  0  0
   53.3240   18.7940   12.4500 C   0  0  0  0  0  0  0  0  0  0  0  0
   54.5160   19.4900   12.6550 C   0  0  0  0  0  0  0  0  0  0  0  0
   54.5430   20.8830   12.6160 C   0  0  0  0  0  0  0  0  0  0  0  0
   55.7580   21.5610   12.6820 N   0  0  0  0  0  0  0  0  0  0  0  0
   53.3710   21.5710   12.2780 C   0  0  0  0  0  0  0  0  0  0  0  0
   52.1460   20.9010   12.0630 C   0  0  0  0  0  0  0  0  0  0  0  0
   50.7965   23.4884   12.6604 H   0  0  0  0  0  0  0  0  0  0  0  0
   51.7000   23.4385   11.1087 H   0  0  0  0  0  0  0  0  0  0  0  0
   49.9078   23.3178   11.1087 H   0  0  0  0  0  0  0  0  0  0  0  0
   48.8157   21.2700   11.3461 H   0  0  0  0  0  0  0  0  0  0  0  0
   48.7310   17.9440   10.7260 H   0  0  0  0  0  0  0  0  0  0  0  0
   48.2340   18.2260   12.3090 H   0  0  0  0  0  0  0  0  0  0  0  0
   51.0110   17.8070   12.0480 H   0  0  0  0  0  0  0  0  0  0  0  0
   53.3102   17.6962   12.5180 H   0  0  0  0  0  0  0  0  0  0  0  0
   55.4445   18.9332   12.8495 H   0  0  0  0  0  0  0  0  0  0  0  0
   55.9590   22.1870   11.9060 H   0  0  0  0  0  0  0  0  0  0  0  0
   56.5670   20.9980   12.9310 H   0  0  0  0  0  0  0  0  0  0  0  0
   53.4053   22.6658   12.1769 H   0  0  0  0  0  0  0  0  0  0  0  0
  1  2  1  0
  2  3  2  0
  3  4  1  0
  4  5  1  0
  4  6  2  0
  6  7  1  0
  7  8  2  0
  8  9  1  0
  9 10  2  0
 10 11  1  0
 10 12  1  0
 12 13  2  0
 13  2  1  0
 13  7  1  0
  1 14  1  0
  1 15  1  0
  1 16  1  0
  3 17  1  0
  5 18  1  0
  5 19  1  0
  6 20  1  0
  8 21  1  0
  9 22  1  0
 11 23  1  0
 11 24  1  0
 12 25  1  0
M  CHG  1   6   1
M  END
>  <meeko>  (6) 
{"is_sidechain": [false], "free_energy": -5.596, "intermolecular_energy": -5.923, "internal_energy": 0.0}

$$$$
4cr9_ligand
     RDKit          3D

 25 26  0  0  0  0  0  0  0  0999 V2000
   51.7380   19.2450   12.2620 C   0  0  0  0  0  0  0  0  0  0  0  0
   51.4030   20.6770   12.5910 C   0  0  0  0  0  0  0  0  0  0  0  0
   50.5450   21.3850   11.7400 C   0  0  0  0  0  0  0  0  0  0  0  0
   50.2030   22.7020   12.0240 C   0  0  0  0  0  0  0  0  0  0  0  0
   49.4010   23.4390   11.1730 N   0  0  0  0  0  0  0  0  0  0  0  0
   50.7480   23.2930   13.0910 N   0  0  0  0  0  0  0  0  0  0  0  0
   51.5800   22.6780   13.9500 C   0  0  0  0  0  0  0  0  0  0  0  0
   52.0730   23.3740   15.0610 C   0  0  0  0  0  0  0  0  0  0  0  0
   52.9290   22.7380   15.9600 C   0  0  0  0  0  0  0  0  0  0  0  0
   53.3400   21.4230   15.7450 C   0  0  0  0  0  0  0  0  0  0  0  0
   54.0800   20.7540   16.7170 N   0  0  0  0  0  0  0  0  0  0  0  0
   52.8070   20.7200   14.6580 C   0  0  0  0  0  0  0  0  0  0  0  0
   51.9370   21.3300   13.7260 C   0  0  0  0  0  0  0  0  0  0  0  0
   51.8711   18.6761   13.1940 H   0  0  0  0  0  0  0  0  0  0  0  0
   50.9192   18.8022   11.6759 H   0  0  0  0  0  0  0  0  0  0  0  0
   52.6683   19.2114   11.6759 H   0  0  0  0  0  0  0  0  0  0  0  0
   50.1395   20.8961   10.8419 H   0  0  0  0  0  0  0  0  0  0  0  0
   49.5180   24.4500   11.2360 H   0  0  0  0  0  0  0  0  0  0  0  0
   49.2320   23.1370   10.2210 H   0  0  0  0  0  0  0  0  0  0  0  0
   50.5200   24.2660   13.2500 H   0  0  0  0  0  0  0  0  0  0  0  0
   51.7849   24.4229   15.2246 H   0  0  0  0  0  0  0  0  0  0  0  0
   53.2840   23.2801   16.8489 H   0  0  0  0  0  0  0  0  0  0  0  0
   53.5570   20.4310   17.5270 H   0  0  0  0  0  0  0  0  0  0  0  0
   54.9570   21.1920   16.9860 H   0  0  0  0  0  0  0  0  0  0  0  0
   53.0733   19.6610   14.5253 H   0  0  0  0  0  0  0  0  0  0  0  0
  1  2  1  0
  2  3  2  0
  3  4  1  0
  4  5  1  0
  4  6  2  0
  6  7  1  0
  7  8  2  0
  8  9  1  0
  9 10  2  0
 10 11  1  0
 10 12  1  0
 12 13  2  0
 13  2  1  0
 13  7  1  0
  1 14  1  0
  1 15  1  0
  1 16  1  0
  3 17  1  0
  5 18  1  0
  5 19  1  0
  6 20  1  0
  8 21  1  0
  9 22  1  0
 11 23  1  0
 11 24  1  0
 12 25  1  0
M  CHG  1   6   1
M  END
>  <meeko>  (7) 
{"is_sidechain": [false], "free_energy": -5.302, "intermolecular_energy": -5.612, "internal_energy": 0.0}

$$$$
4cr9_ligand
     RDKit          3D

 25 26  0  0  0  0  0  0  0  0999 V2000
   51.1760   19.2610   11.7530 C   0  0  0  0  0  0  0  0  0  0  0  0
   51.2700   20.7500   11.9600 C   0  0  0  0  0  0  0  0  0  0  0  0
   50.0900   21.4890   12.1190 C   0  0  0  0  0  0  0  0  0  0  0  0
   50.1440   22.8630   12.3290 C   0  0  0  0  0  0  0  0  0  0  0  0
   48.9940   23.6220   12.4350 N   0  0  0  0  0  0  0  0  0  0  0  0
   51.3340   23.4680   12.3240 N   0  0  0  0  0  0  0  0  0  0  0  0
   52.5060   22.8260   12.1760 C   0  0  0  0  0  0  0  0  0  0  0  0
   53.7060   23.5470   12.2190 C   0  0  0  0  0  0  0  0  0  0  0  0
   54.9260   22.8840   12.0750 C   0  0  0  0  0  0  0  0  0  0  0  0
   54.9660   21.5100   11.8430 C   0  0  0  0  0  0  0  0  0  0  0  0
   56.1860   20.8380   11.8400 N   0  0  0  0  0  0  0  0  0  0  0  0
   53.7660   20.7890   11.8470 C   0  0  0  0  0  0  0  0  0  0  0  0
   52.5120   21.4260   11.9900 C   0  0  0  0  0  0  0  0  0  0  0  0
   51.1441   18.7563   12.7299 H   0  0  0  0  0  0  0  0  0  0  0  0
   50.2612   19.0262   11.1890 H   0  0  0  0  0  0  0  0  0  0  0  0
   52.0540   18.9131   11.1890 H   0  0  0  0  0  0  0  0  0  0  0  0
   49.1158   20.9798   12.0775 H   0  0  0  0  0  0  0  0  0  0  0  0
   48.5770   23.6480   13.3650 H   0  0  0  0  0  0  0  0  0  0  0  0
   48.9090   24.5110   11.9580 H   0  0  0  0  0  0  0  0  0  0  0  0
   51.3440   24.4750   12.4310 H   0  0  0  0  0  0  0  0  0  0  0  0
   53.6871   24.6369   12.3664 H   0  0  0  0  0  0  0  0  0  0  0  0
   55.8656   23.4517   12.1453 H   0  0  0  0  0  0  0  0  0  0  0  0
   56.7440   20.9390   10.9950 H   0  0  0  0  0  0  0  0  0  0  0  0
   56.1620   19.8740   12.1620 H   0  0  0  0  0  0  0  0  0  0  0  0
   53.7998   19.6952   11.7357 H   0  0  0  0  0  0  0  0  0  0  0  0
  1  2  1  0
  2  3  2  0
  3  4  1  0
  4  5  1  0
  4  6  2  0
  6  7  1  0
  7  8  2  0
  8  9  1  0
  9 10  2  0
 10 11  1  0
 10 12  1  0
 12 13  2  0
 13  2  1  0
 13  7  1  0
  1 14  1  0
  1 15  1  0
  1 16  1  0
  3 17  1  0
  5 18  1  0
  5 19  1  0
  6 20  1  0
  8 21  1  0
  9 22  1  0
 11 23  1  0
 11 24  1  0
 12 25  1  0
M  CHG  1   6   1
M  END
>  <meeko>  (8) 
{"is_sidechain": [false], "free_energy": -5.174, "intermolecular_energy": -5.476, "internal_energy": 0.0}

$$$$
4cr9_ligand
     RDKit          3D

 25 26  0  0  0  0  0  0  0  0999 V2000
   53.1510   20.2080   16.4500 C   0  0  0  0  0  0  0  0  0  0  0  0
   52.8350   21.6620   16.2170 C   0  0  0  0  0  0  0  0  0  0  0  0
   52.2240   22.0400   15.0150 C   0  0  0  0  0  0  0  0  0  0  0  0
   51.9040   23.3720   14.7770 C   0  0  0  0  0  0  0  0  0  0  0  0
   51.3500   23.7780   13.5780 N   0  0  0  0  0  0  0  0  0  0  0  0
   52.2370   24.2870   15.6910 N   0  0  0  0  0  0  0  0  0  0  0  0
   52.8260   24.0000   16.8650 C   0  0  0  0  0  0  0  0  0  0  0  0
   53.1050   25.0280   17.7750 C   0  0  0  0  0  0  0  0  0  0  0  0
   53.7080   24.7340   18.9990 C   0  0  0  0  0  0  0  0  0  0  0  0
   54.0800   23.4280   19.3140 C   0  0  0  0  0  0  0  0  0  0  0  0
   54.5510   23.1240   20.5890 N   0  0  0  0  0  0  0  0  0  0  0  0
   53.7560   22.3990   18.4210 C   0  0  0  0  0  0  0  0  0  0  0  0
   53.1460   22.6580   17.1720 C   0  0  0  0  0  0  0  0  0  0  0  0
   53.1939   20.0108   17.5313 H   0  0  0  0  0  0  0  0  0  0  0  0
   52.3673   19.5849   15.9944 H   0  0  0  0  0  0  0  0  0  0  0  0
   54.1226   19.9664   15.9944 H   0  0  0  0  0  0  0  0  0  0  0  0
   51.9959   21.2786   14.2546 H   0  0  0  0  0  0  0  0  0  0  0  0
   52.0190   23.9450   12.8260 H   0  0  0  0  0  0  0  0  0  0  0  0
   50.4900   23.3690   13.2340 H   0  0  0  0  0  0  0  0  0  0  0  0
   52.0370   25.2550   15.4740 H   0  0  0  0  0  0  0  0  0  0  0  0
   52.8486   26.0680   17.5246 H   0  0  0  0  0  0  0  0  0  0  0  0
   53.8917   25.5416   19.7229 H   0  0  0  0  0  0  0  0  0  0  0  0
   55.1620   22.3130   20.6530 H   0  0  0  0  0  0  0  0  0  0  0  0
   53.8570   23.1320   21.3320 H   0  0  0  0  0  0  0  0  0  0  0  0
   53.9826   21.3592   18.6993 H   0  0  0  0  0  0  0  0  0  0  0  0
  1  2  1  0
  2  3  2  0
  3  4  1  0
  4  5  1  0
  4  6  2  0
  6  7  1  0
  7  8  2  0
  8  9  1  0
  9 10  2  0
 10 11  1  0
 10 12  1  0
 12 13  2  0
 13  2  1  0
 13  7  1  0
  1 14  1  0
  1 15  1  0
  1 16  1  0
  3 17  1  0
  5 18  1  0
  5 19  1  0
  6 20  1  0
  8 21  1  0
  9 22  1  0
 11 23  1  0
 11 24  1  0
 12 25  1  0
M  CHG  1   6   1
M  END
>  <meeko>  (9) 
{"is_sidechain": [false], "free_energy": -4.982, "intermolecular_energy": -5.273, "internal_energy": 0.0}

$$$$
