5a7b_ligand
     RDKit          3D

 65 67  0  0  0  0  0  0  0  0999 V2000
   90.6220   75.5320  -11.8430 C   0  0  0  0  0  0  0  0  0  0  0  0
   91.7450   75.2390  -12.1540 C   0  0  0  0  0  0  0  0  0  0  0  0
   93.0880   74.9020  -12.5210 C   0  0  0  0  0  0  0  0  0  0  0  0
   94.0170   75.9330  -12.6850 C   0  0  0  0  0  0  0  0  0  0  0  0
   95.3300   75.6400  -13.0560 C   0  0  0  0  0  0  0  0  0  0  0  0
   96.2810   76.6890  -13.2390 C   0  0  0  0  0  0  0  0  0  0  0  0
   97.1050   77.5460  -13.4140 C   0  0  0  0  0  0  0  0  0  0  0  0
   98.1190   78.5950  -13.5910 C   0  0  0  0  0  0  0  0  0  0  0  0
   98.6960   78.8760  -12.3170 O   0  0  0  0  0  0  0  0  0  0  0  0
   99.6730   78.0240  -11.8790 C   0  0  0  0  0  0  0  0  0  0  0  0
  100.9160   78.1950  -12.4960 C   0  0  0  0  0  0  0  0  0  0  0  0
  102.0030   77.3930  -12.1430 C   0  0  0  0  0  0  0  0  0  0  0  0
  101.8520   76.4110  -11.1680 C   0  0  0  0  0  0  0  0  0  0  0  0
  100.6170   76.2350  -10.5480 C   0  0  0  0  0  0  0  0  0  0  0  0
   99.5280   77.0380  -10.9010 C   0  0  0  0  0  0  0  0  0  0  0  0
   95.7220   74.3140  -13.2610 C   0  0  0  0  0  0  0  0  0  0  0  0
   94.8050   73.2630  -13.1030 C   0  0  0  0  0  0  0  0  0  0  0  0
   95.2410   71.8470  -13.3460 C   0  0  0  0  0  0  0  0  0  0  0  0
   95.9020   71.6280  -14.7100 N   0  0  2  0  0  0  0  0  0  0  0  0
   95.0420   70.9120  -15.7170 C   0  0  0  0  0  0  0  0  0  0  0  0
   95.0070   69.4090  -15.4590 C   0  0  0  0  0  0  0  0  0  0  0  0
   96.3840   68.8400  -15.0900 C   0  0  1  0  0  0  0  0  0  0  0  0
   96.6060   67.4460  -15.7100 N   0  0  0  0  0  0  0  0  0  0  0  0
   96.4060   66.3290  -14.6660 C   0  0  0  0  0  0  0  0  0  0  0  0
   95.2600   65.4130  -15.0630 C   0  0  0  0  0  0  0  0  0  0  0  0
   97.9070   67.2060  -16.4830 C   0  0  0  0  0  0  0  0  0  0  0  0
   98.8570   66.2920  -15.7360 C   0  0  0  0  0  0  0  0  0  0  0  0
   97.5280   69.8110  -15.3660 C   0  0  0  0  0  0  0  0  0  0  0  0
   97.3200   71.1170  -14.5970 C   0  0  0  0  0  0  0  0  0  0  0  0
   93.4870   73.5730  -12.7340 C   0  0  0  0  0  0  0  0  0  0  0  0
   92.6090   72.5250  -12.6130 O   0  0  0  0  0  0  0  0  0  0  0  0
   89.5939   75.8002  -11.5583 H   0  0  0  0  0  0  0  0  0  0  0  0
   93.7128   76.9773  -12.5214 H   0  0  0  0  0  0  0  0  0  0  0  0
   98.8986   78.2462  -14.2842 H   0  0  0  0  0  0  0  0  0  0  0  0
   97.6583   79.5026  -14.0082 H   0  0  0  0  0  0  0  0  0  0  0  0
  101.0388   78.9694  -13.2675 H   0  0  0  0  0  0  0  0  0  0  0  0
  102.9766   77.5368  -12.6343 H   0  0  0  0  0  0  0  0  0  0  0  0
  102.7053   75.7759  -10.8879 H   0  0  0  0  0  0  0  0  0  0  0  0
  100.4978   75.4601   -9.7765 H   0  0  0  0  0  0  0  0  0  0  0  0
   98.5557   76.8927  -10.4075 H   0  0  0  0  0  0  0  0  0  0  0  0
   96.7601   74.0918  -13.5492 H   0  0  0  0  0  0  0  0  0  0  0  0
   95.9610   71.5668  -12.5630 H   0  0  0  0  0  0  0  0  0  0  0  0
   94.3338   71.2252  -13.3267 H   0  0  0  0  0  0  0  0  0  0  0  0
   95.9790   72.5910  -15.0730 H   0  0  0  0  0  0  0  0  0  0  0  0
   94.0176   71.3083  -15.6573 H   0  0  0  0  0  0  0  0  0  0  0  0
   95.4708   71.0794  -16.7161 H   0  0  0  0  0  0  0  0  0  0  0  0
   94.3105   69.2100  -14.6312 H   0  0  0  0  0  0  0  0  0  0  0  0
   94.6831   68.9193  -16.3892 H   0  0  0  0  0  0  0  0  0  0  0  0
   96.3884   68.7035  -13.9985 H   0  0  0  0  0  0  0  0  0  0  0  0
   95.8440   67.2930  -16.3890 H   0  0  0  0  0  0  0  0  0  0  0  0
   97.3302   65.7373  -14.5904 H   0  0  0  0  0  0  0  0  0  0  0  0
   96.1656   66.7925  -13.6978 H   0  0  0  0  0  0  0  0  0  0  0  0
   94.7719   65.0229  -14.1577 H   0  0  0  0  0  0  0  0  0  0  0  0
   94.5286   65.9782  -15.6593 H   0  0  0  0  0  0  0  0  0  0  0  0
   95.6501   64.5750  -15.6593 H   0  0  0  0  0  0  0  0  0  0  0  0
   97.6633   66.7473  -17.4527 H   0  0  0  0  0  0  0  0  0  0  0  0
   98.4061   68.1775  -16.6135 H   0  0  0  0  0  0  0  0  0  0  0  0
   98.7184   66.4253  -14.6529 H   0  0  0  0  0  0  0  0  0  0  0  0
   98.6484   65.2464  -16.0064 H   0  0  0  0  0  0  0  0  0  0  0  0
   99.8938   66.5408  -16.0064 H   0  0  0  0  0  0  0  0  0  0  0  0
   98.4764   69.3521  -15.0501 H   0  0  0  0  0  0  0  0  0  0  0  0
   97.5541   70.0328  -16.4431 H   0  0  0  0  0  0  0  0  0  0  0  0
   97.5501   70.9433  -13.5355 H   0  0  0  0  0  0  0  0  0  0  0  0
   97.9873   71.8750  -15.0332 H   0  0  0  0  0  0  0  0  0  0  0  0
   92.0390   72.5200  -13.4110 H   0  0  0  0  0  0  0  0  0  0  0  0
  1  2  3  0
  2  3  1  0
  3  4  2  0
  4  5  1  0
  5  6  1  0
  6  7  3  0
  7  8  1  0
  8  9  1  0
  9 10  1  0
 10 11  2  0
 11 12  1  0
 12 13  2  0
 13 14  1  0
 14 15  2  0
  5 16  2  0
 16 17  1  0
 17 18  1  0
 18 19  1  0
 19 20  1  0
 20 21  1  0
 21 22  1  0
 22 23  1  0
 23 24  1  0
 24 25  1  0
 23 26  1  0
 26 27  1  0
 22 28  1  0
 28 29  1  0
 17 30  2  0
 30 31  1  0
 30  3  1  0
 15 10  1  0
 29 19  1  0
  1 32  1  0
  4 33  1  0
  8 34  1  0
  8 35  1  0
 11 36  1  0
 12 37  1  0
 13 38  1  0
 14 39  1  0
 15 40  1  0
 16 41  1  0
 18 42  1  0
 18 43  1  0
 19 44  1  1
 20 45  1  0
 20 46  1  0
 21 47  1  0
 21 48  1  0
 22 49  1  6
 23 50  1  0
 24 51  1  0
 24 52  1  0
 25 53  1  0
 25 54  1  0
 25 55  1  0
 26 56  1  0
 26 57  1  0
 27 58  1  0
 27 59  1  0
 27 60  1  0
 28 61  1  0
 28 62  1  0
 29 63  1  0
 29 64  1  0
 31 65  1  0
M  CHG  2  19   1  23   1
M  END
>  <meeko>  (1) 
{"is_sidechain": [false], "free_energy": -6.073, "intermolecular_energy": -9.091, "internal_energy": -1.17}

$$$$
5a7b_ligand
     RDKit          3D

 65 67  0  0  0  0  0  0  0  0999 V2000
   90.6720   75.4770  -11.5780 C   0  0  0  0  0  0  0  0  0  0  0  0
   91.7660   75.1750  -11.9700 C   0  0  0  0  0  0  0  0  0  0  0  0
   93.0770   74.8290  -12.4330 C   0  0  0  0  0  0  0  0  0  0  0  0
   94.0000   75.8520  -12.6630 C   0  0  0  0  0  0  0  0  0  0  0  0
   95.2800   75.5500  -13.1290 C   0  0  0  0  0  0  0  0  0  0  0  0
   96.2240   76.5910  -13.3790 C   0  0  0  0  0  0  0  0  0  0  0  0
   97.0400   77.4420  -13.6120 C   0  0  0  0  0  0  0  0  0  0  0  0
   98.0420   78.4870  -13.8610 C   0  0  0  0  0  0  0  0  0  0  0  0
   98.5610   78.9150  -12.6030 O   0  0  0  0  0  0  0  0  0  0  0  0
   97.6520   79.1710  -11.6120 C   0  0  0  0  0  0  0  0  0  0  0  0
   97.7300   78.3120  -10.5120 C   0  0  0  0  0  0  0  0  0  0  0  0
   96.8620   78.4610   -9.4280 C   0  0  0  0  0  0  0  0  0  0  0  0
   95.9070   79.4730   -9.4400 C   0  0  0  0  0  0  0  0  0  0  0  0
   95.8230   80.3340  -10.5330 C   0  0  0  0  0  0  0  0  0  0  0  0
   96.6920   80.1850  -11.6180 C   0  0  0  0  0  0  0  0  0  0  0  0
   95.6460   74.2210  -13.3630 C   0  0  0  0  0  0  0  0  0  0  0  0
   94.7330   73.1760  -13.1400 C   0  0  0  0  0  0  0  0  0  0  0  0
   95.1400   71.7580  -13.4150 C   0  0  0  0  0  0  0  0  0  0  0  0
   95.8700   71.5700  -14.7480 N   0  0  2  0  0  0  0  0  0  0  0  0
   95.0700   70.8620  -15.8090 C   0  0  0  0  0  0  0  0  0  0  0  0
   95.0390   69.3550  -15.5790 C   0  0  0  0  0  0  0  0  0  0  0  0
   96.4030   68.7950  -15.1520 C   0  0  1  0  0  0  0  0  0  0  0  0
   96.6720   67.4140  -15.7830 N   0  0  0  0  0  0  0  0  0  0  0  0
   96.4230   66.2760  -14.7730 C   0  0  0  0  0  0  0  0  0  0  0  0
   95.0390   65.6770  -14.9620 C   0  0  0  0  0  0  0  0  0  0  0  0
   98.0170   67.1990  -16.4850 C   0  0  0  0  0  0  0  0  0  0  0  0
   98.7590   65.9940  -15.9450 C   0  0  0  0  0  0  0  0  0  0  0  0
   97.5480   69.7830  -15.3530 C   0  0  0  0  0  0  0  0  0  0  0  0
   97.2870   71.0730  -14.5740 C   0  0  0  0  0  0  0  0  0  0  0  0
   93.4490   73.4970  -12.6770 C   0  0  0  0  0  0  0  0  0  0  0  0
   92.5730   72.4550  -12.4930 O   0  0  0  0  0  0  0  0  0  0  0  0
   89.6698   75.7537  -11.2189 H   0  0  0  0  0  0  0  0  0  0  0  0
   93.7169   76.8984  -12.4762 H   0  0  0  0  0  0  0  0  0  0  0  0
   98.8554   78.0828  -14.4814 H   0  0  0  0  0  0  0  0  0  0  0  0
   97.5836   79.3347  -14.3914 H   0  0  0  0  0  0  0  0  0  0  0  0
   98.4830   77.5102  -10.5000 H   0  0  0  0  0  0  0  0  0  0  0  0
   96.9331   77.7801   -8.5670 H   0  0  0  0  0  0  0  0  0  0  0  0
   95.2202   79.5932   -8.5892 H   0  0  0  0  0  0  0  0  0  0  0  0
   95.0690   81.1349  -10.5419 H   0  0  0  0  0  0  0  0  0  0  0  0
   96.6194   80.8675  -12.4776 H   0  0  0  0  0  0  0  0  0  0  0  0
   96.6588   73.9910  -13.7253 H   0  0  0  0  0  0  0  0  0  0  0  0
   95.8062   71.4255  -12.6053 H   0  0  0  0  0  0  0  0  0  0  0  0
   94.2151   71.1652  -13.4708 H   0  0  0  0  0  0  0  0  0  0  0  0
   95.9530   72.5400  -15.0910 H   0  0  0  0  0  0  0  0  0  0  0  0
   94.0394   71.2463  -15.7945 H   0  0  0  0  0  0  0  0  0  0  0  0
   95.5470   71.0510  -16.7820 H   0  0  0  0  0  0  0  0  0  0  0  0
   94.3048   69.1340  -14.7902 H   0  0  0  0  0  0  0  0  0  0  0  0
   94.7665   68.8780  -16.5320 H   0  0  0  0  0  0  0  0  0  0  0  0
   96.3547   68.6399  -14.0641 H   0  0  0  0  0  0  0  0  0  0  0  0
   95.9510   67.2690  -16.5070 H   0  0  0  0  0  0  0  0  0  0  0  0
   97.1788   65.4907  -14.9216 H   0  0  0  0  0  0  0  0  0  0  0  0
   96.4920   66.6877  -13.7553 H   0  0  0  0  0  0  0  0  0  0  0  0
   94.5868   65.4813  -13.9786 H   0  0  0  0  0  0  0  0  0  0  0  0
   94.4075   66.3824  -15.5221 H   0  0  0  0  0  0  0  0  0  0  0  0
   95.1210   64.7338  -15.5221 H   0  0  0  0  0  0  0  0  0  0  0  0
   97.8357   67.0508  -17.5598 H   0  0  0  0  0  0  0  0  0  0  0  0
   98.6388   68.0878  -16.3022 H   0  0  0  0  0  0  0  0  0  0  0  0
   98.7448   66.0171  -14.8453 H   0  0  0  0  0  0  0  0  0  0  0  0
   98.2708   65.0739  -16.2987 H   0  0  0  0  0  0  0  0  0  0  0  0
   99.8003   66.0158  -16.2987 H   0  0  0  0  0  0  0  0  0  0  0  0
   98.4845   69.3287  -14.9972 H   0  0  0  0  0  0  0  0  0  0  0  0
   97.6255   70.0240  -16.4235 H   0  0  0  0  0  0  0  0  0  0  0  0
   97.4671   70.8838  -13.5055 H   0  0  0  0  0  0  0  0  0  0  0  0
   97.9656   71.8457  -14.9644 H   0  0  0  0  0  0  0  0  0  0  0  0
   93.1010   71.6330  -12.4140 H   0  0  0  0  0  0  0  0  0  0  0  0
  1  2  3  0
  2  3  1  0
  3  4  2  0
  4  5  1  0
  5  6  1  0
  6  7  3  0
  7  8  1  0
  8  9  1  0
  9 10  1  0
 10 11  2  0
 11 12  1  0
 12 13  2  0
 13 14  1  0
 14 15  2  0
  5 16  2  0
 16 17  1  0
 17 18  1  0
 18 19  1  0
 19 20  1  0
 20 21  1  0
 21 22  1  0
 22 23  1  0
 23 24  1  0
 24 25  1  0
 23 26  1  0
 26 27  1  0
 22 28  1  0
 28 29  1  0
 17 30  2  0
 30 31  1  0
 30  3  1  0
 15 10  1  0
 29 19  1  0
  1 32  1  0
  4 33  1  0
  8 34  1  0
  8 35  1  0
 11 36  1  0
 12 37  1  0
 13 38  1  0
 14 39  1  0
 15 40  1  0
 16 41  1  0
 18 42  1  0
 18 43  1  0
 19 44  1  1
 20 45  1  0
 20 46  1  0
 21 47  1  0
 21 48  1  0
 22 49  1  6
 23 50  1  0
 24 51  1  0
 24 52  1  0
 25 53  1  0
 25 54  1  0
 25 55  1  0
 26 56  1  0
 26 57  1  0
 27 58  1  0
 27 59  1  0
 27 60  1  0
 28 61  1  0
 28 62  1  0
 29 63  1  0
 29 64  1  0
 31 65  1  0
M  CHG  2  19   1  23   1
M  END
>  <meeko>  (2) 
{"is_sidechain": [false], "free_energy": -6.008, "intermolecular_energy": -9.142, "internal_energy": -1.021}

$$$$
5a7b_ligand
     RDKit          3D

 65 67  0  0  0  0  0  0  0  0999 V2000
   96.6400   78.7960  -12.2730 C   0  0  0  0  0  0  0  0  0  0  0  0
   96.1380   77.7050  -12.2990 C   0  0  0  0  0  0  0  0  0  0  0  0
   95.5280   76.4090  -12.3350 C   0  0  0  0  0  0  0  0  0  0  0  0
   94.1360   76.3250  -12.4260 C   0  0  0  0  0  0  0  0  0  0  0  0
   93.5100   75.0790  -12.4480 C   0  0  0  0  0  0  0  0  0  0  0  0
   92.0870   74.9850  -12.5270 C   0  0  0  0  0  0  0  0  0  0  0  0
   90.8930   74.8690  -12.5810 C   0  0  0  0  0  0  0  0  0  0  0  0
   89.4280   74.7620  -12.6390 C   0  0  0  0  0  0  0  0  0  0  0  0
   88.8780   76.0650  -12.4530 O   0  0  0  0  0  0  0  0  0  0  0  0
   88.7680   76.8550  -13.5650 C   0  0  0  0  0  0  0  0  0  0  0  0
   89.4360   78.0790  -13.4800 C   0  0  0  0  0  0  0  0  0  0  0  0
   89.4070   78.9830  -14.5440 C   0  0  0  0  0  0  0  0  0  0  0  0
   88.7060   78.6650  -15.7040 C   0  0  0  0  0  0  0  0  0  0  0  0
   88.0380   77.4460  -15.7970 C   0  0  0  0  0  0  0  0  0  0  0  0
   88.0670   76.5410  -14.7310 C   0  0  0  0  0  0  0  0  0  0  0  0
   94.2720   73.9090  -12.3830 C   0  0  0  0  0  0  0  0  0  0  0  0
   95.6720   73.9700  -12.2900 C   0  0  0  0  0  0  0  0  0  0  0  0
   96.4710   72.7020  -12.2040 C   0  0  0  0  0  0  0  0  0  0  0  0
   97.3710   72.4540  -13.4180 N   0  0  2  0  0  0  0  0  0  0  0  0
   96.6340   72.2540  -14.7160 C   0  0  0  0  0  0  0  0  0  0  0  0
   96.0540   70.8470  -14.8220 C   0  0  0  0  0  0  0  0  0  0  0  0
   97.0240   69.7690  -14.3200 C   0  0  1  0  0  0  0  0  0  0  0  0
   96.9490   68.4940  -15.1840 N   0  0  0  0  0  0  0  0  0  0  0  0
   98.0290   68.4970  -16.2860 C   0  0  0  0  0  0  0  0  0  0  0  0
   98.5030   67.0840  -16.5850 C   0  0  0  0  0  0  0  0  0  0  0  0
   95.5920   68.1200  -15.7910 C   0  0  0  0  0  0  0  0  0  0  0  0
   94.9420   66.9570  -15.0690 C   0  0  0  0  0  0  0  0  0  0  0  0
   98.4480   70.2830  -14.1280 C   0  0  0  0  0  0  0  0  0  0  0  0
   98.4660   71.4510  -13.1400 C   0  0  0  0  0  0  0  0  0  0  0  0
   96.2870   75.2300  -12.2640 C   0  0  0  0  0  0  0  0  0  0  0  0
   97.6550   75.2550  -12.1470 O   0  0  0  0  0  0  0  0  0  0  0  0
   97.0997   79.7951  -12.2492 H   0  0  0  0  0  0  0  0  0  0  0  0
   93.5330   77.2434  -12.4804 H   0  0  0  0  0  0  0  0  0  0  0  0
   89.1222   74.3651  -13.6182 H   0  0  0  0  0  0  0  0  0  0  0  0
   89.0655   74.0812  -11.8547 H   0  0  0  0  0  0  0  0  0  0  0  0
   89.9909   78.3335  -12.5649 H   0  0  0  0  0  0  0  0  0  0  0  0
   89.9367   79.9439  -14.4657 H   0  0  0  0  0  0  0  0  0  0  0  0
   88.6796   79.3741  -16.5446 H   0  0  0  0  0  0  0  0  0  0  0  0
   87.4848   77.1939  -16.7137 H   0  0  0  0  0  0  0  0  0  0  0  0
   87.5368   75.5806  -14.8113 H   0  0  0  0  0  0  0  0  0  0  0  0
   93.7700   72.9305  -12.4049 H   0  0  0  0  0  0  0  0  0  0  0  0
   97.1053   72.7522  -11.3067 H   0  0  0  0  0  0  0  0  0  0  0  0
   95.7505   71.8718  -12.1649 H   0  0  0  0  0  0  0  0  0  0  0  0
   97.8460   73.3640  -13.5280 H   0  0  0  0  0  0  0  0  0  0  0  0
   95.8132   72.9839  -14.7765 H   0  0  0  0  0  0  0  0  0  0  0  0
   97.3471   72.3950  -15.5416 H   0  0  0  0  0  0  0  0  0  0  0  0
   95.1333   70.7994  -14.2219 H   0  0  0  0  0  0  0  0  0  0  0  0
   95.8561   70.6477  -15.8855 H   0  0  0  0  0  0  0  0  0  0  0  0
   96.6895   69.4875  -13.3106 H   0  0  0  0  0  0  0  0  0  0  0  0
   97.2130   67.7020  -14.5770 H   0  0  0  0  0  0  0  0  0  0  0  0
   97.6077   68.9369  -17.2020 H   0  0  0  0  0  0  0  0  0  0  0  0
   98.8874   69.0887  -15.9352 H   0  0  0  0  0  0  0  0  0  0  0  0
   98.6822   66.5498  -15.6403 H   0  0  0  0  0  0  0  0  0  0  0  0
   97.7334   66.5542  -17.1655 H   0  0  0  0  0  0  0  0  0  0  0  0
   99.4364   67.1255  -17.1655 H   0  0  0  0  0  0  0  0  0  0  0  0
   94.9245   68.9922  -15.7302 H   0  0  0  0  0  0  0  0  0  0  0  0
   95.7614   67.8169  -16.8348 H   0  0  0  0  0  0  0  0  0  0  0  0
   95.0258   67.1069  -13.9825 H   0  0  0  0  0  0  0  0  0  0  0  0
   93.8802   66.8981  -15.3502 H   0  0  0  0  0  0  0  0  0  0  0  0
   95.4482   66.0218  -15.3502 H   0  0  0  0  0  0  0  0  0  0  0  0
   99.0774   69.4693  -13.7384 H   0  0  0  0  0  0  0  0  0  0  0  0
   98.8352   70.6302  -15.0973 H   0  0  0  0  0  0  0  0  0  0  0  0
   98.3333   71.0554  -12.1222 H   0  0  0  0  0  0  0  0  0  0  0  0
   99.4310   71.9679  -13.2475 H   0  0  0  0  0  0  0  0  0  0  0  0
   97.9750   76.0800  -12.5690 H   0  0  0  0  0  0  0  0  0  0  0  0
  1  2  3  0
  2  3  1  0
  3  4  2  0
  4  5  1  0
  5  6  1  0
  6  7  3  0
  7  8  1  0
  8  9  1  0
  9 10  1  0
 10 11  2  0
 11 12  1  0
 12 13  2  0
 13 14  1  0
 14 15  2  0
  5 16  2  0
 16 17  1  0
 17 18  1  0
 18 19  1  0
 19 20  1  0
 20 21  1  0
 21 22  1  0
 22 23  1  0
 23 24  1  0
 24 25  1  0
 23 26  1  0
 26 27  1  0
 22 28  1  0
 28 29  1  0
 17 30  2  0
 30 31  1  0
 30  3  1  0
 15 10  1  0
 29 19  1  0
  1 32  1  0
  4 33  1  0
  8 34  1  0
  8 35  1  0
 11 36  1  0
 12 37  1  0
 13 38  1  0
 14 39  1  0
 15 40  1  0
 16 41  1  0
 18 42  1  0
 18 43  1  0
 19 44  1  1
 20 45  1  0
 20 46  1  0
 21 47  1  0
 21 48  1  0
 22 49  1  6
 23 50  1  0
 24 51  1  0
 24 52  1  0
 25 53  1  0
 25 54  1  0
 25 55  1  0
 26 56  1  0
 26 57  1  0
 27 58  1  0
 27 59  1  0
 27 60  1  0
 28 61  1  0
 28 62  1  0
 29 63  1  0
 29 64  1  0
 31 65  1  0
M  CHG  2  19   1  23   1
M  END
>  <meeko>  (3) 
{"is_sidechain": [false], "free_energy": -5.989, "intermolecular_energy": -8.615, "internal_energy": -1.52}

$$$$
5a7b_ligand
     RDKit          3D

 65 67  0  0  0  0  0  0  0  0999 V2000
   96.9440   77.5790  -13.5540 C   0  0  0  0  0  0  0  0  0  0  0  0
   96.1090   76.7460  -13.3290 C   0  0  0  0  0  0  0  0  0  0  0  0
   95.1030   75.7620  -13.0610 C   0  0  0  0  0  0  0  0  0  0  0  0
   93.8070   76.1910  -12.7610 C   0  0  0  0  0  0  0  0  0  0  0  0
   92.8070   75.2590  -12.4820 C   0  0  0  0  0  0  0  0  0  0  0  0
   91.4850   75.6900  -12.1600 C   0  0  0  0  0  0  0  0  0  0  0  0
   90.3650   76.0170  -11.8740 C   0  0  0  0  0  0  0  0  0  0  0  0
   89.0000   76.4500  -11.5400 C   0  0  0  0  0  0  0  0  0  0  0  0
   88.7880   77.7370  -12.1150 O   0  0  0  0  0  0  0  0  0  0  0  0
   88.7010   77.8000  -13.4800 C   0  0  0  0  0  0  0  0  0  0  0  0
   89.4840   78.7970  -14.0690 C   0  0  0  0  0  0  0  0  0  0  0  0
   89.4920   78.9710  -15.4540 C   0  0  0  0  0  0  0  0  0  0  0  0
   88.7130   78.1460  -16.2610 C   0  0  0  0  0  0  0  0  0  0  0  0
   87.9300   77.1500  -15.6810 C   0  0  0  0  0  0  0  0  0  0  0  0
   87.9230   76.9750  -14.2930 C   0  0  0  0  0  0  0  0  0  0  0  0
   93.0960   73.8910  -12.5050 C   0  0  0  0  0  0  0  0  0  0  0  0
   94.3920   73.4370  -12.8040 C   0  0  0  0  0  0  0  0  0  0  0  0
   94.6860   71.9650  -12.8070 C   0  0  0  0  0  0  0  0  0  0  0  0
   94.1530   71.2310  -14.0410 N   0  0  2  0  0  0  0  0  0  0  0  0
   93.5930   69.8610  -13.7630 C   0  0  0  0  0  0  0  0  0  0  0  0
   94.6990   68.8260  -13.5870 C   0  0  0  0  0  0  0  0  0  0  0  0
   95.8330   68.9940  -14.6080 C   0  0  1  0  0  0  0  0  0  0  0  0
   96.3750   67.6300  -15.0820 N   0  0  0  0  0  0  0  0  0  0  0  0
   97.0490   67.7430  -16.4640 C   0  0  0  0  0  0  0  0  0  0  0  0
   98.5110   67.3320  -16.3900 C   0  0  0  0  0  0  0  0  0  0  0  0
   95.4150   66.4360  -15.0700 C   0  0  0  0  0  0  0  0  0  0  0  0
   95.8490   65.3610  -14.0960 C   0  0  0  0  0  0  0  0  0  0  0  0
   95.4730   69.9310  -15.7570 C   0  0  0  0  0  0  0  0  0  0  0  0
   95.0920   71.3130  -15.2220 C   0  0  0  0  0  0  0  0  0  0  0  0
   95.3870   74.3870  -13.0780 C   0  0  0  0  0  0  0  0  0  0  0  0
   96.6480   73.9110  -13.3410 O   0  0  0  0  0  0  0  0  0  0  0  0
   97.7090   78.3421  -13.7601 H   0  0  0  0  0  0  0  0  0  0  0  0
   93.5749   77.2661  -12.7448 H   0  0  0  0  0  0  0  0  0  0  0  0
   88.2717   75.7346  -11.9495 H   0  0  0  0  0  0  0  0  0  0  0  0
   88.8722   76.4957  -10.4484 H   0  0  0  0  0  0  0  0  0  0  0  0
   90.1002   79.4511  -13.4346 H   0  0  0  0  0  0  0  0  0  0  0  0
   90.1125   79.7583  -15.9070 H   0  0  0  0  0  0  0  0  0  0  0  0
   88.7157   78.2801  -17.3528 H   0  0  0  0  0  0  0  0  0  0  0  0
   87.3142   76.4979  -16.3178 H   0  0  0  0  0  0  0  0  0  0  0  0
   87.3033   76.1860  -13.8420 H   0  0  0  0  0  0  0  0  0  0  0  0
   92.3009   73.1629  -12.2868 H   0  0  0  0  0  0  0  0  0  0  0  0
   95.7768   71.8291  -12.7668 H   0  0  0  0  0  0  0  0  0  0  0  0
   94.1757   71.5345  -11.9328 H   0  0  0  0  0  0  0  0  0  0  0  0
   93.3300   71.7990  -14.2960 H   0  0  0  0  0  0  0  0  0  0  0  0
   92.9923   69.9012  -12.8424 H   0  0  0  0  0  0  0  0  0  0  0  0
   92.9758   69.5613  -14.6228 H   0  0  0  0  0  0  0  0  0  0  0  0
   95.1183   68.9271  -12.5751 H   0  0  0  0  0  0  0  0  0  0  0  0
   94.2536   67.8326  -13.7444 H   0  0  0  0  0  0  0  0  0  0  0  0
   96.6590   69.4972  -14.0841 H   0  0  0  0  0  0  0  0  0  0  0  0
   97.1480   67.3760  -14.4460 H   0  0  0  0  0  0  0  0  0  0  0  0
   96.5258   67.0862  -17.1746 H   0  0  0  0  0  0  0  0  0  0  0  0
   96.9947   68.7900  -16.7969 H   0  0  0  0  0  0  0  0  0  0  0  0
   98.8150   67.2465  -15.3363 H   0  0  0  0  0  0  0  0  0  0  0  0
   98.6448   66.3614  -16.8901 H   0  0  0  0  0  0  0  0  0  0  0  0
   99.1309   68.0907  -16.8901 H   0  0  0  0  0  0  0  0  0  0  0  0
   94.4136   66.7898  -14.7836 H   0  0  0  0  0  0  0  0  0  0  0  0
   95.4118   65.9960  -16.0782 H   0  0  0  0  0  0  0  0  0  0  0  0
   95.7043   65.7193  -13.0661 H   0  0  0  0  0  0  0  0  0  0  0  0
   95.2461   64.4551  -14.2572 H   0  0  0  0  0  0  0  0  0  0  0  0
   96.9118   65.1276  -14.2572 H   0  0  0  0  0  0  0  0  0  0  0  0
   96.3383   70.0289  -16.4290 H   0  0  0  0  0  0  0  0  0  0  0  0
   94.6148   69.5116  -16.3026 H   0  0  0  0  0  0  0  0  0  0  0  0
   96.0078   71.8366  -14.9103 H   0  0  0  0  0  0  0  0  0  0  0  0
   94.5742   71.8549  -16.0271 H   0  0  0  0  0  0  0  0  0  0  0  0
   96.7310   73.0340  -12.9110 H   0  0  0  0  0  0  0  0  0  0  0  0
  1  2  3  0
  2  3  1  0
  3  4  2  0
  4  5  1  0
  5  6  1  0
  6  7  3  0
  7  8  1  0
  8  9  1  0
  9 10  1  0
 10 11  2  0
 11 12  1  0
 12 13  2  0
 13 14  1  0
 14 15  2  0
  5 16  2  0
 16 17  1  0
 17 18  1  0
 18 19  1  0
 19 20  1  0
 20 21  1  0
 21 22  1  0
 22 23  1  0
 23 24  1  0
 24 25  1  0
 23 26  1  0
 26 27  1  0
 22 28  1  0
 28 29  1  0
 17 30  2  0
 30 31  1  0
 30  3  1  0
 15 10  1  0
 29 19  1  0
  1 32  1  0
  4 33  1  0
  8 34  1  0
  8 35  1  0
 11 36  1  0
 12 37  1  0
 13 38  1  0
 14 39  1  0
 15 40  1  0
 16 41  1  0
 18 42  1  0
 18 43  1  0
 19 44  1  1
 20 45  1  0
 20 46  1  0
 21 47  1  0
 21 48  1  0
 22 49  1  6
 23 50  1  0
 24 51  1  0
 24 52  1  0
 25 53  1  0
 25 54  1  0
 25 55  1  0
 26 56  1  0
 26 57  1  0
 27 58  1  0
 27 59  1  0
 27 60  1  0
 28 61  1  0
 28 62  1  0
 29 63  1  0
 29 64  1  0
 31 65  1  0
M  CHG  2  19   1  23   1
M  END
>  <meeko>  (4) 
{"is_sidechain": [false], "free_energy": -5.91, "intermolecular_energy": -8.757, "internal_energy": -1.26}

$$$$
5a7b_ligand
     RDKit          3D

 65 67  0  0  0  0  0  0  0  0999 V2000
   96.2660   78.5260  -12.2990 C   0  0  0  0  0  0  0  0  0  0  0  0
   95.8980   77.3840  -12.3410 C   0  0  0  0  0  0  0  0  0  0  0  0
   95.4470   76.0250  -12.3960 C   0  0  0  0  0  0  0  0  0  0  0  0
   94.0800   75.7780  -12.5470 C   0  0  0  0  0  0  0  0  0  0  0  0
   93.6060   74.4660  -12.5900 C   0  0  0  0  0  0  0  0  0  0  0  0
   92.2090   74.2060  -12.7310 C   0  0  0  0  0  0  0  0  0  0  0  0
   91.0410   73.9490  -12.8360 C   0  0  0  0  0  0  0  0  0  0  0  0
   89.6180   73.6170  -12.9970 C   0  0  0  0  0  0  0  0  0  0  0  0
   89.4760   72.8240  -14.1740 O   0  0  0  0  0  0  0  0  0  0  0  0
   90.4090   71.8430  -14.3750 C   0  0  0  0  0  0  0  0  0  0  0  0
   91.1090   71.9430  -15.5810 C   0  0  0  0  0  0  0  0  0  0  0  0
   92.0910   71.0080  -15.9140 C   0  0  0  0  0  0  0  0  0  0  0  0
   92.3780   69.9630  -15.0400 C   0  0  0  0  0  0  0  0  0  0  0  0
   91.6850   69.8570  -13.8360 C   0  0  0  0  0  0  0  0  0  0  0  0
   90.7010   70.7930  -13.5030 C   0  0  0  0  0  0  0  0  0  0  0  0
   94.4970   73.3940  -12.4850 C   0  0  0  0  0  0  0  0  0  0  0  0
   95.8750   73.6190  -12.3310 C   0  0  0  0  0  0  0  0  0  0  0  0
   96.8130   72.4550  -12.2030 C   0  0  0  0  0  0  0  0  0  0  0  0
   97.7010   72.2370  -13.4320 N   0  0  2  0  0  0  0  0  0  0  0  0
   96.9660   72.2450  -14.7460 C   0  0  0  0  0  0  0  0  0  0  0  0
   96.2440   70.9240  -14.9950 C   0  0  0  0  0  0  0  0  0  0  0  0
   97.0900   69.7060  -14.6010 C   0  0  1  0  0  0  0  0  0  0  0  0
   96.8960   68.5380  -15.5900 N   0  0  0  0  0  0  0  0  0  0  0  0
   96.5000   67.2400  -14.8560 C   0  0  0  0  0  0  0  0  0  0  0  0
   95.0320   66.9170  -15.0790 C   0  0  0  0  0  0  0  0  0  0  0  0
   98.0260   68.2470  -16.5830 C   0  0  0  0  0  0  0  0  0  0  0  0
   98.6240   66.8690  -16.3840 C   0  0  0  0  0  0  0  0  0  0  0  0
   98.5560   70.0460  -14.3530 C   0  0  0  0  0  0  0  0  0  0  0  0
   98.6820   71.1020  -13.2520 C   0  0  0  0  0  0  0  0  0  0  0  0
   96.3350   74.9440  -12.2850 C   0  0  0  0  0  0  0  0  0  0  0  0
   97.6850   75.1300  -12.1080 O   0  0  0  0  0  0  0  0  0  0  0  0
   96.6032   79.5723  -12.2605 H   0  0  0  0  0  0  0  0  0  0  0  0
   93.3762   76.6191  -12.6321 H   0  0  0  0  0  0  0  0  0  0  0  0
   89.2663   73.0509  -12.1219 H   0  0  0  0  0  0  0  0  0  0  0  0
   89.0207   74.5366  -13.0840 H   0  0  0  0  0  0  0  0  0  0  0  0
   90.8839   72.7666  -16.2745 H   0  0  0  0  0  0  0  0  0  0  0  0
   92.6368   71.0969  -16.8649 H   0  0  0  0  0  0  0  0  0  0  0  0
   93.1496   69.2232  -15.2993 H   0  0  0  0  0  0  0  0  0  0  0  0
   91.9131   69.0329  -13.1440 H   0  0  0  0  0  0  0  0  0  0  0  0
   90.1559   70.7016  -12.5519 H   0  0  0  0  0  0  0  0  0  0  0  0
   94.1150   72.3632  -12.5234 H   0  0  0  0  0  0  0  0  0  0  0  0
   97.4626   72.6275  -11.3322 H   0  0  0  0  0  0  0  0  0  0  0  0
   96.1916   71.5540  -12.0935 H   0  0  0  0  0  0  0  0  0  0  0  0
   98.2680   73.0990  -13.4480 H   0  0  0  0  0  0  0  0  0  0  0  0
   96.2266   73.0594  -14.7363 H   0  0  0  0  0  0  0  0  0  0  0  0
   97.7019   72.3913  -15.5504 H   0  0  0  0  0  0  0  0  0  0  0  0
   95.3153   70.9135  -14.4056 H   0  0  0  0  0  0  0  0  0  0  0  0
   96.0406   70.8536  -16.0737 H   0  0  0  0  0  0  0  0  0  0  0  0
   96.7134   69.3619  -13.6264 H   0  0  0  0  0  0  0  0  0  0  0  0
   96.0680   68.7630  -16.1640 H   0  0  0  0  0  0  0  0  0  0  0  0
   97.1132   66.4098  -15.2364 H   0  0  0  0  0  0  0  0  0  0  0  0
   96.6691   67.3803  -13.7782 H   0  0  0  0  0  0  0  0  0  0  0  0
   94.5291   66.8064  -14.1069 H   0  0  0  0  0  0  0  0  0  0  0  0
   94.5591   67.7326  -15.6457 H   0  0  0  0  0  0  0  0  0  0  0  0
   94.9451   65.9782  -15.6457 H   0  0  0  0  0  0  0  0  0  0  0  0
   97.6252   68.3147  -17.6051 H   0  0  0  0  0  0  0  0  0  0  0  0
   98.8219   68.9874  -16.4144 H   0  0  0  0  0  0  0  0  0  0  0  0
   98.7145   66.6605  -15.3077 H   0  0  0  0  0  0  0  0  0  0  0  0
   97.9719   66.1155  -16.8499 H   0  0  0  0  0  0  0  0  0  0  0  0
   99.6197   66.8306  -16.8499 H   0  0  0  0  0  0  0  0  0  0  0  0
   99.0917   69.1360  -14.0449 H   0  0  0  0  0  0  0  0  0  0  0  0
   98.9907   70.4457  -15.2811 H   0  0  0  0  0  0  0  0  0  0  0  0
   98.4948   70.6233  -12.2795 H   0  0  0  0  0  0  0  0  0  0  0  0
   99.6970   71.5228  -13.3035 H   0  0  0  0  0  0  0  0  0  0  0  0
   97.9020   74.8740  -11.1870 H   0  0  0  0  0  0  0  0  0  0  0  0
  1  2  3  0
  2  3  1  0
  3  4  2  0
  4  5  1  0
  5  6  1  0
  6  7  3  0
  7  8  1  0
  8  9  1  0
  9 10  1  0
 10 11  2  0
 11 12  1  0
 12 13  2  0
 13 14  1  0
 14 15  2  0
  5 16  2  0
 16 17  1  0
 17 18  1  0
 18 19  1  0
 19 20  1  0
 20 21  1  0
 21 22  1  0
 22 23  1  0
 23 24  1  0
 24 25  1  0
 23 26  1  0
 26 27  1  0
 22 28  1  0
 28 29  1  0
 17 30  2  0
 30 31  1  0
 30  3  1  0
 15 10  1  0
 29 19  1  0
  1 32  1  0
  4 33  1  0
  8 34  1  0
  8 35  1  0
 11 36  1  0
 12 37  1  0
 13 38  1  0
 14 39  1  0
 15 40  1  0
 16 41  1  0
 18 42  1  0
 18 43  1  0
 19 44  1  1
 20 45  1  0
 20 46  1  0
 21 47  1  0
 21 48  1  0
 22 49  1  6
 23 50  1  0
 24 51  1  0
 24 52  1  0
 25 53  1  0
 25 54  1  0
 25 55  1  0
 26 56  1  0
 26 57  1  0
 27 58  1  0
 27 59  1  0
 27 60  1  0
 28 61  1  0
 28 62  1  0
 29 63  1  0
 29 64  1  0
 31 65  1  0
M  CHG  2  19   1  23   1
M  END
>  <meeko>  (5) 
{"is_sidechain": [false], "free_energy": -5.566, "intermolecular_energy": -7.725, "internal_energy": -1.777}

$$$$
5a7b_ligand
     RDKit          3D

 65 67  0  0  0  0  0  0  0  0999 V2000
   91.9550   73.8720  -12.7270 C   0  0  0  0  0  0  0  0  0  0  0  0
   92.1330   72.8750  -13.3720 C   0  0  0  0  0  0  0  0  0  0  0  0
   92.3350   71.6900  -14.1510 C   0  0  0  0  0  0  0  0  0  0  0  0
   91.4000   71.3690  -15.1390 C   0  0  0  0  0  0  0  0  0  0  0  0
   91.5600   70.2140  -15.9050 C   0  0  0  0  0  0  0  0  0  0  0  0
   90.6010   69.8710  -16.9060 C   0  0  0  0  0  0  0  0  0  0  0  0
   89.8080   69.5450  -17.7480 C   0  0  0  0  0  0  0  0  0  0  0  0
   88.8630   69.1580  -18.8040 C   0  0  0  0  0  0  0  0  0  0  0  0
   89.4800   69.4020  -20.0670 O   0  0  0  0  0  0  0  0  0  0  0  0
   88.8390   70.2660  -20.9130 C   0  0  0  0  0  0  0  0  0  0  0  0
   89.6030   71.3660  -21.3120 C   0  0  0  0  0  0  0  0  0  0  0  0
   89.0730   72.3260  -22.1760 C   0  0  0  0  0  0  0  0  0  0  0  0
   87.7700   72.1910  -22.6460 C   0  0  0  0  0  0  0  0  0  0  0  0
   87.0020   71.0970  -22.2540 C   0  0  0  0  0  0  0  0  0  0  0  0
   87.5330   70.1350  -21.3890 C   0  0  0  0  0  0  0  0  0  0  0  0
   92.6590   69.3760  -15.6920 C   0  0  0  0  0  0  0  0  0  0  0  0
   93.6100   69.6800  -14.7050 C   0  0  0  0  0  0  0  0  0  0  0  0
   94.7740   68.7580  -14.4790 C   0  0  0  0  0  0  0  0  0  0  0  0
   96.1180   69.3370  -14.9320 N   0  0  2  0  0  0  0  0  0  0  0  0
   96.4680   69.0580  -16.3700 C   0  0  0  0  0  0  0  0  0  0  0  0
   96.9830   67.6350  -16.5580 C   0  0  0  0  0  0  0  0  0  0  0  0
   97.9420   67.2010  -15.4410 C   0  0  1  0  0  0  0  0  0  0  0  0
   99.0960   66.3360  -15.9880 N   0  0  0  0  0  0  0  0  0  0  0  0
   98.7290   65.7050  -17.3470 C   0  0  0  0  0  0  0  0  0  0  0  0
   99.6610   64.5500  -17.6770 C   0  0  0  0  0  0  0  0  0  0  0  0
   99.6870   65.2660  -15.0630 C   0  0  0  0  0  0  0  0  0  0  0  0
   98.6470   64.6690  -14.1380 C   0  0  0  0  0  0  0  0  0  0  0  0
   98.4200   68.3630  -14.5740 C   0  0  0  0  0  0  0  0  0  0  0  0
   97.2280   69.0830  -13.9400 C   0  0  0  0  0  0  0  0  0  0  0  0
   93.4330   70.8410  -13.9390 C   0  0  0  0  0  0  0  0  0  0  0  0
   94.3670   71.0960  -12.9650 O   0  0  0  0  0  0  0  0  0  0  0  0
   91.7919   74.7854  -12.1361 H   0  0  0  0  0  0  0  0  0  0  0  0
   90.5366   72.0281  -15.3129 H   0  0  0  0  0  0  0  0  0  0  0  0
   88.6169   68.0900  -18.7101 H   0  0  0  0  0  0  0  0  0  0  0  0
   87.9351   69.7422  -18.7157 H   0  0  0  0  0  0  0  0  0  0  0  0
   90.6328   71.4766  -20.9414 H   0  0  0  0  0  0  0  0  0  0  0  0
   89.6839   73.1872  -22.4846 H   0  0  0  0  0  0  0  0  0  0  0  0
   87.3477   72.9462  -23.3252 H   0  0  0  0  0  0  0  0  0  0  0  0
   85.9727   70.9892  -22.6267 H   0  0  0  0  0  0  0  0  0  0  0  0
   86.9208   69.2738  -21.0832 H   0  0  0  0  0  0  0  0  0  0  0  0
   92.7796   68.4698  -16.3037 H   0  0  0  0  0  0  0  0  0  0  0  0
   94.8368   68.5359  -13.4035 H   0  0  0  0  0  0  0  0  0  0  0  0
   94.5923   67.8580  -15.0847 H   0  0  0  0  0  0  0  0  0  0  0  0
   95.9400   70.3530  -14.9020 H   0  0  0  0  0  0  0  0  0  0  0  0
   95.5695   69.1969  -16.9892 H   0  0  0  0  0  0  0  0  0  0  0  0
   97.2648   69.7541  -16.6708 H   0  0  0  0  0  0  0  0  0  0  0  0
   96.1237   66.9484  -16.5709 H   0  0  0  0  0  0  0  0  0  0  0  0
   97.5408   67.6055  -17.5056 H   0  0  0  0  0  0  0  0  0  0  0  0
   97.3634   66.5605  -14.7590 H   0  0  0  0  0  0  0  0  0  0  0  0
   99.8730   66.9770  -16.2100 H   0  0  0  0  0  0  0  0  0  0  0  0
   97.6949   65.3325  -17.3038 H   0  0  0  0  0  0  0  0  0  0  0  0
   98.8282   66.4719  -18.1293 H   0  0  0  0  0  0  0  0  0  0  0  0
  100.0271   64.0963  -16.7442 H   0  0  0  0  0  0  0  0  0  0  0  0
   99.1161   63.7950  -18.2628 H   0  0  0  0  0  0  0  0  0  0  0  0
  100.5141   64.9231  -18.2628 H   0  0  0  0  0  0  0  0  0  0  0  0
  100.1151   64.4622  -15.6799 H   0  0  0  0  0  0  0  0  0  0  0  0
  100.4558   65.7465  -14.4401 H   0  0  0  0  0  0  0  0  0  0  0  0
   98.9446   64.8398  -13.0929 H   0  0  0  0  0  0  0  0  0  0  0  0
   97.6734   65.1457  -14.3246 H   0  0  0  0  0  0  0  0  0  0  0  0
   98.5677   63.5879  -14.3246 H   0  0  0  0  0  0  0  0  0  0  0  0
   99.0743   67.9763  -13.7788 H   0  0  0  0  0  0  0  0  0  0  0  0
   98.9715   69.0751  -15.2054 H   0  0  0  0  0  0  0  0  0  0  0  0
   96.8352   68.4630  -13.1207 H   0  0  0  0  0  0  0  0  0  0  0  0
   97.5805   70.0580  -13.5725 H   0  0  0  0  0  0  0  0  0  0  0  0
   94.0240   70.7330  -12.1210 H   0  0  0  0  0  0  0  0  0  0  0  0
  1  2  3  0
  2  3  1  0
  3  4  2  0
  4  5  1  0
  5  6  1  0
  6  7  3  0
  7  8  1  0
  8  9  1  0
  9 10  1  0
 10 11  2  0
 11 12  1  0
 12 13  2  0
 13 14  1  0
 14 15  2  0
  5 16  2  0
 16 17  1  0
 17 18  1  0
 18 19  1  0
 19 20  1  0
 20 21  1  0
 21 22  1  0
 22 23  1  0
 23 24  1  0
 24 25  1  0
 23 26  1  0
 26 27  1  0
 22 28  1  0
 28 29  1  0
 17 30  2  0
 30 31  1  0
 30  3  1  0
 15 10  1  0
 29 19  1  0
  1 32  1  0
  4 33  1  0
  8 34  1  0
  8 35  1  0
 11 36  1  0
 12 37  1  0
 13 38  1  0
 14 39  1  0
 15 40  1  0
 16 41  1  0
 18 42  1  0
 18 43  1  0
 19 44  1  1
 20 45  1  0
 20 46  1  0
 21 47  1  0
 21 48  1  0
 22 49  1  6
 23 50  1  0
 24 51  1  0
 24 52  1  0
 25 53  1  0
 25 54  1  0
 25 55  1  0
 26 56  1  0
 26 57  1  0
 27 58  1  0
 27 59  1  0
 27 60  1  0
 28 61  1  0
 28 62  1  0
 29 63  1  0
 29 64  1  0
 31 65  1  0
M  CHG  2  19   1  23   1
M  END
>  <meeko>  (6) 
{"is_sidechain": [false], "free_energy": -5.467, "intermolecular_energy": -8.066, "internal_energy": -1.289}

$$$$
5a7b_ligand
     RDKit          3D

 65 67  0  0  0  0  0  0  0  0999 V2000
  101.5620   71.3990  -11.3560 C   0  0  0  0  0  0  0  0  0  0  0  0
  100.4370   71.2960  -11.7640 C   0  0  0  0  0  0  0  0  0  0  0  0
   99.0950   71.1870  -12.2530 C   0  0  0  0  0  0  0  0  0  0  0  0
   98.3130   72.3430  -12.3280 C   0  0  0  0  0  0  0  0  0  0  0  0
   96.9970   72.2690  -12.7860 C   0  0  0  0  0  0  0  0  0  0  0  0
   96.1870   73.4430  -12.8520 C   0  0  0  0  0  0  0  0  0  0  0  0
   95.4720   74.4070  -12.9100 C   0  0  0  0  0  0  0  0  0  0  0  0
   94.6200   75.6030  -12.9550 C   0  0  0  0  0  0  0  0  0  0  0  0
   95.1980   76.5950  -12.1080 O   0  0  0  0  0  0  0  0  0  0  0  0
   96.3920   77.1310  -12.5090 C   0  0  0  0  0  0  0  0  0  0  0  0
   97.4100   77.0670  -11.5530 C   0  0  0  0  0  0  0  0  0  0  0  0
   98.6800   77.5760  -11.8300 C   0  0  0  0  0  0  0  0  0  0  0  0
   98.9390   78.1560  -13.0680 C   0  0  0  0  0  0  0  0  0  0  0  0
   97.9300   78.2240  -14.0260 C   0  0  0  0  0  0  0  0  0  0  0  0
   96.6580   77.7140  -13.7490 C   0  0  0  0  0  0  0  0  0  0  0  0
   96.4570   71.0390  -13.1750 C   0  0  0  0  0  0  0  0  0  0  0  0
   97.2250   69.8660  -13.1070 C   0  0  0  0  0  0  0  0  0  0  0  0
   96.6220   68.5530  -13.5130 C   0  0  0  0  0  0  0  0  0  0  0  0
   96.5020   68.3690  -15.0290 N   0  0  2  0  0  0  0  0  0  0  0  0
   95.8380   67.0870  -15.4570 C   0  0  0  0  0  0  0  0  0  0  0  0
   96.7920   65.9010  -15.3590 C   0  0  0  0  0  0  0  0  0  0  0  0
   98.2030   66.2340  -15.8610 C   0  0  1  0  0  0  0  0  0  0  0  0
   98.8280   65.0480  -16.6240 N   0  0  0  0  0  0  0  0  0  0  0  0
   97.9800   63.7700  -16.4680 C   0  0  0  0  0  0  0  0  0  0  0  0
   98.1210   62.8730  -17.6870 C   0  0  0  0  0  0  0  0  0  0  0  0
  100.3030   64.7260  -16.3590 C   0  0  0  0  0  0  0  0  0  0  0  0
  100.5920   64.5330  -14.8850 C   0  0  0  0  0  0  0  0  0  0  0  0
   98.2710   67.5490  -16.6330 C   0  0  0  0  0  0  0  0  0  0  0  0
   97.7790   68.7070  -15.7630 C   0  0  0  0  0  0  0  0  0  0  0  0
   98.5450   69.9550  -12.6400 C   0  0  0  0  0  0  0  0  0  0  0  0
   99.2600   68.7860  -12.5620 O   0  0  0  0  0  0  0  0  0  0  0  0
  102.5923   71.4933  -10.9823 H   0  0  0  0  0  0  0  0  0  0  0  0
   98.7356   73.3125  -12.0256 H   0  0  0  0  0  0  0  0  0  0  0  0
   94.5635   75.9812  -13.9864 H   0  0  0  0  0  0  0  0  0  0  0  0
   93.6034   75.3580  -12.6138 H   0  0  0  0  0  0  0  0  0  0  0  0
   97.2082   76.6109  -10.5725 H   0  0  0  0  0  0  0  0  0  0  0  0
   99.4743   77.5187  -11.0712 H   0  0  0  0  0  0  0  0  0  0  0  0
   99.9379   78.5598  -13.2896 H   0  0  0  0  0  0  0  0  0  0  0  0
   98.1350   78.6812  -15.0053 H   0  0  0  0  0  0  0  0  0  0  0  0
   95.8655   77.7723  -14.5096 H   0  0  0  0  0  0  0  0  0  0  0  0
   95.4198   70.9903  -13.5380 H   0  0  0  0  0  0  0  0  0  0  0  0
   97.2521   67.7442  -13.1145 H   0  0  0  0  0  0  0  0  0  0  0  0
   95.6002   68.5308  -13.1062 H   0  0  0  0  0  0  0  0  0  0  0  0
   95.8270   69.1070  -15.2860 H   0  0  0  0  0  0  0  0  0  0  0  0
   94.9693   66.9010  -14.8083 H   0  0  0  0  0  0  0  0  0  0  0  0
   95.5283   67.1937  -16.5071 H   0  0  0  0  0  0  0  0  0  0  0  0
   96.8575   65.5879  -14.3065 H   0  0  0  0  0  0  0  0  0  0  0  0
   96.3925   65.0992  -15.9974 H   0  0  0  0  0  0  0  0  0  0  0  0
   98.8255   66.3988  -14.9692 H   0  0  0  0  0  0  0  0  0  0  0  0
   98.7650   65.2700  -17.6290 H   0  0  0  0  0  0  0  0  0  0  0  0
   98.3166   63.2211  -15.5761 H   0  0  0  0  0  0  0  0  0  0  0  0
   96.9238   64.0596  -16.3652 H   0  0  0  0  0  0  0  0  0  0  0  0
   98.2842   61.8350  -17.3615 H   0  0  0  0  0  0  0  0  0  0  0  0
   97.2032   62.9280  -18.2908 H   0  0  0  0  0  0  0  0  0  0  0  0
   98.9777   63.2069  -18.2908 H   0  0  0  0  0  0  0  0  0  0  0  0
  100.5655   63.8021  -16.8951 H   0  0  0  0  0  0  0  0  0  0  0  0
  100.9026   65.5783  -16.7113 H   0  0  0  0  0  0  0  0  0  0  0  0
   99.8225   65.0469  -14.2901 H   0  0  0  0  0  0  0  0  0  0  0  0
  100.5829   63.4591  -14.6471 H   0  0  0  0  0  0  0  0  0  0  0  0
  101.5805   64.9529  -14.6471 H   0  0  0  0  0  0  0  0  0  0  0  0
   99.3120   67.7389  -16.9336 H   0  0  0  0  0  0  0  0  0  0  0  0
   97.6274   67.4734  -17.5219 H   0  0  0  0  0  0  0  0  0  0  0  0
   98.5575   68.9509  -15.0251 H   0  0  0  0  0  0  0  0  0  0  0  0
   97.5716   69.5611  -16.4245 H   0  0  0  0  0  0  0  0  0  0  0  0
   98.7380   68.0870  -13.0090 H   0  0  0  0  0  0  0  0  0  0  0  0
  1  2  3  0
  2  3  1  0
  3  4  2  0
  4  5  1  0
  5  6  1  0
  6  7  3  0
  7  8  1  0
  8  9  1  0
  9 10  1  0
 10 11  2  0
 11 12  1  0
 12 13  2  0
 13 14  1  0
 14 15  2  0
  5 16  2  0
 16 17  1  0
 17 18  1  0
 18 19  1  0
 19 20  1  0
 20 21  1  0
 21 22  1  0
 22 23  1  0
 23 24  1  0
 24 25  1  0
 23 26  1  0
 26 27  1  0
 22 28  1  0
 28 29  1  0
 17 30  2  0
 30 31  1  0
 30  3  1  0
 15 10  1  0
 29 19  1  0
  1 32  1  0
  4 33  1  0
  8 34  1  0
  8 35  1  0
 11 36  1  0
 12 37  1  0
 13 38  1  0
 14 39  1  0
 15 40  1  0
 16 41  1  0
 18 42  1  0
 18 43  1  0
 19 44  1  1
 20 45  1  0
 20 46  1  0
 21 47  1  0
 21 48  1  0
 22 49  1  6
 23 50  1  0
 24 51  1  0
 24 52  1  0
 25 53  1  0
 25 54  1  0
 25 55  1  0
 26 56  1  0
 26 57  1  0
 27 58  1  0
 27 59  1  0
 27 60  1  0
 28 61  1  0
 28 62  1  0
 29 63  1  0
 29 64  1  0
 31 65  1  0
M  CHG  2  19   1  23   1
M  END
>  <meeko>  (7) 
{"is_sidechain": [false], "free_energy": -5.444, "intermolecular_energy": -8.035, "internal_energy": -1.284}

$$$$
5a7b_ligand
     RDKit          3D

 65 67  0  0  0  0  0  0  0  0999 V2000
   98.4630   67.0090  -16.2540 C   0  0  0  0  0  0  0  0  0  0  0  0
   97.7030   67.9000  -15.9850 C   0  0  0  0  0  0  0  0  0  0  0  0
   96.7870   68.9540  -15.6660 C   0  0  0  0  0  0  0  0  0  0  0  0
   95.4260   68.7590  -15.9190 C   0  0  0  0  0  0  0  0  0  0  0  0
   94.5090   69.7710  -15.6330 C   0  0  0  0  0  0  0  0  0  0  0  0
   93.1190   69.5850  -15.9020 C   0  0  0  0  0  0  0  0  0  0  0  0
   91.9450   69.4690  -16.1260 C   0  0  0  0  0  0  0  0  0  0  0  0
   90.5100   69.3570  -16.4220 C   0  0  0  0  0  0  0  0  0  0  0  0
   90.1700   70.3680  -17.3700 O   0  0  0  0  0  0  0  0  0  0  0  0
   89.4460   69.9740  -18.4630 C   0  0  0  0  0  0  0  0  0  0  0  0
   89.0780   71.0120  -19.3230 C   0  0  0  0  0  0  0  0  0  0  0  0
   88.3380   70.7510  -20.4780 C   0  0  0  0  0  0  0  0  0  0  0  0
   87.9600   69.4460  -20.7790 C   0  0  0  0  0  0  0  0  0  0  0  0
   88.3230   68.4050  -19.9270 C   0  0  0  0  0  0  0  0  0  0  0  0
   89.0650   68.6660  -18.7700 C   0  0  0  0  0  0  0  0  0  0  0  0
   94.9470   70.9820  -15.0880 C   0  0  0  0  0  0  0  0  0  0  0  0
   96.3100   71.1990  -14.8260 C   0  0  0  0  0  0  0  0  0  0  0  0
   96.7610   72.5120  -14.2570 C   0  0  0  0  0  0  0  0  0  0  0  0
   96.1730   72.8240  -12.8770 N   0  0  2  0  0  0  0  0  0  0  0  0
   94.9530   73.7060  -12.8990 C   0  0  0  0  0  0  0  0  0  0  0  0
   95.3220   75.1710  -13.1060 C   0  0  0  0  0  0  0  0  0  0  0  0
   96.5520   75.5920  -12.2910 C   0  0  1  0  0  0  0  0  0  0  0  0
   96.4030   77.0230  -11.7370 N   0  0  0  0  0  0  0  0  0  0  0  0
   97.4950   77.9580  -12.2950 C   0  0  0  0  0  0  0  0  0  0  0  0
   97.3780   78.0880  -13.8050 C   0  0  0  0  0  0  0  0  0  0  0  0
   96.3020   77.1950  -10.2170 C   0  0  0  0  0  0  0  0  0  0  0  0
   94.9470   77.7200   -9.7890 C   0  0  0  0  0  0  0  0  0  0  0  0
   96.9450   74.5720  -11.2260 C   0  0  0  0  0  0  0  0  0  0  0  0
   97.2270   73.2110  -11.8650 C   0  0  0  0  0  0  0  0  0  0  0  0
   97.2200   70.1740  -15.1230 C   0  0  0  0  0  0  0  0  0  0  0  0
   98.5470   70.4280  -14.8790 O   0  0  0  0  0  0  0  0  0  0  0  0
   99.1587   66.1933  -16.5003 H   0  0  0  0  0  0  0  0  0  0  0  0
   95.0775   67.8063  -16.3442 H   0  0  0  0  0  0  0  0  0  0  0  0
   90.2930   68.3640  -16.8426 H   0  0  0  0  0  0  0  0  0  0  0  0
   89.9211   69.4855  -15.5018 H   0  0  0  0  0  0  0  0  0  0  0  0
   89.3742   72.0449  -19.0878 H   0  0  0  0  0  0  0  0  0  0  0  0
   88.0544   71.5754  -21.1487 H   0  0  0  0  0  0  0  0  0  0  0  0
   87.3760   69.2368  -21.6874 H   0  0  0  0  0  0  0  0  0  0  0  0
   88.0248   67.3733  -20.1651 H   0  0  0  0  0  0  0  0  0  0  0  0
   89.3486   67.8399  -18.1013 H   0  0  0  0  0  0  0  0  0  0  0  0
   94.2167   71.7729  -14.8621 H   0  0  0  0  0  0  0  0  0  0  0  0
   97.8574   72.4939  -14.1705 H   0  0  0  0  0  0  0  0  0  0  0  0
   96.4048   73.2963  -14.9411 H   0  0  0  0  0  0  0  0  0  0  0  0
   95.8200   71.9020  -12.5760 H   0  0  0  0  0  0  0  0  0  0  0  0
   94.2950   73.3844  -13.7197 H   0  0  0  0  0  0  0  0  0  0  0  0
   94.4446   73.6136  -11.9279 H   0  0  0  0  0  0  0  0  0  0  0  0
   95.5344   75.3332  -14.1731 H   0  0  0  0  0  0  0  0  0  0  0  0
   94.4720   75.7796  -12.7637 H   0  0  0  0  0  0  0  0  0  0  0  0
   97.4021   75.6113  -12.9889 H   0  0  0  0  0  0  0  0  0  0  0  0
   95.5250   77.4050  -12.1220 H   0  0  0  0  0  0  0  0  0  0  0  0
   97.3853   78.9527  -11.8383 H   0  0  0  0  0  0  0  0  0  0  0  0
   98.4798   77.5312  -12.0542 H   0  0  0  0  0  0  0  0  0  0  0  0
   96.6606   78.8851  -14.0499 H   0  0  0  0  0  0  0  0  0  0  0  0
   98.3619   78.3373  -14.2289 H   0  0  0  0  0  0  0  0  0  0  0  0
   97.0268   77.1356  -14.2289 H   0  0  0  0  0  0  0  0  0  0  0  0
   96.4712   76.2193   -9.7381 H   0  0  0  0  0  0  0  0  0  0  0  0
   97.0611   77.9292   -9.9092 H   0  0  0  0  0  0  0  0  0  0  0  0
   94.8923   77.7412   -8.6906 H   0  0  0  0  0  0  0  0  0  0  0  0
   94.8069   78.7375  -10.1828 H   0  0  0  0  0  0  0  0  0  0  0  0
   94.1579   77.0625  -10.1828 H   0  0  0  0  0  0  0  0  0  0  0  0
   97.8489   74.9219  -10.7059 H   0  0  0  0  0  0  0  0  0  0  0  0
   96.1144   74.4647  -10.5128 H   0  0  0  0  0  0  0  0  0  0  0  0
   98.2037   73.2524  -12.3694 H   0  0  0  0  0  0  0  0  0  0  0  0
   97.2200   72.4555  -11.0655 H   0  0  0  0  0  0  0  0  0  0  0  0
   98.6400   71.3880  -14.7040 H   0  0  0  0  0  0  0  0  0  0  0  0
  1  2  3  0
  2  3  1  0
  3  4  2  0
  4  5  1  0
  5  6  1  0
  6  7  3  0
  7  8  1  0
  8  9  1  0
  9 10  1  0
 10 11  2  0
 11 12  1  0
 12 13  2  0
 13 14  1  0
 14 15  2  0
  5 16  2  0
 16 17  1  0
 17 18  1  0
 18 19  1  0
 19 20  1  0
 20 21  1  0
 21 22  1  0
 22 23  1  0
 23 24  1  0
 24 25  1  0
 23 26  1  0
 26 27  1  0
 22 28  1  0
 28 29  1  0
 17 30  2  0
 30 31  1  0
 30  3  1  0
 15 10  1  0
 29 19  1  0
  1 32  1  0
  4 33  1  0
  8 34  1  0
  8 35  1  0
 11 36  1  0
 12 37  1  0
 13 38  1  0
 14 39  1  0
 15 40  1  0
 16 41  1  0
 18 42  1  0
 18 43  1  0
 19 44  1  6
 20 45  1  0
 20 46  1  0
 21 47  1  0
 21 48  1  0
 22 49  1  1
 23 50  1  0
 24 51  1  0
 24 52  1  0
 25 53  1  0
 25 54  1  0
 25 55  1  0
 26 56  1  0
 26 57  1  0
 27 58  1  0
 27 59  1  0
 27 60  1  0
 28 61  1  0
 28 62  1  0
 29 63  1  0
 29 64  1  0
 31 65  1  0
M  CHG  2  19   1  23   1
M  END
>  <meeko>  (8) 
{"is_sidechain": [false], "free_energy": -5.35, "intermolecular_energy": -8.29, "internal_energy": -0.889}

$$$$
5a7b_ligand
     RDKit          3D

 65 67  0  0  0  0  0  0  0  0999 V2000
   98.0210   72.3470  -12.5830 C   0  0  0  0  0  0  0  0  0  0  0  0
   97.4750   71.6240  -13.3720 C   0  0  0  0  0  0  0  0  0  0  0  0
   96.8150   70.7700  -14.3130 C   0  0  0  0  0  0  0  0  0  0  0  0
   95.4620   70.9920  -14.5850 C   0  0  0  0  0  0  0  0  0  0  0  0
   94.7850   70.1690  -15.4860 C   0  0  0  0  0  0  0  0  0  0  0  0
   93.3990   70.3800  -15.7590 C   0  0  0  0  0  0  0  0  0  0  0  0
   92.2310   70.5210  -16.0030 C   0  0  0  0  0  0  0  0  0  0  0  0
   90.8020   70.6580  -16.3160 C   0  0  0  0  0  0  0  0  0  0  0  0
   90.3420   69.4170  -16.8490 O   0  0  0  0  0  0  0  0  0  0  0  0
   89.6370   69.4700  -18.0210 C   0  0  0  0  0  0  0  0  0  0  0  0
   89.4690   70.7560  -18.5430 C   0  0  0  0  0  0  0  0  0  0  0  0
   88.7710   70.9560  -19.7360 C   0  0  0  0  0  0  0  0  0  0  0  0
   88.2350   69.8660  -20.4150 C   0  0  0  0  0  0  0  0  0  0  0  0
   88.3980   68.5810  -19.9020 C   0  0  0  0  0  0  0  0  0  0  0  0
   89.0980   68.3810  -18.7070 C   0  0  0  0  0  0  0  0  0  0  0  0
   95.4580   69.1230  -16.1240 C   0  0  0  0  0  0  0  0  0  0  0  0
   96.8170   68.8820  -15.8650 C   0  0  0  0  0  0  0  0  0  0  0  0
   97.5180   67.7430  -16.5470 C   0  0  0  0  0  0  0  0  0  0  0  0
   98.1330   66.7270  -15.5800 N   0  0  2  0  0  0  0  0  0  0  0  0
   99.3250   65.9850  -16.1230 C   0  0  0  0  0  0  0  0  0  0  0  0
   98.9070   64.8700  -17.0760 C   0  0  0  0  0  0  0  0  0  0  0  0
   97.6870   64.0880  -16.5720 C   0  0  1  0  0  0  0  0  0  0  0  0
   97.8080   62.5830  -16.8870 N   0  0  0  0  0  0  0  0  0  0  0  0
   98.7880   62.3300  -18.0510 C   0  0  0  0  0  0  0  0  0  0  0  0
   99.8650   61.3370  -17.6470 C   0  0  0  0  0  0  0  0  0  0  0  0
   96.5140   61.7950  -17.1190 C   0  0  0  0  0  0  0  0  0  0  0  0
   96.2420   61.5600  -18.5910 C   0  0  0  0  0  0  0  0  0  0  0  0
   97.3540   64.3710  -15.1100 C   0  0  0  0  0  0  0  0  0  0  0  0
   97.0950   65.8640  -14.8990 C   0  0  0  0  0  0  0  0  0  0  0  0
   97.4830   69.7140  -14.9530 C   0  0  0  0  0  0  0  0  0  0  0  0
   98.8040   69.4360  -14.7030 O   0  0  0  0  0  0  0  0  0  0  0  0
   98.5209   73.0090  -11.8606 H   0  0  0  0  0  0  0  0  0  0  0  0
   94.9301   71.8167  -14.0881 H   0  0  0  0  0  0  0  0  0  0  0  0
   90.2419   70.9009  -15.4010 H   0  0  0  0  0  0  0  0  0  0  0  0
   90.6485   71.4658  -17.0467 H   0  0  0  0  0  0  0  0  0  0  0  0
   89.8911   71.6196  -18.0083 H   0  0  0  0  0  0  0  0  0  0  0  0
   88.6453   71.9723  -20.1378 H   0  0  0  0  0  0  0  0  0  0  0  0
   87.6839   70.0186  -21.3547 H   0  0  0  0  0  0  0  0  0  0  0  0
   87.9744   67.7195  -20.4390 H   0  0  0  0  0  0  0  0  0  0  0  0
   89.2236   67.3637  -18.3078 H   0  0  0  0  0  0  0  0  0  0  0  0
   94.9176   68.4821  -16.8362 H   0  0  0  0  0  0  0  0  0  0  0  0
   96.7898   67.2190  -17.1835 H   0  0  0  0  0  0  0  0  0  0  0  0
   98.3471   68.1773  -17.1249 H   0  0  0  0  0  0  0  0  0  0  0  0
   98.5210   67.3340  -14.8410 H   0  0  0  0  0  0  0  0  0  0  0  0
   99.9702   66.6932  -16.6635 H   0  0  0  0  0  0  0  0  0  0  0  0
   99.8617   65.5308  -15.2770 H   0  0  0  0  0  0  0  0  0  0  0  0
   98.6618   65.3144  -18.0519 H   0  0  0  0  0  0  0  0  0  0  0  0
   99.7471   64.1639  -17.1507 H   0  0  0  0  0  0  0  0  0  0  0  0
   96.8186   64.4598  -17.1356 H   0  0  0  0  0  0  0  0  0  0  0  0
   98.2640   62.1400  -16.0750 H   0  0  0  0  0  0  0  0  0  0  0  0
   98.2309   61.9275  -18.9098 H   0  0  0  0  0  0  0  0  0  0  0  0
   99.2700   63.2821  -18.3178 H   0  0  0  0  0  0  0  0  0  0  0  0
   99.9222   61.2843  -16.5498 H   0  0  0  0  0  0  0  0  0  0  0  0
   99.6174   60.3436  -18.0494 H   0  0  0  0  0  0  0  0  0  0  0  0
  100.8350   61.6643  -18.0494 H   0  0  0  0  0  0  0  0  0  0  0  0
   96.5972   60.8211  -16.6144 H   0  0  0  0  0  0  0  0  0  0  0  0
   95.6809   62.3872  -16.7124 H   0  0  0  0  0  0  0  0  0  0  0  0
   95.4138   60.8445  -18.7012 H   0  0  0  0  0  0  0  0  0  0  0  0
   95.9702   62.5121  -19.0702 H   0  0  0  0  0  0  0  0  0  0  0  0
   97.1445   61.1528  -19.0702 H   0  0  0  0  0  0  0  0  0  0  0  0
   96.4548   63.8041  -14.8272 H   0  0  0  0  0  0  0  0  0  0  0  0
   98.2065   64.0660  -14.4854 H   0  0  0  0  0  0  0  0  0  0  0  0
   96.1045   66.1127  -15.3077 H   0  0  0  0  0  0  0  0  0  0  0  0
   97.1452   66.0655  -13.8188 H   0  0  0  0  0  0  0  0  0  0  0  0
   99.0900   68.7490  -15.3420 H   0  0  0  0  0  0  0  0  0  0  0  0
  1  2  3  0
  2  3  1  0
  3  4  2  0
  4  5  1  0
  5  6  1  0
  6  7  3  0
  7  8  1  0
  8  9  1  0
  9 10  1  0
 10 11  2  0
 11 12  1  0
 12 13  2  0
 13 14  1  0
 14 15  2  0
  5 16  2  0
 16 17  1  0
 17 18  1  0
 18 19  1  0
 19 20  1  0
 20 21  1  0
 21 22  1  0
 22 23  1  0
 23 24  1  0
 24 25  1  0
 23 26  1  0
 26 27  1  0
 22 28  1  0
 28 29  1  0
 17 30  2  0
 30 31  1  0
 30  3  1  0
 15 10  1  0
 29 19  1  0
  1 32  1  0
  4 33  1  0
  8 34  1  0
  8 35  1  0
 11 36  1  0
 12 37  1  0
 13 38  1  0
 14 39  1  0
 15 40  1  0
 16 41  1  0
 18 42  1  0
 18 43  1  0
 19 44  1  6
 20 45  1  0
 20 46  1  0
 21 47  1  0
 21 48  1  0
 22 49  1  1
 23 50  1  0
 24 51  1  0
 24 52  1  0
 25 53  1  0
 25 54  1  0
 25 55  1  0
 26 56  1  0
 26 57  1  0
 27 58  1  0
 27 59  1  0
 27 60  1  0
 28 61  1  0
 28 62  1  0
 29 63  1  0
 29 64  1  0
 31 65  1  0
M  CHG  2  19   1  23   1
M  END
>  <meeko>  (9) 
{"is_sidechain": [false], "free_energy": -5.266, "intermolecular_energy": -7.801, "internal_energy": -1.252}

$$$$
