3syr_ligand
     RDKit          3D

 33 34  0  0  0  0  0  0  0  0999 V2000
   36.3990   25.4580   31.1180 O   0  0  0  0  0  0  0  0  0  0  0  0
   35.6590   24.8270   30.3750 C   0  0  0  0  0  0  0  0  0  0  0  0
   34.2940   24.9140   30.4490 N   0  0  0  0  0  0  0  0  0  0  0  0
   33.3870   24.2460   29.6600 C   0  0  0  0  0  0  0  0  0  0  0  0
   32.1830   24.4040   29.8470 O   0  0  0  0  0  0  0  0  0  0  0  0
   33.9340   23.4010   28.6980 N   0  0  0  0  0  0  0  0  0  0  0  0
   33.0120   22.7320   27.7760 C   0  0  2  0  0  0  0  0  0  0  0  0
   32.9530   21.3410   28.1230 O   0  0  0  0  0  0  0  0  0  0  0  0
   31.9560   20.6280   27.3730 C   0  0  2  0  0  0  0  0  0  0  0  0
   31.8910   19.1820   27.8900 C   0  0  0  0  0  0  0  0  0  0  0  0
   32.9820   18.4030   27.3960 O   0  0  0  0  0  0  0  0  0  0  0  0
   32.3040   20.6590   25.8790 C   0  0  1  0  0  0  0  0  0  0  0  0
   31.2800   20.0330   25.1050 O   0  0  0  0  0  0  0  0  0  0  0  0
   32.4800   22.1070   25.4080 C   0  0  2  0  0  0  0  0  0  0  0  0
   32.9410   22.1210   24.0440 O   0  0  0  0  0  0  0  0  0  0  0  0
   33.4530   22.8840   26.3000 C   0  0  1  0  0  0  0  0  0  0  0  0
   33.4950   24.2480   25.8760 O   0  0  0  0  0  0  0  0  0  0  0  0
   35.3040   23.2650   28.5480 C   0  0  0  0  0  0  0  0  0  0  0  0
   36.1640   23.9190   29.3280 C   0  0  0  0  0  0  0  0  0  0  0  0
   37.4970   23.7960   29.1950 F   0  0  0  0  0  0  0  0  0  0  0  0
   33.9110   25.5260   31.1530 H   0  0  0  0  0  0  0  0  0  0  0  0
   32.0221   23.2024   27.8696 H   0  0  0  0  0  0  0  0  0  0  0  0
   30.9724   21.1032   27.5023 H   0  0  0  0  0  0  0  0  0  0  0  0
   31.9277   19.1928   28.9893 H   0  0  0  0  0  0  0  0  0  0  0  0
   30.9533   18.7291   27.5355 H   0  0  0  0  0  0  0  0  0  0  0  0
   33.8020   18.8990   27.5570 H   0  0  0  0  0  0  0  0  0  0  0  0
   33.2450   20.1072   25.7377 H   0  0  0  0  0  0  0  0  0  0  0  0
   31.6220   19.9560   24.1910 H   0  0  0  0  0  0  0  0  0  0  0  0
   31.5014   22.6049   25.4751 H   0  0  0  0  0  0  0  0  0  0  0  0
   33.2320   21.2220   23.8040 H   0  0  0  0  0  0  0  0  0  0  0  0
   34.4741   22.4839   26.2147 H   0  0  0  0  0  0  0  0  0  0  0  0
   33.2110   24.2710   24.9410 H   0  0  0  0  0  0  0  0  0  0  0  0
   35.6929   22.5990   27.7636 H   0  0  0  0  0  0  0  0  0  0  0  0
  1  2  2  0
  2  3  1  0
  3  4  1  0
  4  5  2  0
  4  6  1  0
  6  7  1  0
  7  8  1  0
  8  9  1  0
  9 10  1  0
 10 11  1  0
  9 12  1  0
 12 13  1  0
 12 14  1  0
 14 15  1  0
 14 16  1  0
 16 17  1  0
  6 18  1  0
 18 19  2  0
 19 20  1  0
 19  2  1  0
 16  7  1  0
  3 21  1  0
  7 22  1  6
  9 23  1  6
 10 24  1  0
 10 25  1  0
 11 26  1  0
 12 27  1  1
 13 28  1  0
 14 29  1  6
 15 30  1  0
 16 31  1  1
 17 32  1  0
 18 33  1  0
M  END
>  <meeko>  (1) 
{"is_sidechain": [false], "free_energy": -10.236, "intermolecular_energy": -12.63, "internal_energy": -0.513}

$$$$
3syr_ligand
     RDKit          3D

 33 34  0  0  0  0  0  0  0  0999 V2000
   37.7180   24.8200   30.2030 O   0  0  0  0  0  0  0  0  0  0  0  0
   36.6100   24.5090   29.7840 C   0  0  0  0  0  0  0  0  0  0  0  0
   36.3930   24.1420   28.4820 N   0  0  0  0  0  0  0  0  0  0  0  0
   35.1900   23.7780   27.9240 C   0  0  0  0  0  0  0  0  0  0  0  0
   35.1330   23.4880   26.7310 O   0  0  0  0  0  0  0  0  0  0  0  0
   34.0970   23.7920   28.7880 N   0  0  0  0  0  0  0  0  0  0  0  0
   32.8090   23.3310   28.2630 C   0  0  2  0  0  0  0  0  0  0  0  0
   32.9760   22.0000   27.7550 O   0  0  0  0  0  0  0  0  0  0  0  0
   31.7320   21.4020   27.3570 C   0  0  2  0  0  0  0  0  0  0  0  0
   31.9970   19.9470   26.9350 C   0  0  0  0  0  0  0  0  0  0  0  0
   30.9230   19.0890   27.3220 O   0  0  0  0  0  0  0  0  0  0  0  0
   31.1120   22.2010   26.2030 C   0  0  1  0  0  0  0  0  0  0  0  0
   29.8320   21.6770   25.8510 O   0  0  0  0  0  0  0  0  0  0  0  0
   30.9650   23.6730   26.6010 C   0  0  2  0  0  0  0  0  0  0  0  0
   30.5140   24.4390   25.4680 O   0  0  0  0  0  0  0  0  0  0  0  0
   32.2750   24.2540   27.1410 C   0  0  1  0  0  0  0  0  0  0  0  0
   32.0480   25.5920   27.5910 O   0  0  0  0  0  0  0  0  0  0  0  0
   34.2330   24.1390   30.1220 C   0  0  0  0  0  0  0  0  0  0  0  0
   35.4080   24.4930   30.6390 C   0  0  0  0  0  0  0  0  0  0  0  0
   35.5550   24.8340   31.9320 F   0  0  0  0  0  0  0  0  0  0  0  0
   37.1920   24.1390   27.8670 H   0  0  0  0  0  0  0  0  0  0  0  0
   32.0721   23.3503   29.0795 H   0  0  0  0  0  0  0  0  0  0  0  0
   31.0214   21.4121   28.1966 H   0  0  0  0  0  0  0  0  0  0  0  0
   32.1114   19.9065   25.8417 H   0  0  0  0  0  0  0  0  0  0  0  0
   32.9136   19.6024   27.4361 H   0  0  0  0  0  0  0  0  0  0  0  0
   30.2420   19.6350   27.7490 H   0  0  0  0  0  0  0  0  0  0  0  0
   31.7809   22.1180   25.3337 H   0  0  0  0  0  0  0  0  0  0  0  0
   29.3180   21.6010   26.6800 H   0  0  0  0  0  0  0  0  0  0  0  0
   30.2214   23.7308   27.4095 H   0  0  0  0  0  0  0  0  0  0  0  0
   30.2620   25.3300   25.7740 H   0  0  0  0  0  0  0  0  0  0  0  0
   33.0419   24.2997   26.3537 H   0  0  0  0  0  0  0  0  0  0  0  0
   32.6710   25.7630   28.3230 H   0  0  0  0  0  0  0  0  0  0  0  0
   33.3460   24.1217   30.7723 H   0  0  0  0  0  0  0  0  0  0  0  0
  1  2  2  0
  2  3  1  0
  3  4  1  0
  4  5  2  0
  4  6  1  0
  6  7  1  0
  7  8  1  0
  8  9  1  0
  9 10  1  0
 10 11  1  0
  9 12  1  0
 12 13  1  0
 12 14  1  0
 14 15  1  0
 14 16  1  0
 16 17  1  0
  6 18  1  0
 18 19  2  0
 19 20  1  0
 19  2  1  0
 16  7  1  0
  3 21  1  0
  7 22  1  1
  9 23  1  1
 10 24  1  0
 10 25  1  0
 11 26  1  0
 12 27  1  6
 13 28  1  0
 14 29  1  1
 15 30  1  0
 16 31  1  6
 17 32  1  0
 18 33  1  0
M  END
>  <meeko>  (2) 
{"is_sidechain": [false], "free_energy": -7.993, "intermolecular_energy": -10.371, "internal_energy": -0.004}

$$$$
3syr_ligand
     RDKit          3D

 33 34  0  0  0  0  0  0  0  0999 V2000
   32.7160   20.9630   24.7900 O   0  0  0  0  0  0  0  0  0  0  0  0
   33.2260   21.6240   25.6860 C   0  0  0  0  0  0  0  0  0  0  0  0
   33.6950   22.8960   25.4870 N   0  0  0  0  0  0  0  0  0  0  0  0
   34.2790   23.7090   26.4290 C   0  0  0  0  0  0  0  0  0  0  0  0
   34.6730   24.8280   26.1100 O   0  0  0  0  0  0  0  0  0  0  0  0
   34.3970   23.1630   27.7050 N   0  0  0  0  0  0  0  0  0  0  0  0
   34.9360   24.0210   28.7640 C   0  0  2  0  0  0  0  0  0  0  0  0
   36.3110   23.6710   28.9770 O   0  0  0  0  0  0  0  0  0  0  0  0
   36.9710   24.5620   29.8910 C   0  0  2  0  0  0  0  0  0  0  0  0
   38.4580   24.1770   29.9670 C   0  0  0  0  0  0  0  0  0  0  0  0
   38.7780   23.5850   31.2270 O   0  0  0  0  0  0  0  0  0  0  0  0
   36.3120   24.4750   31.2740 C   0  0  1  0  0  0  0  0  0  0  0  0
   36.8950   25.4170   32.1760 O   0  0  0  0  0  0  0  0  0  0  0  0
   34.8090   24.7460   31.1600 C   0  0  2  0  0  0  0  0  0  0  0  0
   34.1780   24.5260   32.4360 O   0  0  0  0  0  0  0  0  0  0  0  0
   34.1490   23.8720   30.0890 C   0  0  1  0  0  0  0  0  0  0  0  0
   32.7750   24.2440   29.9580 O   0  0  0  0  0  0  0  0  0  0  0  0
   33.9380   21.8890   27.9940 C   0  0  0  0  0  0  0  0  0  0  0  0
   33.3800   21.1170   27.0630 C   0  0  0  0  0  0  0  0  0  0  0  0
   32.9300   19.8770   27.3280 F   0  0  0  0  0  0  0  0  0  0  0  0
   33.6060   23.2760   24.5580 H   0  0  0  0  0  0  0  0  0  0  0  0
   34.8428   25.0696   28.4449 H   0  0  0  0  0  0  0  0  0  0  0  0
   36.8835   25.6003   29.5386 H   0  0  0  0  0  0  0  0  0  0  0  0
   38.6831   23.4577   29.1658 H   0  0  0  0  0  0  0  0  0  0  0  0
   39.0592   25.0908   29.8505 H   0  0  0  0  0  0  0  0  0  0  0  0
   39.4520   24.1390   31.6560 H   0  0  0  0  0  0  0  0  0  0  0  0
   36.4755   23.4601   31.6653 H   0  0  0  0  0  0  0  0  0  0  0  0
   36.2980   25.4750   32.9490 H   0  0  0  0  0  0  0  0  0  0  0  0
   34.6780   25.7949   30.8557 H   0  0  0  0  0  0  0  0  0  0  0  0
   33.5690   25.2660   32.6140 H   0  0  0  0  0  0  0  0  0  0  0  0
   34.1742   22.8097   30.3735 H   0  0  0  0  0  0  0  0  0  0  0  0
   32.7190   25.2080   30.1050 H   0  0  0  0  0  0  0  0  0  0  0  0
   34.0368   21.5042   29.0198 H   0  0  0  0  0  0  0  0  0  0  0  0
  1  2  2  0
  2  3  1  0
  3  4  1  0
  4  5  2  0
  4  6  1  0
  6  7  1  0
  7  8  1  0
  8  9  1  0
  9 10  1  0
 10 11  1  0
  9 12  1  0
 12 13  1  0
 12 14  1  0
 14 15  1  0
 14 16  1  0
 16 17  1  0
  6 18  1  0
 18 19  2  0
 19 20  1  0
 19  2  1  0
 16  7  1  0
  3 21  1  0
  7 22  1  6
  9 23  1  6
 10 24  1  0
 10 25  1  0
 11 26  1  0
 12 27  1  1
 13 28  1  0
 14 29  1  6
 15 30  1  0
 16 31  1  1
 17 32  1  0
 18 33  1  0
M  END
>  <meeko>  (3) 
{"is_sidechain": [false], "free_energy": -7.639, "intermolecular_energy": -9.391, "internal_energy": -0.547}

$$$$
