3ag9_ligand
     RDKit          3D

140142  0  0  0  0  0  0  0  0999 V2000
   13.1300   10.7020    6.1920 N   0  0  0  0  0  0  0  0  0  0  0  0
   13.3120    9.9740    7.2970 C   0  0  0  0  0  0  0  0  0  0  0  0
   12.3590    9.1120    7.6570 N   0  0  0  0  0  0  0  0  0  0  0  0
   14.4440   10.1280    8.0130 N   0  0  0  0  0  0  0  0  0  0  0  0
   14.7530    9.3600    9.2270 C   0  0  0  0  0  0  0  0  0  0  0  0
   16.1150    8.6630    9.1510 C   0  0  0  0  0  0  0  0  0  0  0  0
   16.0060    7.1330    9.1040 C   0  0  0  0  0  0  0  0  0  0  0  0
   15.9660    6.5700    7.6700 C   0  0  1  0  0  0  0  0  0  0  0  0
   16.6740    5.2910    7.6040 N   0  0  0  0  0  0  0  0  0  0  0  0
   17.4010    4.9900    6.4640 C   0  0  0  0  0  0  0  0  0  0  0  0
   17.4420    5.7340    5.4880 O   0  0  0  0  0  0  0  0  0  0  0  0
   18.1760    3.6610    6.5520 C   0  0  1  0  0  0  0  0  0  0  0  0
   19.0890    3.6310    7.7880 C   0  0  0  0  0  0  0  0  0  0  0  0
   18.8320    2.4710    8.7630 C   0  0  0  0  0  0  0  0  0  0  0  0
   20.0350    2.0530    9.6070 C   0  0  0  0  0  0  0  0  0  0  0  0
   21.0270    1.3350    8.7940 N   0  0  0  0  0  0  0  0  0  0  0  0
   21.5270    0.1280    9.1110 C   0  0  0  0  0  0  0  0  0  0  0  0
   22.3840   -0.4630    8.2710 N   0  0  0  0  0  0  0  0  0  0  0  0
   21.2050   -0.5090   10.2360 N   0  0  0  0  0  0  0  0  0  0  0  0
   17.1840    2.5940    6.6330 N   0  0  0  0  0  0  0  0  0  0  0  0
   16.5990    2.0690    5.5000 C   0  0  0  0  0  0  0  0  0  0  0  0
   16.8390    2.5000    4.3760 O   0  0  0  0  0  0  0  0  0  0  0  0
   15.6210    0.9470    5.8090 C   0  0  0  0  0  0  0  0  0  0  0  0
   15.5600    0.6090    7.2980 C   0  0  0  0  0  0  0  0  0  0  0  0
   14.1460    0.2800    7.7980 C   0  0  0  0  0  0  0  0  0  0  0  0
   13.1970    1.4870    7.7980 C   0  0  0  0  0  0  0  0  0  0  0  0
   13.9060    2.8050    8.1170 C   0  0  0  0  0  0  0  0  0  0  0  0
   13.5660    3.3280    9.4270 N   0  0  0  0  0  0  0  0  0  0  0  0
   14.5250    3.5070   10.4010 C   0  0  0  0  0  0  0  0  0  0  0  0
   15.6860    3.0900   10.3060 O   0  0  0  0  0  0  0  0  0  0  0  0
   14.0210    4.1840   11.6900 C   0  0  1  0  0  0  0  0  0  0  0  0
   13.2410    5.4720   11.3420 C   0  0  0  0  0  0  0  0  0  0  0  0
   12.8960    6.4030   12.5170 C   0  0  0  0  0  0  0  0  0  0  0  0
   11.4050    6.7200   12.6840 C   0  0  0  0  0  0  0  0  0  0  0  0
   11.0190    8.0510   12.0460 C   0  0  0  0  0  0  0  0  0  0  0  0
   12.2290    8.8810   11.8320 N   0  0  0  0  0  0  0  0  0  0  0  0
   13.2490    3.2050   12.4510 N   0  0  0  0  0  0  0  0  0  0  0  0
   13.8130    2.5830   13.5520 C   0  0  0  0  0  0  0  0  0  0  0  0
   14.8990    2.9110   14.0100 O   0  0  0  0  0  0  0  0  0  0  0  0
   12.9410    1.4740   14.1120 C   0  0  0  0  0  0  0  0  0  0  0  0
   11.9780    1.9350   15.2050 C   0  0  0  0  0  0  0  0  0  0  0  0
   11.5870    3.4110   15.0750 C   0  0  0  0  0  0  0  0  0  0  0  0
   10.1280    3.5520   14.6260 C   0  0  0  0  0  0  0  0  0  0  0  0
    9.2960    4.4260   15.5650 C   0  0  0  0  0  0  0  0  0  0  0  0
    8.7150    5.5840   14.9120 N   0  0  0  0  0  0  0  0  0  0  0  0
    7.3550    5.8250   14.9510 C   0  0  0  0  0  0  0  0  0  0  0  0
    6.5690    5.1650   15.6230 O   0  0  0  0  0  0  0  0  0  0  0  0
    6.9100    7.0500   14.1460 C   0  0  1  0  0  0  0  0  0  0  0  0
    7.8030    7.3160   13.0550 O   0  0  0  0  0  0  0  0  0  0  0  0
    7.1430    6.9530   11.8270 C   0  0  1  0  0  0  0  0  0  0  0  0
    8.0450    6.1950   10.9800 N   0  0  0  0  0  0  0  0  0  0  0  0
    8.5470    4.9410   11.1920 C   0  0  0  0  0  0  0  0  0  0  0  0
    9.3720    4.5720   10.2320 N   0  0  0  0  0  0  0  0  0  0  0  0
    9.3990    5.6400    9.3580 C   0  0  0  0  0  0  0  0  0  0  0  0
   10.0800    5.8630    8.1500 C   0  0  0  0  0  0  0  0  0  0  0  0
   10.9570    4.9470    7.5910 N   0  0  0  0  0  0  0  0  0  0  0  0
    9.8600    7.0250    7.4940 N   0  0  0  0  0  0  0  0  0  0  0  0
    9.0170    7.9260    8.0420 C   0  0  0  0  0  0  0  0  0  0  0  0
    8.3070    7.8270    9.1900 N   0  0  0  0  0  0  0  0  0  0  0  0
    8.5630    6.6520    9.7970 C   0  0  0  0  0  0  0  0  0  0  0  0
    5.8800    6.1700   12.2000 C   0  0  2  0  0  0  0  0  0  0  0  0
    4.7820    6.3580   11.3020 O   0  0  0  0  0  0  0  0  0  0  0  0
    5.5370    6.7570   13.5560 C   0  0  2  0  0  0  0  0  0  0  0  0
    4.7890    7.9720   13.3930 O   0  0  0  0  0  0  0  0  0  0  0  0
   14.4920    6.3380    7.2340 C   0  0  0  0  0  0  0  0  0  0  0  0
   14.2700    6.3480    5.8850 N   0  0  0  0  0  0  0  0  0  0  0  0
   13.5490    6.1930    8.0170 O   0  0  0  0  0  0  0  0  0  0  0  0
   13.8150   11.3690    5.8640 H   0  0  0  0  0  0  0  0  0  0  0  0
   12.2910   10.6040    5.6320 H   0  0  0  0  0  0  0  0  0  0  0  0
   12.4440    8.5320    8.4800 H   0  0  0  0  0  0  0  0  0  0  0  0
   11.5130    8.9960    7.1110 H   0  0  0  0  0  0  0  0  0  0  0  0
   15.1210   10.7910    7.6590 H   0  0  0  0  0  0  0  0  0  0  0  0
   14.7555   10.0459   10.0870 H   0  0  0  0  0  0  0  0  0  0  0  0
   13.9845    8.5801    9.3331 H   0  0  0  0  0  0  0  0  0  0  0  0
   16.6333    9.0052    8.2431 H   0  0  0  0  0  0  0  0  0  0  0  0
   16.6690    8.9246   10.0646 H   0  0  0  0  0  0  0  0  0  0  0  0
   16.8759    6.7046    9.6234 H   0  0  0  0  0  0  0  0  0  0  0  0
   15.0578    6.8582    9.5892 H   0  0  0  0  0  0  0  0  0  0  0  0
   16.4504    7.2970    7.0016 H   0  0  0  0  0  0  0  0  0  0  0  0
   17.1210    4.9490    8.4550 H   0  0  0  0  0  0  0  0  0  0  0  0
   18.8226    3.5384    5.6706 H   0  0  0  0  0  0  0  0  0  0  0  0
   20.1302    3.5591    7.4404 H   0  0  0  0  0  0  0  0  0  0  0  0
   18.8755    4.5535    8.3478 H   0  0  0  0  0  0  0  0  0  0  0  0
   18.0250    2.7733    9.4467 H   0  0  0  0  0  0  0  0  0  0  0  0
   18.5774    1.6000    8.1413 H   0  0  0  0  0  0  0  0  0  0  0  0
   20.5035    2.9516   10.0349 H   0  0  0  0  0  0  0  0  0  0  0  0
   19.6857    1.3820   10.4056 H   0  0  0  0  0  0  0  0  0  0  0  0
   21.3480    1.7540    7.9300 H   0  0  0  0  0  0  0  0  0  0  0  0
   22.6580   -0.0360    7.3940 H   0  0  0  0  0  0  0  0  0  0  0  0
   22.7770   -1.3730    8.4740 H   0  0  0  0  0  0  0  0  0  0  0  0
   21.5760   -1.4190   10.4640 H   0  0  0  0  0  0  0  0  0  0  0  0
   20.5840   -0.0980   10.9420 H   0  0  0  0  0  0  0  0  0  0  0  0
   16.7190    2.4450    7.5220 H   0  0  0  0  0  0  0  0  0  0  0  0
   14.6181    1.2532    5.4766 H   0  0  0  0  0  0  0  0  0  0  0  0
   15.9694    0.0482    5.2790 H   0  0  0  0  0  0  0  0  0  0  0  0
   16.2055   -0.2622    7.4832 H   0  0  0  0  0  0  0  0  0  0  0  0
   15.8949    1.5028    7.8449 H   0  0  0  0  0  0  0  0  0  0  0  0
   13.7194   -0.4976    7.1474 H   0  0  0  0  0  0  0  0  0  0  0  0
   14.2427   -0.0539    8.8416 H   0  0  0  0  0  0  0  0  0  0  0  0
   12.7347    1.5695    6.8033 H   0  0  0  0  0  0  0  0  0  0  0  0
   12.4484    1.3170    8.5858 H   0  0  0  0  0  0  0  0  0  0  0  0
   14.9924    2.6373    8.0775 H   0  0  0  0  0  0  0  0  0  0  0  0
   13.5778    3.5445    7.3717 H   0  0  0  0  0  0  0  0  0  0  0  0
   12.7120    3.8700    9.5070 H   0  0  0  0  0  0  0  0  0  0  0  0
   14.8550    4.5103   12.3287 H   0  0  0  0  0  0  0  0  0  0  0  0
   13.8472    6.0471   10.6266 H   0  0  0  0  0  0  0  0  0  0  0  0
   12.2730    5.1291   10.9478 H   0  0  0  0  0  0  0  0  0  0  0  0
   13.2482    5.9261   13.4436 H   0  0  0  0  0  0  0  0  0  0  0  0
   13.3893    7.3622   12.3009 H   0  0  0  0  0  0  0  0  0  0  0  0
   10.8182    5.9184   12.2117 H   0  0  0  0  0  0  0  0  0  0  0  0
   11.1956    6.7910   13.7615 H   0  0  0  0  0  0  0  0  0  0  0  0
   10.5305    7.8631   11.0785 H   0  0  0  0  0  0  0  0  0  0  0  0
   10.3285    8.5853   12.7152 H   0  0  0  0  0  0  0  0  0  0  0  0
   12.7370    8.6580   10.9510 H   0  0  0  0  0  0  0  0  0  0  0  0
   11.9930    9.8770   11.7610 H   0  0  0  0  0  0  0  0  0  0  0  0
   12.9040    8.7800   12.5990 H   0  0  0  0  0  0  0  0  0  0  0  0
   12.5560    2.6660   11.9430 H   0  0  0  0  0  0  0  0  0  0  0  0
   12.3505    1.0480   13.2874 H   0  0  0  0  0  0  0  0  0  0  0  0
   13.6169    0.7381   14.5719 H   0  0  0  0  0  0  0  0  0  0  0  0
   11.0649    1.3242   15.1482 H   0  0  0  0  0  0  0  0  0  0  0  0
   12.4931    1.8148   16.1695 H   0  0  0  0  0  0  0  0  0  0  0  0
   11.7132    3.9044   16.0500 H   0  0  0  0  0  0  0  0  0  0  0  0
   12.2344    3.8813   14.3202 H   0  0  0  0  0  0  0  0  0  0  0  0
   10.1120    4.0018   13.6223 H   0  0  0  0  0  0  0  0  0  0  0  0
    9.6831    2.5460   14.6322 H   0  0  0  0  0  0  0  0  0  0  0  0
    8.4812    3.8144   15.9797 H   0  0  0  0  0  0  0  0  0  0  0  0
    9.9744    4.8003   16.3458 H   0  0  0  0  0  0  0  0  0  0  0  0
    9.2520    6.0090   14.1650 H   0  0  0  0  0  0  0  0  0  0  0  0
    6.8978    7.9209   14.8179 H   0  0  0  0  0  0  0  0  0  0  0  0
    6.8530    7.8405   11.2454 H   0  0  0  0  0  0  0  0  0  0  0  0
    8.2929    4.3147   12.0599 H   0  0  0  0  0  0  0  0  0  0  0  0
   11.9360    5.1420    7.7710 H   0  0  0  0  0  0  0  0  0  0  0  0
   10.6380    3.9910    7.6580 H   0  0  0  0  0  0  0  0  0  0  0  0
    8.8906    8.8641    7.4817 H   0  0  0  0  0  0  0  0  0  0  0  0
    6.0583    5.0848   12.1759 H   0  0  0  0  0  0  0  0  0  0  0  0
    4.9450    7.2130   10.8440 H   0  0  0  0  0  0  0  0  0  0  0  0
    4.9217    6.0965   14.1846 H   0  0  0  0  0  0  0  0  0  0  0  0
    5.1640    8.5910   14.0580 H   0  0  0  0  0  0  0  0  0  0  0  0
   15.0080    6.0330    5.2630 H   0  0  0  0  0  0  0  0  0  0  0  0
   13.3390    6.0820    5.5840 H   0  0  0  0  0  0  0  0  0  0  0  0
  1  2  1  0
  2  3  2  0
  2  4  1  0
  4  5  1  0
  5  6  1  0
  6  7  1  0
  7  8  1  0
  8  9  1  0
  9 10  1  0
 10 11  2  0
 10 12  1  0
 12 13  1  0
 13 14  1  0
 14 15  1  0
 15 16  1  0
 16 17  1  0
 17 18  1  0
 17 19  2  0
 12 20  1  0
 20 21  1  0
 21 22  2  0
 21 23  1  0
 23 24  1  0
 24 25  1  0
 25 26  1  0
 26 27  1  0
 27 28  1  0
 28 29  1  0
 29 30  2  0
 29 31  1  0
 31 32  1  0
 32 33  1  0
 33 34  1  0
 34 35  1  0
 35 36  1  0
 31 37  1  0
 37 38  1  0
 38 39  2  0
 38 40  1  0
 40 41  1  0
 41 42  1  0
 42 43  1  0
 43 44  1  0
 44 45  1  0
 45 46  1  0
 46 47  2  0
 46 48  1  0
 48 49  1  0
 49 50  1  0
 50 51  1  0
 51 52  1  0
 52 53  2  0
 53 54  1  0
 54 55  2  0
 55 56  1  0
 55 57  1  0
 57 58  2  0
 58 59  1  0
 59 60  2  0
 50 61  1  0
 61 62  1  0
 61 63  1  0
 63 64  1  0
  8 65  1  0
 65 66  1  0
 65 67  2  0
 63 48  1  0
 60 51  1  0
 60 54  1  0
  1 68  1  0
  1 69  1  0
  3 70  1  0
  3 71  1  0
  4 72  1  0
  5 73  1  0
  5 74  1  0
  6 75  1  0
  6 76  1  0
  7 77  1  0
  7 78  1  0
  8 79  1  6
  9 80  1  0
 12 81  1  6
 13 82  1  0
 13 83  1  0
 14 84  1  0
 14 85  1  0
 15 86  1  0
 15 87  1  0
 16 88  1  0
 18 89  1  0
 18 90  1  0
 19 91  1  0
 19 92  1  0
 20 93  1  0
 23 94  1  0
 23 95  1  0
 24 96  1  0
 24 97  1  0
 25 98  1  0
 25 99  1  0
 26100  1  0
 26101  1  0
 27102  1  0
 27103  1  0
 28104  1  0
 31105  1  1
 32106  1  0
 32107  1  0
 33108  1  0
 33109  1  0
 34110  1  0
 34111  1  0
 35112  1  0
 35113  1  0
 36114  1  0
 36115  1  0
 36116  1  0
 37117  1  0
 40118  1  0
 40119  1  0
 41120  1  0
 41121  1  0
 42122  1  0
 42123  1  0
 43124  1  0
 43125  1  0
 44126  1  0
 44127  1  0
 45128  1  0
 48129  1  1
 50130  1  6
 52131  1  0
 56132  1  0
 56133  1  0
 58134  1  0
 61135  1  1
 62136  1  0
 63137  1  1
 64138  1  0
 66139  1  0
 66140  1  0
M  CHG  3   3   1  19   1  36   1
M  END
>  <meeko>  (1) 
{"is_sidechain": [false], "free_energy": -7.696, "intermolecular_energy": -22.994, "internal_energy": -7.502}

$$$$
3ag9_ligand
     RDKit          3D

140142  0  0  0  0  0  0  0  0999 V2000
   10.5130    2.7300   17.9080 N   0  0  0  0  0  0  0  0  0  0  0  0
   10.2090    3.7410   17.0890 C   0  0  0  0  0  0  0  0  0  0  0  0
   11.1860    4.2910   16.3650 N   0  0  0  0  0  0  0  0  0  0  0  0
    8.9350    4.1760   17.0180 N   0  0  0  0  0  0  0  0  0  0  0  0
    8.4910    5.2610   16.1340 C   0  0  0  0  0  0  0  0  0  0  0  0
    7.6170    4.7600   14.9800 C   0  0  0  0  0  0  0  0  0  0  0  0
    8.4210    4.0620   13.8740 C   0  0  0  0  0  0  0  0  0  0  0  0
    9.1070    5.0480   12.9080 C   0  0  1  0  0  0  0  0  0  0  0  0
   10.4240    4.5450   12.5170 N   0  0  0  0  0  0  0  0  0  0  0  0
   11.5490    5.0960   13.1070 C   0  0  0  0  0  0  0  0  0  0  0  0
   11.4910    6.0190   13.9140 O   0  0  0  0  0  0  0  0  0  0  0  0
   12.8680    4.4200   12.6840 C   0  0  1  0  0  0  0  0  0  0  0  0
   12.7100    2.8930   12.6040 C   0  0  0  0  0  0  0  0  0  0  0  0
   12.4010    2.1980   13.9380 C   0  0  0  0  0  0  0  0  0  0  0  0
   13.5280    1.3280   14.4950 C   0  0  0  0  0  0  0  0  0  0  0  0
   14.3500    2.0790   15.4540 N   0  0  0  0  0  0  0  0  0  0  0  0
   15.5430    1.6590   15.9110 C   0  0  0  0  0  0  0  0  0  0  0  0
   16.2370    2.4470   16.7390 N   0  0  0  0  0  0  0  0  0  0  0  0
   16.0660    0.4800   15.5730 N   0  0  0  0  0  0  0  0  0  0  0  0
   13.2220    4.9590   11.3740 N   0  0  0  0  0  0  0  0  0  0  0  0
   14.0760    6.0340   11.2460 C   0  0  0  0  0  0  0  0  0  0  0  0
   14.5410    6.6240   12.2170 O   0  0  0  0  0  0  0  0  0  0  0  0
   14.3350    6.4100    9.7960 C   0  0  0  0  0  0  0  0  0  0  0  0
   14.8500    7.8410    9.6400 C   0  0  0  0  0  0  0  0  0  0  0  0
   16.2050    7.9340    8.9230 C   0  0  0  0  0  0  0  0  0  0  0  0
   16.1590    8.7520    7.6260 C   0  0  0  0  0  0  0  0  0  0  0  0
   15.5240    7.9900    6.4600 C   0  0  0  0  0  0  0  0  0  0  0  0
   16.3400    6.8840    5.9950 N   0  0  0  0  0  0  0  0  0  0  0  0
   15.9090    5.5790    6.0990 C   0  0  0  0  0  0  0  0  0  0  0  0
   14.9040    5.2360    6.7320 O   0  0  0  0  0  0  0  0  0  0  0  0
   16.8390    4.5360    5.4490 C   0  0  1  0  0  0  0  0  0  0  0  0
   18.3120    4.9870    5.5760 C   0  0  0  0  0  0  0  0  0  0  0  0
   19.2270    4.0990    6.4370 C   0  0  0  0  0  0  0  0  0  0  0  0
   19.4000    4.5550    7.8910 C   0  0  0  0  0  0  0  0  0  0  0  0
   19.8870    5.9970    7.9940 C   0  0  0  0  0  0  0  0  0  0  0  0
   20.4980    6.2330    9.3250 N   0  0  0  0  0  0  0  0  0  0  0  0
   16.5590    3.2340    6.0490 N   0  0  0  0  0  0  0  0  0  0  0  0
   16.4820    2.1050    5.2510 C   0  0  0  0  0  0  0  0  0  0  0  0
   16.7710    2.1180    4.0620 O   0  0  0  0  0  0  0  0  0  0  0  0
   16.0110    0.8780    6.0100 C   0  0  0  0  0  0  0  0  0  0  0  0
   15.6440    1.1550    7.4670 C   0  0  0  0  0  0  0  0  0  0  0  0
   14.4510    0.3240    7.9530 C   0  0  0  0  0  0  0  0  0  0  0  0
   13.1620    1.1530    7.9270 C   0  0  0  0  0  0  0  0  0  0  0  0
   13.3760    2.6020    8.3660 C   0  0  0  0  0  0  0  0  0  0  0  0
   12.5890    3.5570    7.6100 N   0  0  0  0  0  0  0  0  0  0  0  0
   11.5660    4.2750    8.1990 C   0  0  0  0  0  0  0  0  0  0  0  0
   11.3290    4.2520    9.4030 O   0  0  0  0  0  0  0  0  0  0  0  0
   10.7950    5.1800    7.2340 C   0  0  1  0  0  0  0  0  0  0  0  0
    9.7710    5.9220    7.9130 O   0  0  0  0  0  0  0  0  0  0  0  0
   10.1870    7.2970    8.0020 C   0  0  1  0  0  0  0  0  0  0  0  0
    9.9500    7.8060    9.3410 N   0  0  0  0  0  0  0  0  0  0  0  0
   10.7830    7.7490   10.4240 C   0  0  0  0  0  0  0  0  0  0  0  0
   10.2290    8.2780   11.4970 N   0  0  0  0  0  0  0  0  0  0  0  0
    8.9820    8.6970   11.0830 C   0  0  0  0  0  0  0  0  0  0  0  0
    7.9220    9.3340   11.7510 C   0  0  0  0  0  0  0  0  0  0  0  0
    7.9560    9.6560   13.0980 N   0  0  0  0  0  0  0  0  0  0  0  0
    6.8180    9.6580   11.0400 N   0  0  0  0  0  0  0  0  0  0  0  0
    6.7750    9.3340    9.7310 C   0  0  0  0  0  0  0  0  0  0  0  0
    7.7230    8.7260    8.9810 N   0  0  0  0  0  0  0  0  0  0  0  0
    8.7970    8.4300    9.7380 C   0  0  0  0  0  0  0  0  0  0  0  0
   11.6640    7.3560    7.5980 C   0  0  2  0  0  0  0  0  0  0  0  0
   12.0460    8.5620    6.9300 O   0  0  0  0  0  0  0  0  0  0  0  0
   11.7730    6.1850    6.6400 C   0  0  2  0  0  0  0  0  0  0  0  0
   11.3520    6.5820    5.3260 O   0  0  0  0  0  0  0  0  0  0  0  0
    8.2450    5.2160   11.6250 C   0  0  0  0  0  0  0  0  0  0  0  0
    8.7570    4.6430   10.4950 N   0  0  0  0  0  0  0  0  0  0  0  0
    7.1880    5.8510   11.5750 O   0  0  0  0  0  0  0  0  0  0  0  0
    9.8190    2.2690   18.4800 H   0  0  0  0  0  0  0  0  0  0  0  0
   11.4620    2.3800   17.9790 H   0  0  0  0  0  0  0  0  0  0  0  0
   11.0150    5.0550   15.7260 H   0  0  0  0  0  0  0  0  0  0  0  0
   12.1410    3.9560   16.4180 H   0  0  0  0  0  0  0  0  0  0  0  0
    8.2550    3.6900   17.5890 H   0  0  0  0  0  0  0  0  0  0  0  0
    7.9113    5.9837   16.7270 H   0  0  0  0  0  0  0  0  0  0  0  0
    9.3884    5.7226   15.6963 H   0  0  0  0  0  0  0  0  0  0  0  0
    6.8821    4.0468   15.3816 H   0  0  0  0  0  0  0  0  0  0  0  0
    7.1340    5.6394   14.5289 H   0  0  0  0  0  0  0  0  0  0  0  0
    9.1950    3.4383   14.3450 H   0  0  0  0  0  0  0  0  0  0  0  0
    7.7123    3.4641   13.2822 H   0  0  0  0  0  0  0  0  0  0  0  0
    9.2166    6.0143   13.4221 H   0  0  0  0  0  0  0  0  0  0  0  0
   10.5210    3.5430   12.3480 H   0  0  0  0  0  0  0  0  0  0  0  0
   13.6547    4.6239   13.4253 H   0  0  0  0  0  0  0  0  0  0  0  0
   11.8887    2.6717   11.9065 H   0  0  0  0  0  0  0  0  0  0  0  0
   13.6836    2.5018   12.2737 H   0  0  0  0  0  0  0  0  0  0  0  0
   12.1719    2.9754   14.6817 H   0  0  0  0  0  0  0  0  0  0  0  0
   11.5595    1.5177   13.7401 H   0  0  0  0  0  0  0  0  0  0  0  0
   13.0911    0.4551   15.0022 H   0  0  0  0  0  0  0  0  0  0  0  0
   14.1687    1.0086   13.6599 H   0  0  0  0  0  0  0  0  0  0  0  0
   14.0220    2.9770   15.7830 H   0  0  0  0  0  0  0  0  0  0  0  0
   15.9000    3.3590   17.0220 H   0  0  0  0  0  0  0  0  0  0  0  0
   17.1400    2.1660   17.0990 H   0  0  0  0  0  0  0  0  0  0  0  0
   16.9660    0.1750   15.9120 H   0  0  0  0  0  0  0  0  0  0  0  0
   15.5710   -0.1890   14.9740 H   0  0  0  0  0  0  0  0  0  0  0  0
   12.6200    4.7320   10.5890 H   0  0  0  0  0  0  0  0  0  0  0  0
   15.0843    5.7193    9.3819 H   0  0  0  0  0  0  0  0  0  0  0  0
   13.3774    6.3413    9.2590 H   0  0  0  0  0  0  0  0  0  0  0  0
   14.1109    8.4151    9.0619 H   0  0  0  0  0  0  0  0  0  0  0  0
   14.9940    8.2435   10.6536 H   0  0  0  0  0  0  0  0  0  0  0  0
   16.9279    8.4047    9.6055 H   0  0  0  0  0  0  0  0  0  0  0  0
   16.4952    6.9093    8.6478 H   0  0  0  0  0  0  0  0  0  0  0  0
   15.5735    9.6652    7.8082 H   0  0  0  0  0  0  0  0  0  0  0  0
   17.1975    8.9794    7.3436 H   0  0  0  0  0  0  0  0  0  0  0  0
   14.5513    7.5946    6.7878 H   0  0  0  0  0  0  0  0  0  0  0  0
   15.4188    8.6963    5.6233 H   0  0  0  0  0  0  0  0  0  0  0  0
   17.0520    7.0870    5.3010 H   0  0  0  0  0  0  0  0  0  0  0  0
   16.6526    4.4449    4.3687 H   0  0  0  0  0  0  0  0  0  0  0  0
   18.7390    5.0248    4.5630 H   0  0  0  0  0  0  0  0  0  0  0  0
   18.2771    5.9579    6.0919 H   0  0  0  0  0  0  0  0  0  0  0  0
   18.8042    3.0835    6.4469 H   0  0  0  0  0  0  0  0  0  0  0  0
   20.2255    4.1551    5.9788 H   0  0  0  0  0  0  0  0  0  0  0  0
   18.4311    4.4718    8.4050 H   0  0  0  0  0  0  0  0  0  0  0  0
   20.1599    3.9102    8.3566 H   0  0  0  0  0  0  0  0  0  0  0  0
   20.6362    6.1852    7.2109 H   0  0  0  0  0  0  0  0  0  0  0  0
   19.0320    6.6767    7.8638 H   0  0  0  0  0  0  0  0  0  0  0  0
   20.8520    5.3660    9.7800 H   0  0  0  0  0  0  0  0  0  0  0  0
   21.3120    6.8540    9.2580 H   0  0  0  0  0  0  0  0  0  0  0  0
   19.8360    6.6650    9.9790 H   0  0  0  0  0  0  0  0  0  0  0  0
   15.9890    3.2240    6.8880 H   0  0  0  0  0  0  0  0  0  0  0  0
   15.1238    0.4745    5.5000 H   0  0  0  0  0  0  0  0  0  0  0  0
   16.8508    0.1676    6.0215 H   0  0  0  0  0  0  0  0  0  0  0  0
   16.5141    0.9214    8.0981 H   0  0  0  0  0  0  0  0  0  0  0  0
   15.3575    2.2146    7.5382 H   0  0  0  0  0  0  0  0  0  0  0  0
   14.3301   -0.5509    7.2973 H   0  0  0  0  0  0  0  0  0  0  0  0
   14.6430    0.0040    8.9878 H   0  0  0  0  0  0  0  0  0  0  0  0
   12.7651    1.1523    6.9011 H   0  0  0  0  0  0  0  0  0  0  0  0
   12.4602    0.6933    8.6384 H   0  0  0  0  0  0  0  0  0  0  0  0
   13.1024    2.6882    9.4279 H   0  0  0  0  0  0  0  0  0  0  0  0
   14.4347    2.8415    8.1876 H   0  0  0  0  0  0  0  0  0  0  0  0
   12.5710    3.4430    6.6030 H   0  0  0  0  0  0  0  0  0  0  0  0
   10.3285    4.5477    6.4642 H   0  0  0  0  0  0  0  0  0  0  0  0
    9.6061    7.9400    7.3244 H   0  0  0  0  0  0  0  0  0  0  0  0
   11.7932    7.3143   10.4025 H   0  0  0  0  0  0  0  0  0  0  0  0
    8.4220    8.9690   13.6810 H   0  0  0  0  0  0  0  0  0  0  0  0
    8.1370   10.6340   13.2730 H   0  0  0  0  0  0  0  0  0  0  0  0
    5.8467    9.5991    9.2039 H   0  0  0  0  0  0  0  0  0  0  0  0
   12.3229    7.3217    8.4782 H   0  0  0  0  0  0  0  0  0  0  0  0
   11.2130    9.0550    6.7540 H   0  0  0  0  0  0  0  0  0  0  0  0
   12.7943    5.7910    6.5321 H   0  0  0  0  0  0  0  0  0  0  0  0
   11.6290    7.5200    5.2440 H   0  0  0  0  0  0  0  0  0  0  0  0
    9.3280    3.8070   10.5820 H   0  0  0  0  0  0  0  0  0  0  0  0
    8.1520    4.6430    9.6810 H   0  0  0  0  0  0  0  0  0  0  0  0
  1  2  1  0
  2  3  2  0
  2  4  1  0
  4  5  1  0
  5  6  1  0
  6  7  1  0
  7  8  1  0
  8  9  1  0
  9 10  1  0
 10 11  2  0
 10 12  1  0
 12 13  1  0
 13 14  1  0
 14 15  1  0
 15 16  1  0
 16 17  1  0
 17 18  1  0
 17 19  2  0
 12 20  1  0
 20 21  1  0
 21 22  2  0
 21 23  1  0
 23 24  1  0
 24 25  1  0
 25 26  1  0
 26 27  1  0
 27 28  1  0
 28 29  1  0
 29 30  2  0
 29 31  1  0
 31 32  1  0
 32 33  1  0
 33 34  1  0
 34 35  1  0
 35 36  1  0
 31 37  1  0
 37 38  1  0
 38 39  2  0
 38 40  1  0
 40 41  1  0
 41 42  1  0
 42 43  1  0
 43 44  1  0
 44 45  1  0
 45 46  1  0
 46 47  2  0
 46 48  1  0
 48 49  1  0
 49 50  1  0
 50 51  1  0
 51 52  1  0
 52 53  2  0
 53 54  1  0
 54 55  2  0
 55 56  1  0
 55 57  1  0
 57 58  2  0
 58 59  1  0
 59 60  2  0
 50 61  1  0
 61 62  1  0
 61 63  1  0
 63 64  1  0
  8 65  1  0
 65 66  1  0
 65 67  2  0
 63 48  1  0
 60 51  1  0
 60 54  1  0
  1 68  1  0
  1 69  1  0
  3 70  1  0
  3 71  1  0
  4 72  1  0
  5 73  1  0
  5 74  1  0
  6 75  1  0
  6 76  1  0
  7 77  1  0
  7 78  1  0
  8 79  1  1
  9 80  1  0
 12 81  1  1
 13 82  1  0
 13 83  1  0
 14 84  1  0
 14 85  1  0
 15 86  1  0
 15 87  1  0
 16 88  1  0
 18 89  1  0
 18 90  1  0
 19 91  1  0
 19 92  1  0
 20 93  1  0
 23 94  1  0
 23 95  1  0
 24 96  1  0
 24 97  1  0
 25 98  1  0
 25 99  1  0
 26100  1  0
 26101  1  0
 27102  1  0
 27103  1  0
 28104  1  0
 31105  1  6
 32106  1  0
 32107  1  0
 33108  1  0
 33109  1  0
 34110  1  0
 34111  1  0
 35112  1  0
 35113  1  0
 36114  1  0
 36115  1  0
 36116  1  0
 37117  1  0
 40118  1  0
 40119  1  0
 41120  1  0
 41121  1  0
 42122  1  0
 42123  1  0
 43124  1  0
 43125  1  0
 44126  1  0
 44127  1  0
 45128  1  0
 48129  1  6
 50130  1  6
 52131  1  0
 56132  1  0
 56133  1  0
 58134  1  0
 61135  1  1
 62136  1  0
 63137  1  6
 64138  1  0
 66139  1  0
 66140  1  0
M  CHG  3   3   1  19   1  36   1
M  END
>  <meeko>  (2) 
{"is_sidechain": [false], "free_energy": -7.378, "intermolecular_energy": -21.166, "internal_energy": -8.379}

$$$$
3ag9_ligand
     RDKit          3D

140142  0  0  0  0  0  0  0  0999 V2000
   12.9030    1.2290   14.3170 N   0  0  0  0  0  0  0  0  0  0  0  0
   13.7490    2.1280   13.8070 C   0  0  0  0  0  0  0  0  0  0  0  0
   14.8280    2.4620   14.5170 N   0  0  0  0  0  0  0  0  0  0  0  0
   13.4900    2.6700   12.6000 N   0  0  0  0  0  0  0  0  0  0  0  0
   14.3660    3.6470   11.9390 C   0  0  0  0  0  0  0  0  0  0  0  0
   14.0700    5.0880   12.3680 C   0  0  0  0  0  0  0  0  0  0  0  0
   13.2630    5.8730   11.3240 C   0  0  0  0  0  0  0  0  0  0  0  0
   13.3550    7.4000   11.5090 C   0  0  1  0  0  0  0  0  0  0  0  0
   13.5690    8.0580   10.2190 N   0  0  0  0  0  0  0  0  0  0  0  0
   14.7910    7.9020    9.5860 C   0  0  0  0  0  0  0  0  0  0  0  0
   15.7190    7.2700   10.0820 O   0  0  0  0  0  0  0  0  0  0  0  0
   14.8610    8.5630    8.1960 C   0  0  1  0  0  0  0  0  0  0  0  0
   16.3100    8.9150    7.8210 C   0  0  0  0  0  0  0  0  0  0  0  0
   16.9250    8.0520    6.7080 C   0  0  0  0  0  0  0  0  0  0  0  0
   17.4110    6.6720    7.1490 C   0  0  0  0  0  0  0  0  0  0  0  0
   18.3470    6.7770    8.2780 N   0  0  0  0  0  0  0  0  0  0  0  0
   19.6240    6.3590    8.2350 C   0  0  0  0  0  0  0  0  0  0  0  0
   20.4090    6.5540    9.3010 N   0  0  0  0  0  0  0  0  0  0  0  0
   20.1460    5.7520    7.1690 N   0  0  0  0  0  0  0  0  0  0  0  0
   14.3120    7.6050    7.2400 N   0  0  0  0  0  0  0  0  0  0  0  0
   13.5580    8.0170    6.1630 C   0  0  0  0  0  0  0  0  0  0  0  0
   13.2640    9.1950    5.9770 O   0  0  0  0  0  0  0  0  0  0  0  0
   13.1150    6.8630    5.2780 C   0  0  0  0  0  0  0  0  0  0  0  0
   14.2200    6.3800    4.3390 C   0  0  0  0  0  0  0  0  0  0  0  0
   15.0970    5.2710    4.9380 C   0  0  0  0  0  0  0  0  0  0  0  0
   16.1230    4.6980    3.9500 C   0  0  0  0  0  0  0  0  0  0  0  0
   16.7730    3.4050    4.4480 C   0  0  0  0  0  0  0  0  0  0  0  0
   16.2140    2.9360    5.7020 N   0  0  0  0  0  0  0  0  0  0  0  0
   15.8100    1.6280    5.8650 C   0  0  0  0  0  0  0  0  0  0  0  0
   15.7310    0.8130    4.9380 O   0  0  0  0  0  0  0  0  0  0  0  0
   15.3540    1.2630    7.2910 C   0  0  1  0  0  0  0  0  0  0  0  0
   16.5640    0.7960    8.1310 C   0  0  0  0  0  0  0  0  0  0  0  0
   17.1780    1.8350    9.0850 C   0  0  0  0  0  0  0  0  0  0  0  0
   18.2870    2.7050    8.4780 C   0  0  0  0  0  0  0  0  0  0  0  0
   19.6510    2.4250    9.1010 C   0  0  0  0  0  0  0  0  0  0  0  0
   19.4860    1.6490   10.3540 N   0  0  0  0  0  0  0  0  0  0  0  0
   14.6450    2.4100    7.8530 N   0  0  0  0  0  0  0  0  0  0  0  0
   13.2950    2.5820    7.5960 C   0  0  0  0  0  0  0  0  0  0  0  0
   12.6210    1.7400    7.0200 O   0  0  0  0  0  0  0  0  0  0  0  0
   12.7630    3.9100    8.1070 C   0  0  0  0  0  0  0  0  0  0  0  0
   11.2490    4.0640    7.9720 C   0  0  0  0  0  0  0  0  0  0  0  0
   10.8420    5.2830    7.1380 C   0  0  0  0  0  0  0  0  0  0  0  0
    9.9010    6.1960    7.9310 C   0  0  0  0  0  0  0  0  0  0  0  0
   10.1950    6.1980    9.4320 C   0  0  0  0  0  0  0  0  0  0  0  0
    9.0920    5.7080   10.2360 N   0  0  0  0  0  0  0  0  0  0  0  0
    8.3220    6.5630   11.0010 C   0  0  0  0  0  0  0  0  0  0  0  0
    8.4310    7.7850   10.9670 O   0  0  0  0  0  0  0  0  0  0  0  0
    7.2510    5.8640   11.8430 C   0  0  1  0  0  0  0  0  0  0  0  0
    7.7800    4.7150   12.5190 O   0  0  0  0  0  0  0  0  0  0  0  0
    7.8960    5.0240   13.9200 C   0  0  1  0  0  0  0  0  0  0  0  0
    9.1840    4.5830   14.4240 N   0  0  0  0  0  0  0  0  0  0  0  0
   10.3330    4.3570   13.7180 C   0  0  0  0  0  0  0  0  0  0  0  0
   11.3090    3.9250   14.4920 N   0  0  0  0  0  0  0  0  0  0  0  0
   10.7620    3.8740   15.7570 C   0  0  0  0  0  0  0  0  0  0  0  0
   11.2860    3.5010   17.0060 C   0  0  0  0  0  0  0  0  0  0  0  0
   12.5840    3.0450   17.1810 N   0  0  0  0  0  0  0  0  0  0  0  0
   10.4890    3.6020   18.0940 N   0  0  0  0  0  0  0  0  0  0  0  0
    9.2210    4.0320   17.9260 C   0  0  0  0  0  0  0  0  0  0  0  0
    8.6050    4.4180   16.7840 N   0  0  0  0  0  0  0  0  0  0  0  0
    9.4450    4.2990   15.7390 C   0  0  0  0  0  0  0  0  0  0  0  0
    7.6840    6.5330   14.0760 C   0  0  2  0  0  0  0  0  0  0  0  0
    7.0480    6.9180   15.2980 O   0  0  0  0  0  0  0  0  0  0  0  0
    6.7690    6.8420   12.9060 C   0  0  2  0  0  0  0  0  0  0  0  0
    5.4040    6.5680   13.2610 O   0  0  0  0  0  0  0  0  0  0  0  0
   12.0310    7.9380   12.1200 C   0  0  0  0  0  0  0  0  0  0  0  0
   11.4260    8.9440   11.4180 N   0  0  0  0  0  0  0  0  0  0  0  0
   11.5450    7.5460   13.1840 O   0  0  0  0  0  0  0  0  0  0  0  0
   12.0690    0.9300   13.8290 H   0  0  0  0  0  0  0  0  0  0  0  0
   13.0740    0.8010   15.2200 H   0  0  0  0  0  0  0  0  0  0  0  0
   15.5050    3.1340   14.1790 H   0  0  0  0  0  0  0  0  0  0  0  0
   15.0200    2.0470   15.4200 H   0  0  0  0  0  0  0  0  0  0  0  0
   12.6580    2.3470   12.1230 H   0  0  0  0  0  0  0  0  0  0  0  0
   15.4104    3.4115   12.1917 H   0  0  0  0  0  0  0  0  0  0  0  0
   14.1854    3.5777   10.8561 H   0  0  0  0  0  0  0  0  0  0  0  0
   13.4975    5.0632   13.3069 H   0  0  0  0  0  0  0  0  0  0  0  0
   15.0363    5.5996   12.4885 H   0  0  0  0  0  0  0  0  0  0  0  0
   13.6438    5.6183   10.3239 H   0  0  0  0  0  0  0  0  0  0  0  0
   12.2068    5.5916   11.4478 H   0  0  0  0  0  0  0  0  0  0  0  0
   14.1995    7.6155   12.1801 H   0  0  0  0  0  0  0  0  0  0  0  0
   12.7880    8.0840    9.5620 H   0  0  0  0  0  0  0  0  0  0  0  0
   14.2890    9.5026    8.1919 H   0  0  0  0  0  0  0  0  0  0  0  0
   16.3307    9.9636    7.4895 H   0  0  0  0  0  0  0  0  0  0  0  0
   16.9130    8.7274    8.7217 H   0  0  0  0  0  0  0  0  0  0  0  0
   16.1637    7.9111    5.9266 H   0  0  0  0  0  0  0  0  0  0  0  0
   17.8171    8.5931    6.3595 H   0  0  0  0  0  0  0  0  0  0  0  0
   16.5449    6.0669    7.4553 H   0  0  0  0  0  0  0  0  0  0  0  0
   17.9335    6.1989    6.3045 H   0  0  0  0  0  0  0  0  0  0  0  0
   18.0310    7.2060    9.1380 H   0  0  0  0  0  0  0  0  0  0  0  0
   20.0750    7.0200   10.1360 H   0  0  0  0  0  0  0  0  0  0  0  0
   21.3760    6.2570    9.3030 H   0  0  0  0  0  0  0  0  0  0  0  0
   21.1070    5.4490    7.1400 H   0  0  0  0  0  0  0  0  0  0  0  0
   19.5910    5.5370    6.3340 H   0  0  0  0  0  0  0  0  0  0  0  0
   14.2420    6.6350    7.5290 H   0  0  0  0  0  0  0  0  0  0  0  0
   12.8083    6.0246    5.9207 H   0  0  0  0  0  0  0  0  0  0  0  0
   12.2838    7.2236    4.6542 H   0  0  0  0  0  0  0  0  0  0  0  0
   13.7521    5.9951    3.4209 H   0  0  0  0  0  0  0  0  0  0  0  0
   14.8771    7.2408    4.1457 H   0  0  0  0  0  0  0  0  0  0  0  0
   15.6389    5.6843    5.8015 H   0  0  0  0  0  0  0  0  0  0  0  0
   14.4261    4.4465    5.2209 H   0  0  0  0  0  0  0  0  0  0  0  0
   15.6144    4.4905    2.9970 H   0  0  0  0  0  0  0  0  0  0  0  0
   16.9219    5.4452    3.8340 H   0  0  0  0  0  0  0  0  0  0  0  0
   16.6292    2.6244    3.6864 H   0  0  0  0  0  0  0  0  0  0  0  0
   17.8381    3.6179    4.6217 H   0  0  0  0  0  0  0  0  0  0  0  0
   16.4340    3.4640    6.5400 H   0  0  0  0  0  0  0  0  0  0  0  0
   14.6541    0.4144    7.2876 H   0  0  0  0  0  0  0  0  0  0  0  0
   16.2392   -0.0631    8.7364 H   0  0  0  0  0  0  0  0  0  0  0  0
   17.3546    0.5671    7.4013 H   0  0  0  0  0  0  0  0  0  0  0  0
   16.3721    2.5009    9.4271 H   0  0  0  0  0  0  0  0  0  0  0  0
   17.6496    1.2623    9.8972 H   0  0  0  0  0  0  0  0  0  0  0  0
   18.3435    2.5031    7.3982 H   0  0  0  0  0  0  0  0  0  0  0  0
   18.0360    3.7571    8.6782 H   0  0  0  0  0  0  0  0  0  0  0  0
   20.2635    1.8476    8.3928 H   0  0  0  0  0  0  0  0  0  0  0  0
   20.1465    3.3800    9.3300 H   0  0  0  0  0  0  0  0  0  0  0  0
   18.6450    1.9190   10.9050 H   0  0  0  0  0  0  0  0  0  0  0  0
   19.3710    0.6470   10.1620 H   0  0  0  0  0  0  0  0  0  0  0  0
   20.2960    1.7500   10.9770 H   0  0  0  0  0  0  0  0  0  0  0  0
   15.1800    3.2580    8.0020 H   0  0  0  0  0  0  0  0  0  0  0  0
   13.0270    4.0025    9.1708 H   0  0  0  0  0  0  0  0  0  0  0  0
   13.2202    4.6963    7.4883 H   0  0  0  0  0  0  0  0  0  0  0  0
   10.8465    3.1603    7.4910 H   0  0  0  0  0  0  0  0  0  0  0  0
   10.8419    4.2075    8.9838 H   0  0  0  0  0  0  0  0  0  0  0  0
   11.7443    5.8481    6.8614 H   0  0  0  0  0  0  0  0  0  0  0  0
   10.3172    4.9338    6.2365 H   0  0  0  0  0  0  0  0  0  0  0  0
   10.0070    7.2231    7.5517 H   0  0  0  0  0  0  0  0  0  0  0  0
    8.8790    5.8120    7.7963 H   0  0  0  0  0  0  0  0  0  0  0  0
   11.0714    5.5594    9.6164 H   0  0  0  0  0  0  0  0  0  0  0  0
   10.3722    7.2429    9.7266 H   0  0  0  0  0  0  0  0  0  0  0  0
    9.1080    4.7270   10.4910 H   0  0  0  0  0  0  0  0  0  0  0  0
    6.4392    5.5426   11.1740 H   0  0  0  0  0  0  0  0  0  0  0  0
    7.1375    4.4943   14.5151 H   0  0  0  0  0  0  0  0  0  0  0  0
   10.4313    4.5165   12.6341 H   0  0  0  0  0  0  0  0  0  0  0  0
   12.8340    2.2590   16.5910 H   0  0  0  0  0  0  0  0  0  0  0  0
   13.2580    3.7870   17.3010 H   0  0  0  0  0  0  0  0  0  0  0  0
    8.6067    4.0745   18.8375 H   0  0  0  0  0  0  0  0  0  0  0  0
    8.6422    7.0728   14.0957 H   0  0  0  0  0  0  0  0  0  0  0  0
    6.3210    7.5320   15.0490 H   0  0  0  0  0  0  0  0  0  0  0  0
    6.7998    7.8926   12.5815 H   0  0  0  0  0  0  0  0  0  0  0  0
    5.3750    5.6000   13.4240 H   0  0  0  0  0  0  0  0  0  0  0  0
   11.5340    8.9730   10.4080 H   0  0  0  0  0  0  0  0  0  0  0  0
   10.5060    9.2220   11.7400 H   0  0  0  0  0  0  0  0  0  0  0  0
  1  2  1  0
  2  3  2  0
  2  4  1  0
  4  5  1  0
  5  6  1  0
  6  7  1  0
  7  8  1  0
  8  9  1  0
  9 10  1  0
 10 11  2  0
 10 12  1  0
 12 13  1  0
 13 14  1  0
 14 15  1  0
 15 16  1  0
 16 17  1  0
 17 18  1  0
 17 19  2  0
 12 20  1  0
 20 21  1  0
 21 22  2  0
 21 23  1  0
 23 24  1  0
 24 25  1  0
 25 26  1  0
 26 27  1  0
 27 28  1  0
 28 29  1  0
 29 30  2  0
 29 31  1  0
 31 32  1  0
 32 33  1  0
 33 34  1  0
 34 35  1  0
 35 36  1  0
 31 37  1  0
 37 38  1  0
 38 39  2  0
 38 40  1  0
 40 41  1  0
 41 42  1  0
 42 43  1  0
 43 44  1  0
 44 45  1  0
 45 46  1  0
 46 47  2  0
 46 48  1  0
 48 49  1  0
 49 50  1  0
 50 51  1  0
 51 52  1  0
 52 53  2  0
 53 54  1  0
 54 55  2  0
 55 56  1  0
 55 57  1  0
 57 58  2  0
 58 59  1  0
 59 60  2  0
 50 61  1  0
 61 62  1  0
 61 63  1  0
 63 64  1  0
  8 65  1  0
 65 66  1  0
 65 67  2  0
 63 48  1  0
 60 51  1  0
 60 54  1  0
  1 68  1  0
  1 69  1  0
  3 70  1  0
  3 71  1  0
  4 72  1  0
  5 73  1  0
  5 74  1  0
  6 75  1  0
  6 76  1  0
  7 77  1  0
  7 78  1  0
  8 79  1  1
  9 80  1  0
 12 81  1  1
 13 82  1  0
 13 83  1  0
 14 84  1  0
 14 85  1  0
 15 86  1  0
 15 87  1  0
 16 88  1  0
 18 89  1  0
 18 90  1  0
 19 91  1  0
 19 92  1  0
 20 93  1  0
 23 94  1  0
 23 95  1  0
 24 96  1  0
 24 97  1  0
 25 98  1  0
 25 99  1  0
 26100  1  0
 26101  1  0
 27102  1  0
 27103  1  0
 28104  1  0
 31105  1  6
 32106  1  0
 32107  1  0
 33108  1  0
 33109  1  0
 34110  1  0
 34111  1  0
 35112  1  0
 35113  1  0
 36114  1  0
 36115  1  0
 36116  1  0
 37117  1  0
 40118  1  0
 40119  1  0
 41120  1  0
 41121  1  0
 42122  1  0
 42123  1  0
 43124  1  0
 43125  1  0
 44126  1  0
 44127  1  0
 45128  1  0
 48129  1  6
 50130  1  1
 52131  1  0
 56132  1  0
 56133  1  0
 58134  1  0
 61135  1  6
 62136  1  0
 63137  1  6
 64138  1  0
 66139  1  0
 66140  1  0
M  CHG  3   3   1  19   1  36   1
M  END
>  <meeko>  (3) 
{"is_sidechain": [false], "free_energy": -7.207, "intermolecular_energy": -22.021, "internal_energy": -7.013}

$$$$
3ag9_ligand
     RDKit          3D

140142  0  0  0  0  0  0  0  0999 V2000
    9.4200    5.0160    9.5420 N   0  0  0  0  0  0  0  0  0  0  0  0
    9.5080    6.2680    9.0840 C   0  0  0  0  0  0  0  0  0  0  0  0
    8.4060    6.8550    8.6140 N   0  0  0  0  0  0  0  0  0  0  0  0
   10.7000    6.8990    9.1080 N   0  0  0  0  0  0  0  0  0  0  0  0
   10.9010    8.2810    8.6530 C   0  0  0  0  0  0  0  0  0  0  0  0
   12.3790    8.6820    8.6240 C   0  0  0  0  0  0  0  0  0  0  0  0
   12.6220   10.0400    7.9520 C   0  0  0  0  0  0  0  0  0  0  0  0
   14.0730   10.2280    7.4690 C   0  0  1  0  0  0  0  0  0  0  0  0
   14.4260    9.1920    6.4970 N   0  0  0  0  0  0  0  0  0  0  0  0
   15.7070    8.6660    6.5200 C   0  0  0  0  0  0  0  0  0  0  0  0
   16.5740    9.0630    7.2940 O   0  0  0  0  0  0  0  0  0  0  0  0
   15.9280    7.5200    5.5140 C   0  0  1  0  0  0  0  0  0  0  0  0
   17.4180    7.3660    5.1670 C   0  0  0  0  0  0  0  0  0  0  0  0
   18.0330    6.0030    5.5190 C   0  0  0  0  0  0  0  0  0  0  0  0
   19.0570    6.0250    6.6530 C   0  0  0  0  0  0  0  0  0  0  0  0
   18.4610    6.5410    7.8930 N   0  0  0  0  0  0  0  0  0  0  0  0
   18.9980    7.5300    8.6300 C   0  0  0  0  0  0  0  0  0  0  0  0
   18.3430    7.9630    9.7130 N   0  0  0  0  0  0  0  0  0  0  0  0
   20.1650    8.0980    8.3270 N   0  0  0  0  0  0  0  0  0  0  0  0
   15.4280    6.3000    6.1410 N   0  0  0  0  0  0  0  0  0  0  0  0
   14.1520    5.8380    5.8970 C   0  0  0  0  0  0  0  0  0  0  0  0
   13.3560    6.4480    5.1880 O   0  0  0  0  0  0  0  0  0  0  0  0
   13.8490    4.5370    6.6230 C   0  0  0  0  0  0  0  0  0  0  0  0
   12.4160    4.4750    7.1500 C   0  0  0  0  0  0  0  0  0  0  0  0
   12.1680    3.3200    8.1300 C   0  0  0  0  0  0  0  0  0  0  0  0
   12.0510    1.9500    7.4480 C   0  0  0  0  0  0  0  0  0  0  0  0
   13.2030    1.0060    7.8020 C   0  0  0  0  0  0  0  0  0  0  0  0
   14.2010    1.6250    8.6540 N   0  0  0  0  0  0  0  0  0  0  0  0
   15.5240    1.6960    8.2770 C   0  0  0  0  0  0  0  0  0  0  0  0
   15.9910    1.1060    7.2950 O   0  0  0  0  0  0  0  0  0  0  0  0
   16.4310    2.4930    9.2370 C   0  0  1  0  0  0  0  0  0  0  0  0
   17.8800    2.5120    8.7030 C   0  0  0  0  0  0  0  0  0  0  0  0
   18.9320    1.7780    9.5520 C   0  0  0  0  0  0  0  0  0  0  0  0
   20.3920    2.0810    9.1900 C   0  0  0  0  0  0  0  0  0  0  0  0
   20.5600    3.4620    8.5640 C   0  0  0  0  0  0  0  0  0  0  0  0
   20.9000    4.4550    9.6110 N   0  0  0  0  0  0  0  0  0  0  0  0
   15.8460    3.8180    9.4250 N   0  0  0  0  0  0  0  0  0  0  0  0
   15.0250    4.0640   10.5130 C   0  0  0  0  0  0  0  0  0  0  0  0
   14.8630    3.2520   11.4140 O   0  0  0  0  0  0  0  0  0  0  0  0
   14.3670    5.4310   10.4570 C   0  0  0  0  0  0  0  0  0  0  0  0
   13.9080    5.9540   11.8170 C   0  0  0  0  0  0  0  0  0  0  0  0
   12.4870    6.5260   11.7920 C   0  0  0  0  0  0  0  0  0  0  0  0
   12.4660    7.9610   12.3300 C   0  0  0  0  0  0  0  0  0  0  0  0
   11.0510    8.5150   12.4960 C   0  0  0  0  0  0  0  0  0  0  0  0
   10.0200    7.4990   12.4150 N   0  0  0  0  0  0  0  0  0  0  0  0
    8.6900    7.8340   12.2490 C   0  0  0  0  0  0  0  0  0  0  0  0
    8.3010    8.9790   12.0410 O   0  0  0  0  0  0  0  0  0  0  0  0
    7.7330    6.6380   12.2590 C   0  0  1  0  0  0  0  0  0  0  0  0
    8.4440    5.3960   12.3530 O   0  0  0  0  0  0  0  0  0  0  0  0
    8.2530    4.8590   13.6750 C   0  0  1  0  0  0  0  0  0  0  0  0
    9.5190    4.3940   14.2140 N   0  0  0  0  0  0  0  0  0  0  0  0
   10.6770    4.1300   13.5360 C   0  0  0  0  0  0  0  0  0  0  0  0
   11.6240    3.6840   14.3370 N   0  0  0  0  0  0  0  0  0  0  0  0
   11.0490    3.6650   15.5910 C   0  0  0  0  0  0  0  0  0  0  0  0
   11.5360    3.2960   16.8560 C   0  0  0  0  0  0  0  0  0  0  0  0
   12.8170    2.8110   17.0650 N   0  0  0  0  0  0  0  0  0  0  0  0
   10.7170    3.4310   17.9240 N   0  0  0  0  0  0  0  0  0  0  0  0
    9.4640    3.8900   17.7230 C   0  0  0  0  0  0  0  0  0  0  0  0
    8.8830    4.2750   16.5620 N   0  0  0  0  0  0  0  0  0  0  0  0
    9.7430    4.1220   15.5370 C   0  0  0  0  0  0  0  0  0  0  0  0
    7.6150    5.9600   14.5280 C   0  0  2  0  0  0  0  0  0  0  0  0
    6.7170    5.4820   15.5340 O   0  0  0  0  0  0  0  0  0  0  0  0
    6.8430    6.7520   13.4900 C   0  0  2  0  0  0  0  0  0  0  0  0
    5.5680    6.1380   13.2480 O   0  0  0  0  0  0  0  0  0  0  0  0
   14.2260   11.6150    6.7840 C   0  0  0  0  0  0  0  0  0  0  0  0
   15.4890   12.1390    6.7930 N   0  0  0  0  0  0  0  0  0  0  0  0
   13.2930   12.2550    6.2910 O   0  0  0  0  0  0  0  0  0  0  0  0
   10.2160    4.5180    9.9150 H   0  0  0  0  0  0  0  0  0  0  0  0
    8.5360    4.5190    9.5400 H   0  0  0  0  0  0  0  0  0  0  0  0
    8.4130    7.8010    8.2580 H   0  0  0  0  0  0  0  0  0  0  0  0
    7.5130    6.3780    8.6040 H   0  0  0  0  0  0  0  0  0  0  0  0
   11.4800    6.3860    9.4980 H   0  0  0  0  0  0  0  0  0  0  0  0
   10.4887    8.3814    7.6382 H   0  0  0  0  0  0  0  0  0  0  0  0
   10.3895    8.9444    9.3659 H   0  0  0  0  0  0  0  0  0  0  0  0
   12.7482    8.7326    9.6589 H   0  0  0  0  0  0  0  0  0  0  0  0
   12.9127    7.9235    8.0325 H   0  0  0  0  0  0  0  0  0  0  0  0
   11.9510   10.1257    7.0846 H   0  0  0  0  0  0  0  0  0  0  0  0
   12.4253   10.8170    8.7054 H   0  0  0  0  0  0  0  0  0  0  0  0
   14.7379   10.1590    8.3426 H   0  0  0  0  0  0  0  0  0  0  0  0
   13.7190    8.4920    6.2690 H   0  0  0  0  0  0  0  0  0  0  0  0
   15.3977    7.7308    4.5736 H   0  0  0  0  0  0  0  0  0  0  0  0
   17.5334    7.5222    4.0843 H   0  0  0  0  0  0  0  0  0  0  0  0
   17.9524    8.1092    5.7770 H   0  0  0  0  0  0  0  0  0  0  0  0
   17.2164    5.3263    5.8109 H   0  0  0  0  0  0  0  0  0  0  0  0
   18.5776    5.6729    4.6221 H   0  0  0  0  0  0  0  0  0  0  0  0
   19.4215    5.0020    6.8280 H   0  0  0  0  0  0  0  0  0  0  0  0
   19.8866    6.6862    6.3622 H   0  0  0  0  0  0  0  0  0  0  0  0
   17.5840    6.1530    8.2140 H   0  0  0  0  0  0  0  0  0  0  0  0
   17.4470    7.5810    9.9880 H   0  0  0  0  0  0  0  0  0  0  0  0
   18.7140    8.7080   10.2890 H   0  0  0  0  0  0  0  0  0  0  0  0
   20.5570    8.8460    8.8790 H   0  0  0  0  0  0  0  0  0  0  0  0
   20.7370    7.7890    7.5340 H   0  0  0  0  0  0  0  0  0  0  0  0
   15.9090    5.9600    6.9670 H   0  0  0  0  0  0  0  0  0  0  0  0
   14.0038    3.7006    5.9255 H   0  0  0  0  0  0  0  0  0  0  0  0
   14.5242    4.4751    7.4892 H   0  0  0  0  0  0  0  0  0  0  0  0
   12.1943    5.4212    7.6653 H   0  0  0  0  0  0  0  0  0  0  0  0
   11.7615    4.3061    6.2821 H   0  0  0  0  0  0  0  0  0  0  0  0
   13.0048    3.2832    8.8431 H   0  0  0  0  0  0  0  0  0  0  0  0
   11.2054    3.5175    8.6244 H   0  0  0  0  0  0  0  0  0  0  0  0
   11.1057    1.4823    7.7606 H   0  0  0  0  0  0  0  0  0  0  0  0
   12.0856    2.1189    6.3616 H   0  0  0  0  0  0  0  0  0  0  0  0
   12.7907    0.1301    8.3242 H   0  0  0  0  0  0  0  0  0  0  0  0
   13.7005    0.7264    6.8616 H   0  0  0  0  0  0  0  0  0  0  0  0
   13.8760    2.2930    9.3460 H   0  0  0  0  0  0  0  0  0  0  0  0
   16.4903    2.0178   10.2273 H   0  0  0  0  0  0  0  0  0  0  0  0
   17.8747    2.0506    7.7045 H   0  0  0  0  0  0  0  0  0  0  0  0
   18.1816    3.5698    8.7147 H   0  0  0  0  0  0  0  0  0  0  0  0
   18.7769    2.0596   10.6040 H   0  0  0  0  0  0  0  0  0  0  0  0
   18.7860    0.7052    9.3578 H   0  0  0  0  0  0  0  0  0  0  0  0
   21.0007    2.0312   10.1049 H   0  0  0  0  0  0  0  0  0  0  0  0
   20.7164    1.3348    8.4497 H   0  0  0  0  0  0  0  0  0  0  0  0
   21.3677    3.4281    7.8180 H   0  0  0  0  0  0  0  0  0  0  0  0
   19.6172    3.7562    8.0797 H   0  0  0  0  0  0  0  0  0  0  0  0
   21.5400    4.0860   10.3450 H   0  0  0  0  0  0  0  0  0  0  0  0
   21.3880    5.2660    9.2140 H   0  0  0  0  0  0  0  0  0  0  0  0
   20.0650    4.8060   10.0930 H   0  0  0  0  0  0  0  0  0  0  0  0
   15.6530    4.3620    8.5920 H   0  0  0  0  0  0  0  0  0  0  0  0
   15.0896    6.1461   10.0370 H   0  0  0  0  0  0  0  0  0  0  0  0
   13.4659    5.3260    9.8349 H   0  0  0  0  0  0  0  0  0  0  0  0
   13.9392    5.1252   12.5396 H   0  0  0  0  0  0  0  0  0  0  0  0
   14.5863    6.7725   12.0998 H   0  0  0  0  0  0  0  0  0  0  0  0
   12.1161    6.5241   10.7564 H   0  0  0  0  0  0  0  0  0  0  0  0
   11.8453    5.9015   12.4309 H   0  0  0  0  0  0  0  0  0  0  0  0
   12.9655    7.9755   13.3099 H   0  0  0  0  0  0  0  0  0  0  0  0
   12.9843    8.5956   11.5961 H   0  0  0  0  0  0  0  0  0  0  0  0
   10.9815    9.0043   13.4788 H   0  0  0  0  0  0  0  0  0  0  0  0
   10.8790    9.2179   11.6675 H   0  0  0  0  0  0  0  0  0  0  0  0
   10.2350    6.5920   12.8120 H   0  0  0  0  0  0  0  0  0  0  0  0
    7.1545    6.6492   11.3235 H   0  0  0  0  0  0  0  0  0  0  0  0
    7.5864    3.9841   13.6641 H   0  0  0  0  0  0  0  0  0  0  0  0
   10.8029    4.2727   12.4526 H   0  0  0  0  0  0  0  0  0  0  0  0
   13.3490    3.3220   17.7620 H   0  0  0  0  0  0  0  0  0  0  0  0
   12.8710    1.8030   17.0660 H   0  0  0  0  0  0  0  0  0  0  0  0
    8.8315    3.9607   18.6202 H   0  0  0  0  0  0  0  0  0  0  0  0
    8.3739    6.5192   15.0949 H   0  0  0  0  0  0  0  0  0  0  0  0
    6.5390    4.5380   15.3180 H   0  0  0  0  0  0  0  0  0  0  0  0
    6.6350    7.7907   13.7863 H   0  0  0  0  0  0  0  0  0  0  0  0
    5.6590    5.2220   13.5930 H   0  0  0  0  0  0  0  0  0  0  0  0
   16.2840   11.5060    6.7770 H   0  0  0  0  0  0  0  0  0  0  0  0
   15.6270   12.9830    6.2500 H   0  0  0  0  0  0  0  0  0  0  0  0
  1  2  1  0
  2  3  2  0
  2  4  1  0
  4  5  1  0
  5  6  1  0
  6  7  1  0
  7  8  1  0
  8  9  1  0
  9 10  1  0
 10 11  2  0
 10 12  1  0
 12 13  1  0
 13 14  1  0
 14 15  1  0
 15 16  1  0
 16 17  1  0
 17 18  1  0
 17 19  2  0
 12 20  1  0
 20 21  1  0
 21 22  2  0
 21 23  1  0
 23 24  1  0
 24 25  1  0
 25 26  1  0
 26 27  1  0
 27 28  1  0
 28 29  1  0
 29 30  2  0
 29 31  1  0
 31 32  1  0
 32 33  1  0
 33 34  1  0
 34 35  1  0
 35 36  1  0
 31 37  1  0
 37 38  1  0
 38 39  2  0
 38 40  1  0
 40 41  1  0
 41 42  1  0
 42 43  1  0
 43 44  1  0
 44 45  1  0
 45 46  1  0
 46 47  2  0
 46 48  1  0
 48 49  1  0
 49 50  1  0
 50 51  1  0
 51 52  1  0
 52 53  2  0
 53 54  1  0
 54 55  2  0
 55 56  1  0
 55 57  1  0
 57 58  2  0
 58 59  1  0
 59 60  2  0
 50 61  1  0
 61 62  1  0
 61 63  1  0
 63 64  1  0
  8 65  1  0
 65 66  1  0
 65 67  2  0
 63 48  1  0
 60 51  1  0
 60 54  1  0
  1 68  1  0
  1 69  1  0
  3 70  1  0
  3 71  1  0
  4 72  1  0
  5 73  1  0
  5 74  1  0
  6 75  1  0
  6 76  1  0
  7 77  1  0
  7 78  1  0
  8 79  1  1
  9 80  1  0
 12 81  1  6
 13 82  1  0
 13 83  1  0
 14 84  1  0
 14 85  1  0
 15 86  1  0
 15 87  1  0
 16 88  1  0
 18 89  1  0
 18 90  1  0
 19 91  1  0
 19 92  1  0
 20 93  1  0
 23 94  1  0
 23 95  1  0
 24 96  1  0
 24 97  1  0
 25 98  1  0
 25 99  1  0
 26100  1  0
 26101  1  0
 27102  1  0
 27103  1  0
 28104  1  0
 31105  1  1
 32106  1  0
 32107  1  0
 33108  1  0
 33109  1  0
 34110  1  0
 34111  1  0
 35112  1  0
 35113  1  0
 36114  1  0
 36115  1  0
 36116  1  0
 37117  1  0
 40118  1  0
 40119  1  0
 41120  1  0
 41121  1  0
 42122  1  0
 42123  1  0
 43124  1  0
 43125  1  0
 44126  1  0
 44127  1  0
 45128  1  0
 48129  1  6
 50130  1  6
 52131  1  0
 56132  1  0
 56133  1  0
 58134  1  0
 61135  1  1
 62136  1  0
 63137  1  1
 64138  1  0
 66139  1  0
 66140  1  0
M  CHG  3   3   1  19   1  36   1
M  END
>  <meeko>  (4) 
{"is_sidechain": [false], "free_energy": -7.072, "intermolecular_energy": -21.894, "internal_energy": -6.737}

$$$$
3ag9_ligand
     RDKit          3D

140142  0  0  0  0  0  0  0  0999 V2000
   19.3920    8.8510    5.8950 N   0  0  0  0  0  0  0  0  0  0  0  0
   19.8260    7.7070    6.4300 C   0  0  0  0  0  0  0  0  0  0  0  0
   20.0690    7.6690    7.7420 N   0  0  0  0  0  0  0  0  0  0  0  0
   20.0060    6.6320    5.6380 N   0  0  0  0  0  0  0  0  0  0  0  0
   20.4550    5.3220    6.1290 C   0  0  0  0  0  0  0  0  0  0  0  0
   19.4740    4.1960    5.7840 C   0  0  0  0  0  0  0  0  0  0  0  0
   18.8870    4.3200    4.3720 C   0  0  0  0  0  0  0  0  0  0  0  0
   17.3510    4.1970    4.3390 C   0  0  1  0  0  0  0  0  0  0  0  0
   16.8650    3.5550    5.5600 N   0  0  0  0  0  0  0  0  0  0  0  0
   16.4390    2.2390    5.4970 C   0  0  0  0  0  0  0  0  0  0  0  0
   16.4120    1.6000    4.4490 O   0  0  0  0  0  0  0  0  0  0  0  0
   16.0400    1.6460    6.8620 C   0  0  1  0  0  0  0  0  0  0  0  0
   16.9350    2.1900    7.9870 C   0  0  0  0  0  0  0  0  0  0  0  0
   17.4210    1.1420    9.0000 C   0  0  0  0  0  0  0  0  0  0  0  0
   18.9080    1.2140    9.3470 C   0  0  0  0  0  0  0  0  0  0  0  0
   19.3250    2.6010    9.5990 N   0  0  0  0  0  0  0  0  0  0  0  0
   20.5050    3.1130    9.2060 C   0  0  0  0  0  0  0  0  0  0  0  0
   20.7620    4.4050    9.4360 N   0  0  0  0  0  0  0  0  0  0  0  0
   21.4370    2.3820    8.5950 N   0  0  0  0  0  0  0  0  0  0  0  0
   14.6490    2.0210    7.0990 N   0  0  0  0  0  0  0  0  0  0  0  0
   13.7370    1.1180    7.6010 C   0  0  0  0  0  0  0  0  0  0  0  0
   14.0260   -0.0550    7.8240 O   0  0  0  0  0  0  0  0  0  0  0  0
   12.3570    1.7240    7.8020 C   0  0  0  0  0  0  0  0  0  0  0  0
   12.3200    3.2210    7.4960 C   0  0  0  0  0  0  0  0  0  0  0  0
   12.2450    4.1050    8.7500 C   0  0  0  0  0  0  0  0  0  0  0  0
   10.8110    4.4500    9.1740 C   0  0  0  0  0  0  0  0  0  0  0  0
   10.4340    5.9040    8.8780 C   0  0  0  0  0  0  0  0  0  0  0  0
    9.4280    6.4240    9.7860 N   0  0  0  0  0  0  0  0  0  0  0  0
    9.2180    7.7790    9.9250 C   0  0  0  0  0  0  0  0  0  0  0  0
    9.9570    8.6420    9.4390 O   0  0  0  0  0  0  0  0  0  0  0  0
    8.0330    8.1600   10.8350 C   0  0  1  0  0  0  0  0  0  0  0  0
    6.7160    8.1360   10.0270 C   0  0  0  0  0  0  0  0  0  0  0  0
    6.5010    9.2910    9.0350 C   0  0  0  0  0  0  0  0  0  0  0  0
    5.5880   10.4200    9.5320 C   0  0  0  0  0  0  0  0  0  0  0  0
    6.2880   11.3340   10.5320 C   0  0  0  0  0  0  0  0  0  0  0  0
    5.7510   11.1020   11.8950 N   0  0  0  0  0  0  0  0  0  0  0  0
    8.0400    7.2710   11.9940 N   0  0  0  0  0  0  0  0  0  0  0  0
    7.5950    7.7300   13.2220 C   0  0  0  0  0  0  0  0  0  0  0  0
    7.0630    8.8230   13.3640 O   0  0  0  0  0  0  0  0  0  0  0  0
    7.8360    6.7370   14.3450 C   0  0  0  0  0  0  0  0  0  0  0  0
    7.2940    5.3370   14.0600 C   0  0  0  0  0  0  0  0  0  0  0  0
    7.3020    4.4280   15.2930 C   0  0  0  0  0  0  0  0  0  0  0  0
    8.0320    5.1000   16.4610 C   0  0  0  0  0  0  0  0  0  0  0  0
    9.2880    4.3430   16.8950 C   0  0  0  0  0  0  0  0  0  0  0  0
    9.8870    3.5610   15.8310 N   0  0  0  0  0  0  0  0  0  0  0  0
   11.0820    2.8920   16.0130 C   0  0  0  0  0  0  0  0  0  0  0  0
   11.6530    2.8090   17.0970 O   0  0  0  0  0  0  0  0  0  0  0  0
   11.6030    2.1800   14.7610 C   0  0  1  0  0  0  0  0  0  0  0  0
   11.2860    2.9130   13.5690 O   0  0  0  0  0  0  0  0  0  0  0  0
   12.4970    3.5080   13.0650 C   0  0  1  0  0  0  0  0  0  0  0  0
   12.2570    4.8910   12.6960 N   0  0  0  0  0  0  0  0  0  0  0  0
   11.1730    5.6690   12.9970 C   0  0  0  0  0  0  0  0  0  0  0  0
   11.2690    6.8720   12.4670 N   0  0  0  0  0  0  0  0  0  0  0  0
   12.4740    6.8700   11.7960 C   0  0  0  0  0  0  0  0  0  0  0  0
   13.1440    7.8450   11.0390 C   0  0  0  0  0  0  0  0  0  0  0  0
   12.6250    9.1070   10.7960 N   0  0  0  0  0  0  0  0  0  0  0  0
   14.3600    7.5420   10.5320 N   0  0  0  0  0  0  0  0  0  0  0  0
   14.8630    6.3090   10.7540 C   0  0  0  0  0  0  0  0  0  0  0  0
   14.3190    5.2910   11.4610 N   0  0  0  0  0  0  0  0  0  0  0  0
   13.1140    5.6510   11.9440 C   0  0  0  0  0  0  0  0  0  0  0  0
   13.5670    3.3600   14.1510 C   0  0  2  0  0  0  0  0  0  0  0  0
   14.8960    3.1880   13.6510 O   0  0  0  0  0  0  0  0  0  0  0  0
   13.1200    2.0950   14.8600 C   0  0  2  0  0  0  0  0  0  0  0  0
   13.6060    0.9390   14.1600 O   0  0  0  0  0  0  0  0  0  0  0  0
   16.7110    5.6100    4.2400 C   0  0  0  0  0  0  0  0  0  0  0  0
   15.4540    5.6480    3.7020 N   0  0  0  0  0  0  0  0  0  0  0  0
   17.2760    6.6560    4.5700 O   0  0  0  0  0  0  0  0  0  0  0  0
   19.1860    8.9450    4.9090 H   0  0  0  0  0  0  0  0  0  0  0  0
   19.2430    9.6750    6.4670 H   0  0  0  0  0  0  0  0  0  0  0  0
   20.3950    6.8300    8.2020 H   0  0  0  0  0  0  0  0  0  0  0  0
   19.9270    8.4790    8.3330 H   0  0  0  0  0  0  0  0  0  0  0  0
   19.7800    6.7440    4.6580 H   0  0  0  0  0  0  0  0  0  0  0  0
   21.4302    5.0910    5.6755 H   0  0  0  0  0  0  0  0  0  0  0  0
   20.5217    5.3818    7.2253 H   0  0  0  0  0  0  0  0  0  0  0  0
   20.0037    3.2349    5.8596 H   0  0  0  0  0  0  0  0  0  0  0  0
   18.6365    4.2620    6.4941 H   0  0  0  0  0  0  0  0  0  0  0  0
   19.1679    5.3012    3.9618 H   0  0  0  0  0  0  0  0  0  0  0  0
   19.2938    3.4903    3.7753 H   0  0  0  0  0  0  0  0  0  0  0  0
   17.0724    3.5903    3.4647 H   0  0  0  0  0  0  0  0  0  0  0  0
   17.3450    3.7700    6.4360 H   0  0  0  0  0  0  0  0  0  0  0  0
   16.1624    0.5529    6.8528 H   0  0  0  0  0  0  0  0  0  0  0  0
   17.8196    2.6525    7.5248 H   0  0  0  0  0  0  0  0  0  0  0  0
   16.3149    2.8993    8.5548 H   0  0  0  0  0  0  0  0  0  0  0  0
   16.8477    1.2752    9.9293 H   0  0  0  0  0  0  0  0  0  0  0  0
   17.2652    0.1623    8.5247 H   0  0  0  0  0  0  0  0  0  0  0  0
   19.0963    0.6126   10.2486 H   0  0  0  0  0  0  0  0  0  0  0  0
   19.4852    0.8243    8.4955 H   0  0  0  0  0  0  0  0  0  0  0  0
   18.6890    3.2250   10.0770 H   0  0  0  0  0  0  0  0  0  0  0  0
   20.0900    5.0160    9.8840 H   0  0  0  0  0  0  0  0  0  0  0  0
   21.6370    4.8260    9.1510 H   0  0  0  0  0  0  0  0  0  0  0  0
   22.3170    2.7740    8.2950 H   0  0  0  0  0  0  0  0  0  0  0  0
   21.3210    1.3780    8.4220 H   0  0  0  0  0  0  0  0  0  0  0  0
   14.2930    2.8470    6.6280 H   0  0  0  0  0  0  0  0  0  0  0  0
   11.6471    1.2111    7.1365 H   0  0  0  0  0  0  0  0  0  0  0  0
   12.0882    1.5945    8.8608 H   0  0  0  0  0  0  0  0  0  0  0  0
   13.2314    3.4844    6.9392 H   0  0  0  0  0  0  0  0  0  0  0  0
   11.4049    3.4082    6.9150 H   0  0  0  0  0  0  0  0  0  0  0  0
   12.7346    3.5739    9.5796 H   0  0  0  0  0  0  0  0  0  0  0  0
   12.7462    5.0534    8.5064 H   0  0  0  0  0  0  0  0  0  0  0  0
   10.1169    3.7905    8.6324 H   0  0  0  0  0  0  0  0  0  0  0  0
   10.7463    4.3081   10.2629 H   0  0  0  0  0  0  0  0  0  0  0  0
   11.3379    6.5250    8.9631 H   0  0  0  0  0  0  0  0  0  0  0  0
   10.0097    5.9345    7.8636 H   0  0  0  0  0  0  0  0  0  0  0  0
    8.6690    5.8040   10.0480 H   0  0  0  0  0  0  0  0  0  0  0  0
    8.1262    9.1890   11.2125 H   0  0  0  0  0  0  0  0  0  0  0  0
    6.6905    7.1958    9.4565 H   0  0  0  0  0  0  0  0  0  0  0  0
    5.9139    8.2384   10.7728 H   0  0  0  0  0  0  0  0  0  0  0  0
    7.4839    9.7263    8.8019 H   0  0  0  0  0  0  0  0  0  0  0  0
    5.9954    8.8525    8.1620 H   0  0  0  0  0  0  0  0  0  0  0  0
    5.2668   11.0209    8.6685 H   0  0  0  0  0  0  0  0  0  0  0  0
    4.7299    9.9582   10.0423 H   0  0  0  0  0  0  0  0  0  0  0  0
    7.3674   11.1224   10.5250 H   0  0  0  0  0  0  0  0  0  0  0  0
    6.1109   12.3819   10.2481 H   0  0  0  0  0  0  0  0  0  0  0  0
    5.1240   10.2730   11.9600 H   0  0  0  0  0  0  0  0  0  0  0  0
    6.5050   10.9230   12.5690 H   0  0  0  0  0  0  0  0  0  0  0  0
    5.2180   11.9080   12.2400 H   0  0  0  0  0  0  0  0  0  0  0  0
    8.7540    6.5510   12.0210 H   0  0  0  0  0  0  0  0  0  0  0  0
    8.9204    6.6610   14.5134 H   0  0  0  0  0  0  0  0  0  0  0  0
    7.2973    7.1148   15.2265 H   0  0  0  0  0  0  0  0  0  0  0  0
    6.2589    5.4289   13.6993 H   0  0  0  0  0  0  0  0  0  0  0  0
    7.9522    4.8767   13.3084 H   0  0  0  0  0  0  0  0  0  0  0  0
    6.2646    4.2153   15.5908 H   0  0  0  0  0  0  0  0  0  0  0  0
    7.8270    3.4952   15.0395 H   0  0  0  0  0  0  0  0  0  0  0  0
    8.3230    6.1157   16.1548 H   0  0  0  0  0  0  0  0  0  0  0  0
    7.3420    5.1115   17.3176 H   0  0  0  0  0  0  0  0  0  0  0  0
   10.0297    5.0734   17.2505 H   0  0  0  0  0  0  0  0  0  0  0  0
    8.9856    3.6388   17.6841 H   0  0  0  0  0  0  0  0  0  0  0  0
    9.6080    3.7840   14.8830 H   0  0  0  0  0  0  0  0  0  0  0  0
   11.1332    1.1869   14.7052 H   0  0  0  0  0  0  0  0  0  0  0  0
   12.8462    3.0048   12.1513 H   0  0  0  0  0  0  0  0  0  0  0  0
   10.3230    5.3312   13.6081 H   0  0  0  0  0  0  0  0  0  0  0  0
   12.8320    9.7900   11.5170 H   0  0  0  0  0  0  0  0  0  0  0  0
   12.6970    9.3930    9.8300 H   0  0  0  0  0  0  0  0  0  0  0  0
   15.8442    6.1048   10.3006 H   0  0  0  0  0  0  0  0  0  0  0  0
   13.6344    4.2638   14.7744 H   0  0  0  0  0  0  0  0  0  0  0  0
   15.2740    2.4190   14.1350 H   0  0  0  0  0  0  0  0  0  0  0  0
   13.4881    2.0094   15.8930 H   0  0  0  0  0  0  0  0  0  0  0  0
   13.4330    0.1850   14.7660 H   0  0  0  0  0  0  0  0  0  0  0  0
   14.8380    4.8520    3.8330 H   0  0  0  0  0  0  0  0  0  0  0  0
   14.9800    6.5440    3.7390 H   0  0  0  0  0  0  0  0  0  0  0  0
  1  2  1  0
  2  3  2  0
  2  4  1  0
  4  5  1  0
  5  6  1  0
  6  7  1  0
  7  8  1  0
  8  9  1  0
  9 10  1  0
 10 11  2  0
 10 12  1  0
 12 13  1  0
 13 14  1  0
 14 15  1  0
 15 16  1  0
 16 17  1  0
 17 18  1  0
 17 19  2  0
 12 20  1  0
 20 21  1  0
 21 22  2  0
 21 23  1  0
 23 24  1  0
 24 25  1  0
 25 26  1  0
 26 27  1  0
 27 28  1  0
 28 29  1  0
 29 30  2  0
 29 31  1  0
 31 32  1  0
 32 33  1  0
 33 34  1  0
 34 35  1  0
 35 36  1  0
 31 37  1  0
 37 38  1  0
 38 39  2  0
 38 40  1  0
 40 41  1  0
 41 42  1  0
 42 43  1  0
 43 44  1  0
 44 45  1  0
 45 46  1  0
 46 47  2  0
 46 48  1  0
 48 49  1  0
 49 50  1  0
 50 51  1  0
 51 52  1  0
 52 53  2  0
 53 54  1  0
 54 55  2  0
 55 56  1  0
 55 57  1  0
 57 58  2  0
 58 59  1  0
 59 60  2  0
 50 61  1  0
 61 62  1  0
 61 63  1  0
 63 64  1  0
  8 65  1  0
 65 66  1  0
 65 67  2  0
 63 48  1  0
 60 51  1  0
 60 54  1  0
  1 68  1  0
  1 69  1  0
  3 70  1  0
  3 71  1  0
  4 72  1  0
  5 73  1  0
  5 74  1  0
  6 75  1  0
  6 76  1  0
  7 77  1  0
  7 78  1  0
  8 79  1  6
  9 80  1  0
 12 81  1  6
 13 82  1  0
 13 83  1  0
 14 84  1  0
 14 85  1  0
 15 86  1  0
 15 87  1  0
 16 88  1  0
 18 89  1  0
 18 90  1  0
 19 91  1  0
 19 92  1  0
 20 93  1  0
 23 94  1  0
 23 95  1  0
 24 96  1  0
 24 97  1  0
 25 98  1  0
 25 99  1  0
 26100  1  0
 26101  1  0
 27102  1  0
 27103  1  0
 28104  1  0
 31105  1  1
 32106  1  0
 32107  1  0
 33108  1  0
 33109  1  0
 34110  1  0
 34111  1  0
 35112  1  0
 35113  1  0
 36114  1  0
 36115  1  0
 36116  1  0
 37117  1  0
 40118  1  0
 40119  1  0
 41120  1  0
 41121  1  0
 42122  1  0
 42123  1  0
 43124  1  0
 43125  1  0
 44126  1  0
 44127  1  0
 45128  1  0
 48129  1  6
 50130  1  6
 52131  1  0
 56132  1  0
 56133  1  0
 58134  1  0
 61135  1  1
 62136  1  0
 63137  1  1
 64138  1  0
 66139  1  0
 66140  1  0
M  CHG  3   3   1  19   1  36   1
M  END
>  <meeko>  (5) 
{"is_sidechain": [false], "free_energy": -7.048, "intermolecular_energy": -21.328, "internal_energy": -7.23}

$$$$
3ag9_ligand
     RDKit          3D

140142  0  0  0  0  0  0  0  0999 V2000
   20.1450    7.0120    8.9700 N   0  0  0  0  0  0  0  0  0  0  0  0
   19.0870    7.4830    8.3020 C   0  0  0  0  0  0  0  0  0  0  0  0
   19.2210    7.7480    7.0010 N   0  0  0  0  0  0  0  0  0  0  0  0
   17.9240    7.6760    8.9550 N   0  0  0  0  0  0  0  0  0  0  0  0
   16.6970    8.1640    8.3110 C   0  0  0  0  0  0  0  0  0  0  0  0
   15.6790    7.0470    8.0610 C   0  0  0  0  0  0  0  0  0  0  0  0
   14.8580    7.2560    6.7820 C   0  0  0  0  0  0  0  0  0  0  0  0
   15.4330    6.5130    5.5610 C   0  0  1  0  0  0  0  0  0  0  0  0
   16.1750    5.3270    5.9890 N   0  0  0  0  0  0  0  0  0  0  0  0
   17.3470    5.0000    5.3270 C   0  0  0  0  0  0  0  0  0  0  0  0
   17.7670    5.6380    4.3670 O   0  0  0  0  0  0  0  0  0  0  0  0
   18.0850    3.7880    5.9290 C   0  0  1  0  0  0  0  0  0  0  0  0
   18.8470    4.1790    7.2060 C   0  0  0  0  0  0  0  0  0  0  0  0
   20.2850    3.6450    7.2980 C   0  0  0  0  0  0  0  0  0  0  0  0
   20.7840    3.3630    8.7140 C   0  0  0  0  0  0  0  0  0  0  0  0
   21.1740    1.9540    8.8660 N   0  0  0  0  0  0  0  0  0  0  0  0
   20.5150    1.0710    9.6370 C   0  0  0  0  0  0  0  0  0  0  0  0
   20.9210   -0.2040    9.6590 N   0  0  0  0  0  0  0  0  0  0  0  0
   19.4690    1.4140   10.3880 N   0  0  0  0  0  0  0  0  0  0  0  0
   17.0730    2.7810    6.2340 N   0  0  0  0  0  0  0  0  0  0  0  0
   16.5210    1.9940    5.2460 C   0  0  0  0  0  0  0  0  0  0  0  0
   16.8070    2.1310    4.0590 O   0  0  0  0  0  0  0  0  0  0  0  0
   15.5140    0.9920    5.7860 C   0  0  0  0  0  0  0  0  0  0  0  0
   15.8680    0.4950    7.1870 C   0  0  0  0  0  0  0  0  0  0  0  0
   14.8480    0.8970    8.2610 C   0  0  0  0  0  0  0  0  0  0  0  0
   13.3890    0.7910    7.7940 C   0  0  0  0  0  0  0  0  0  0  0  0
   12.6350    2.1190    7.8820 C   0  0  0  0  0  0  0  0  0  0  0  0
   12.9780    2.8880    9.0650 N   0  0  0  0  0  0  0  0  0  0  0  0
   12.8460    4.2590    9.0950 C   0  0  0  0  0  0  0  0  0  0  0  0
   12.6000    4.9470    8.0970 O   0  0  0  0  0  0  0  0  0  0  0  0
   13.1350    4.9090   10.4630 C   0  0  1  0  0  0  0  0  0  0  0  0
   13.3490    6.4290   10.2920 C   0  0  0  0  0  0  0  0  0  0  0  0
   14.0720    7.1520   11.4420 C   0  0  0  0  0  0  0  0  0  0  0  0
   13.1960    8.1000   12.2710 C   0  0  0  0  0  0  0  0  0  0  0  0
   11.8380    8.3510   11.6240 C   0  0  0  0  0  0  0  0  0  0  0  0
   11.0100    9.2140   12.5020 N   0  0  0  0  0  0  0  0  0  0  0  0
   12.0500    4.5570   11.3750 N   0  0  0  0  0  0  0  0  0  0  0  0
   12.3380    4.1210   12.6580 C   0  0  0  0  0  0  0  0  0  0  0  0
   13.4700    4.1390   13.1210 O   0  0  0  0  0  0  0  0  0  0  0  0
   11.1090    3.6330   13.4040 C   0  0  0  0  0  0  0  0  0  0  0  0
   11.3170    3.4870   14.9100 C   0  0  0  0  0  0  0  0  0  0  0  0
   10.1100    3.9530   15.7310 C   0  0  0  0  0  0  0  0  0  0  0  0
    9.0400    4.5700   14.8240 C   0  0  0  0  0  0  0  0  0  0  0  0
    7.7190    4.8280   15.5500 C   0  0  0  0  0  0  0  0  0  0  0  0
    7.2550    6.1970   15.4370 N   0  0  0  0  0  0  0  0  0  0  0  0
    6.0500    6.5020   14.8340 C   0  0  0  0  0  0  0  0  0  0  0  0
    5.2430    5.6540   14.4650 O   0  0  0  0  0  0  0  0  0  0  0  0
    5.7560    8.0020   14.7370 C   0  0  1  0  0  0  0  0  0  0  0  0
    6.7870    8.6950   14.0190 O   0  0  0  0  0  0  0  0  0  0  0  0
    6.2710    9.0690   12.7270 C   0  0  1  0  0  0  0  0  0  0  0  0
    7.2410    8.7600   11.6930 N   0  0  0  0  0  0  0  0  0  0  0  0
    7.8390    9.6200   10.8140 C   0  0  0  0  0  0  0  0  0  0  0  0
    8.6440    8.9900    9.9810 N   0  0  0  0  0  0  0  0  0  0  0  0
    8.5620    7.6620   10.3440 C   0  0  0  0  0  0  0  0  0  0  0  0
    9.1770    6.5000    9.8480 C   0  0  0  0  0  0  0  0  0  0  0  0
   10.0470    6.5010    8.7690 N   0  0  0  0  0  0  0  0  0  0  0  0
    8.9150    5.3230   10.4610 N   0  0  0  0  0  0  0  0  0  0  0  0
    8.0580    5.3150   11.5040 C   0  0  0  0  0  0  0  0  0  0  0  0
    7.4090    6.3590   12.0700 N   0  0  0  0  0  0  0  0  0  0  0  0
    7.7090    7.5010   11.4220 C   0  0  0  0  0  0  0  0  0  0  0  0
    4.9430    8.3320   12.5340 C   0  0  2  0  0  0  0  0  0  0  0  0
    3.9720    9.0530   11.7690 O   0  0  0  0  0  0  0  0  0  0  0  0
    4.4570    8.1830   13.9640 C   0  0  2  0  0  0  0  0  0  0  0  0
    3.7830    9.3800   14.3830 O   0  0  0  0  0  0  0  0  0  0  0  0
   14.2770    6.0570    4.6270 C   0  0  0  0  0  0  0  0  0  0  0  0
   13.0840    5.8090    5.2480 N   0  0  0  0  0  0  0  0  0  0  0  0
   14.3930    5.8770    3.4120 O   0  0  0  0  0  0  0  0  0  0  0  0
   20.1080    6.7890    9.9550 H   0  0  0  0  0  0  0  0  0  0  0  0
   21.0310    6.8530    8.5040 H   0  0  0  0  0  0  0  0  0  0  0  0
   18.4550    8.1010    6.4450 H   0  0  0  0  0  0  0  0  0  0  0  0
   20.0960    7.5950    6.5150 H   0  0  0  0  0  0  0  0  0  0  0  0
   17.9060    7.4320    9.9370 H   0  0  0  0  0  0  0  0  0  0  0  0
   16.2356    8.9223    8.9608 H   0  0  0  0  0  0  0  0  0  0  0  0
   16.9778    8.5839    7.3338 H   0  0  0  0  0  0  0  0  0  0  0  0
   16.2198    6.0927    7.9778 H   0  0  0  0  0  0  0  0  0  0  0  0
   14.9753    7.0494    8.9065 H   0  0  0  0  0  0  0  0  0  0  0  0
   13.8347    6.8942    6.9609 H   0  0  0  0  0  0  0  0  0  0  0  0
   14.8828    8.3311    6.5508 H   0  0  0  0  0  0  0  0  0  0  0  0
   16.1061    7.1994    5.0264 H   0  0  0  0  0  0  0  0  0  0  0  0
   16.2220    5.1290    6.9900 H   0  0  0  0  0  0  0  0  0  0  0  0
   18.8284    3.4024    5.2158 H   0  0  0  0  0  0  0  0  0  0  0  0
   18.8878    5.2771    7.2554 H   0  0  0  0  0  0  0  0  0  0  0  0
   18.2972    3.7222    8.0421 H   0  0  0  0  0  0  0  0  0  0  0  0
   20.3371    2.7071    6.7256 H   0  0  0  0  0  0  0  0  0  0  0  0
   20.9322    4.4397    6.8985 H   0  0  0  0  0  0  0  0  0  0  0  0
   21.6553    4.0015    8.9219 H   0  0  0  0  0  0  0  0  0  0  0  0
   19.9696    3.5787    9.4212 H   0  0  0  0  0  0  0  0  0  0  0  0
   21.9720    1.6080    8.3490 H   0  0  0  0  0  0  0  0  0  0  0  0
   21.7010   -0.5290    9.1020 H   0  0  0  0  0  0  0  0  0  0  0  0
   20.4470   -0.8970   10.2240 H   0  0  0  0  0  0  0  0  0  0  0  0
   18.9730    0.7450   10.9570 H   0  0  0  0  0  0  0  0  0  0  0  0
   19.1290    2.3800   10.4470 H   0  0  0  0  0  0  0  0  0  0  0  0
   16.5740    2.8620    7.1140 H   0  0  0  0  0  0  0  0  0  0  0  0
   14.5250    1.4722    5.8227 H   0  0  0  0  0  0  0  0  0  0  0  0
   15.5194    0.1212    5.1139 H   0  0  0  0  0  0  0  0  0  0  0  0
   15.9298   -0.6029    7.1605 H   0  0  0  0  0  0  0  0  0  0  0  0
   16.8248    0.9631    7.4616 H   0  0  0  0  0  0  0  0  0  0  0  0
   14.9829    0.2391    9.1322 H   0  0  0  0  0  0  0  0  0  0  0  0
   15.0334    1.9541    8.5021 H   0  0  0  0  0  0  0  0  0  0  0  0
   13.3797    0.4513    6.7478 H   0  0  0  0  0  0  0  0  0  0  0  0
   12.8809    0.0794    8.4614 H   0  0  0  0  0  0  0  0  0  0  0  0
   12.8759    2.7187    6.9919 H   0  0  0  0  0  0  0  0  0  0  0  0
   11.5618    1.8851    7.9409 H   0  0  0  0  0  0  0  0  0  0  0  0
   12.9840    2.3990    9.9550 H   0  0  0  0  0  0  0  0  0  0  0  0
   14.0689    4.5297   10.9035 H   0  0  0  0  0  0  0  0  0  0  0  0
   13.9390    6.5830    9.3765 H   0  0  0  0  0  0  0  0  0  0  0  0
   12.3394    6.8646   10.2620 H   0  0  0  0  0  0  0  0  0  0  0  0
   14.4825    6.3885   12.1192 H   0  0  0  0  0  0  0  0  0  0  0  0
   14.8415    7.7812   10.9709 H   0  0  0  0  0  0  0  0  0  0  0  0
   13.0372    7.6560   13.2648 H   0  0  0  0  0  0  0  0  0  0  0  0
   13.7185    9.0655   12.3399 H   0  0  0  0  0  0  0  0  0  0  0  0
   11.9829    8.8500   10.6545 H   0  0  0  0  0  0  0  0  0  0  0  0
   11.3253    7.3892   11.4753 H   0  0  0  0  0  0  0  0  0  0  0  0
   11.3180    9.2140   13.4970 H   0  0  0  0  0  0  0  0  0  0  0  0
   11.0510   10.1960   12.2080 H   0  0  0  0  0  0  0  0  0  0  0  0
   10.0230    8.9330   12.4940 H   0  0  0  0  0  0  0  0  0  0  0  0
   11.1990    4.1920   10.9640 H   0  0  0  0  0  0  0  0  0  0  0  0
   10.2933    4.3513   13.2350 H   0  0  0  0  0  0  0  0  0  0  0  0
   10.8763    2.6307   13.0150 H   0  0  0  0  0  0  0  0  0  0  0  0
   11.5063    2.4273   15.1362 H   0  0  0  0  0  0  0  0  0  0  0  0
   12.1687    4.1256   15.1871 H   0  0  0  0  0  0  0  0  0  0  0  0
    9.6797    3.0905   16.2610 H   0  0  0  0  0  0  0  0  0  0  0  0
   10.4456    4.7155   16.4493 H   0  0  0  0  0  0  0  0  0  0  0  0
    9.4190    5.5266   14.4350 H   0  0  0  0  0  0  0  0  0  0  0  0
    8.8374    3.8505   14.0170 H   0  0  0  0  0  0  0  0  0  0  0  0
    6.9522    4.1642   15.1242 H   0  0  0  0  0  0  0  0  0  0  0  0
    7.8933    4.6325   16.6184 H   0  0  0  0  0  0  0  0  0  0  0  0
    7.9560    6.9270   15.4930 H   0  0  0  0  0  0  0  0  0  0  0  0
    5.6942    8.4095   15.7569 H   0  0  0  0  0  0  0  0  0  0  0  0
    6.0902   10.1520   12.6609 H   0  0  0  0  0  0  0  0  0  0  0  0
    7.6690   10.7067   10.8031 H   0  0  0  0  0  0  0  0  0  0  0  0
    9.7350    5.9480    7.9800 H   0  0  0  0  0  0  0  0  0  0  0  0
   10.4620    7.4040    8.5880 H   0  0  0  0  0  0  0  0  0  0  0  0
    7.8613    4.3302   11.9529 H   0  0  0  0  0  0  0  0  0  0  0  0
    5.0815    7.3970   11.9714 H   0  0  0  0  0  0  0  0  0  0  0  0
    3.8240    9.9030   12.2440 H   0  0  0  0  0  0  0  0  0  0  0  0
    3.7429    7.3589   14.1087 H   0  0  0  0  0  0  0  0  0  0  0  0
    2.8760    9.0890   14.6220 H   0  0  0  0  0  0  0  0  0  0  0  0
   12.8450    6.3350    6.0840 H   0  0  0  0  0  0  0  0  0  0  0  0
   12.2940    5.6260    4.6400 H   0  0  0  0  0  0  0  0  0  0  0  0
  1  2  1  0
  2  3  2  0
  2  4  1  0
  4  5  1  0
  5  6  1  0
  6  7  1  0
  7  8  1  0
  8  9  1  0
  9 10  1  0
 10 11  2  0
 10 12  1  0
 12 13  1  0
 13 14  1  0
 14 15  1  0
 15 16  1  0
 16 17  1  0
 17 18  1  0
 17 19  2  0
 12 20  1  0
 20 21  1  0
 21 22  2  0
 21 23  1  0
 23 24  1  0
 24 25  1  0
 25 26  1  0
 26 27  1  0
 27 28  1  0
 28 29  1  0
 29 30  2  0
 29 31  1  0
 31 32  1  0
 32 33  1  0
 33 34  1  0
 34 35  1  0
 35 36  1  0
 31 37  1  0
 37 38  1  0
 38 39  2  0
 38 40  1  0
 40 41  1  0
 41 42  1  0
 42 43  1  0
 43 44  1  0
 44 45  1  0
 45 46  1  0
 46 47  2  0
 46 48  1  0
 48 49  1  0
 49 50  1  0
 50 51  1  0
 51 52  1  0
 52 53  2  0
 53 54  1  0
 54 55  2  0
 55 56  1  0
 55 57  1  0
 57 58  2  0
 58 59  1  0
 59 60  2  0
 50 61  1  0
 61 62  1  0
 61 63  1  0
 63 64  1  0
  8 65  1  0
 65 66  1  0
 65 67  2  0
 63 48  1  0
 60 51  1  0
 60 54  1  0
  1 68  1  0
  1 69  1  0
  3 70  1  0
  3 71  1  0
  4 72  1  0
  5 73  1  0
  5 74  1  0
  6 75  1  0
  6 76  1  0
  7 77  1  0
  7 78  1  0
  8 79  1  6
  9 80  1  0
 12 81  1  6
 13 82  1  0
 13 83  1  0
 14 84  1  0
 14 85  1  0
 15 86  1  0
 15 87  1  0
 16 88  1  0
 18 89  1  0
 18 90  1  0
 19 91  1  0
 19 92  1  0
 20 93  1  0
 23 94  1  0
 23 95  1  0
 24 96  1  0
 24 97  1  0
 25 98  1  0
 25 99  1  0
 26100  1  0
 26101  1  0
 27102  1  0
 27103  1  0
 28104  1  0
 31105  1  1
 32106  1  0
 32107  1  0
 33108  1  0
 33109  1  0
 34110  1  0
 34111  1  0
 35112  1  0
 35113  1  0
 36114  1  0
 36115  1  0
 36116  1  0
 37117  1  0
 40118  1  0
 40119  1  0
 41120  1  0
 41121  1  0
 42122  1  0
 42123  1  0
 43124  1  0
 43125  1  0
 44126  1  0
 44127  1  0
 45128  1  0
 48129  1  1
 50130  1  1
 52131  1  0
 56132  1  0
 56133  1  0
 58134  1  0
 61135  1  6
 62136  1  0
 63137  1  6
 64138  1  0
 66139  1  0
 66140  1  0
M  CHG  3   3   1  19   1  36   1
M  END
>  <meeko>  (6) 
{"is_sidechain": [false], "free_energy": -7.046, "intermolecular_energy": -22.547, "internal_energy": -6.006}

$$$$
3ag9_ligand
     RDKit          3D

140142  0  0  0  0  0  0  0  0999 V2000
   14.6160    1.8180   15.3420 N   0  0  0  0  0  0  0  0  0  0  0  0
   13.8670    2.1260   14.2790 C   0  0  0  0  0  0  0  0  0  0  0  0
   12.7230    1.4660   14.0920 N   0  0  0  0  0  0  0  0  0  0  0  0
   14.2850    3.0870   13.4320 N   0  0  0  0  0  0  0  0  0  0  0  0
   13.5280    3.5200   12.2500 C   0  0  0  0  0  0  0  0  0  0  0  0
   14.2800    4.5630   11.4170 C   0  0  0  0  0  0  0  0  0  0  0  0
   14.3450    5.9390   12.0930 C   0  0  0  0  0  0  0  0  0  0  0  0
   14.1800    7.1100   11.1040 C   0  0  1  0  0  0  0  0  0  0  0  0
   14.4940    6.6760    9.7430 N   0  0  0  0  0  0  0  0  0  0  0  0
   15.2310    7.5190    8.9280 C   0  0  0  0  0  0  0  0  0  0  0  0
   15.5960    8.6350    9.2860 O   0  0  0  0  0  0  0  0  0  0  0  0
   15.5760    6.9130    7.5540 C   0  0  1  0  0  0  0  0  0  0  0  0
   15.6950    8.0060    6.4790 C   0  0  0  0  0  0  0  0  0  0  0  0
   14.3940    8.7650    6.1710 C   0  0  0  0  0  0  0  0  0  0  0  0
   14.4390   10.2680    6.4430 C   0  0  0  0  0  0  0  0  0  0  0  0
   13.0840   10.8160    6.6010 N   0  0  0  0  0  0  0  0  0  0  0  0
   12.4420   10.9030    7.7800 C   0  0  0  0  0  0  0  0  0  0  0  0
   11.2320   11.4720    7.8210 N   0  0  0  0  0  0  0  0  0  0  0  0
   12.9630   10.4420    8.9170 N   0  0  0  0  0  0  0  0  0  0  0  0
   16.8490    6.2140    7.7030 N   0  0  0  0  0  0  0  0  0  0  0  0
   18.0510    6.8810    7.6040 C   0  0  0  0  0  0  0  0  0  0  0  0
   18.1200    8.0770    7.3350 O   0  0  0  0  0  0  0  0  0  0  0  0
   19.2490    5.9700    7.8250 C   0  0  0  0  0  0  0  0  0  0  0  0
   19.8170    5.4150    6.5200 C   0  0  0  0  0  0  0  0  0  0  0  0
   19.2340    4.0500    6.1240 C   0  0  0  0  0  0  0  0  0  0  0  0
   18.7890    3.9740    4.6580 C   0  0  0  0  0  0  0  0  0  0  0  0
   17.2680    3.9160    4.4970 C   0  0  0  0  0  0  0  0  0  0  0  0
   16.5890    3.4540    5.6930 N   0  0  0  0  0  0  0  0  0  0  0  0
   16.1950    2.1410    5.8350 C   0  0  0  0  0  0  0  0  0  0  0  0
   16.2280    1.3120    4.9180 O   0  0  0  0  0  0  0  0  0  0  0  0
   15.5990    1.7880    7.2120 C   0  0  1  0  0  0  0  0  0  0  0  0
   16.4780    2.3800    8.3370 C   0  0  0  0  0  0  0  0  0  0  0  0
   17.5650    1.4580    8.9140 C   0  0  0  0  0  0  0  0  0  0  0  0
   18.8860    2.1490    9.2760 C   0  0  0  0  0  0  0  0  0  0  0  0
   19.9810    1.1530    9.6450 C   0  0  0  0  0  0  0  0  0  0  0  0
   21.2660    1.5620    9.0290 N   0  0  0  0  0  0  0  0  0  0  0  0
   14.2100    2.2380    7.2400 N   0  0  0  0  0  0  0  0  0  0  0  0
   13.2100    1.3720    7.6490 C   0  0  0  0  0  0  0  0  0  0  0  0
   13.4460    0.2690    8.1230 O   0  0  0  0  0  0  0  0  0  0  0  0
   11.8180    1.9430    7.4480 C   0  0  0  0  0  0  0  0  0  0  0  0
   11.7680    3.4700    7.4540 C   0  0  0  0  0  0  0  0  0  0  0  0
   11.7780    4.0650    8.8660 C   0  0  0  0  0  0  0  0  0  0  0  0
   10.3560    4.4070    9.3240 C   0  0  0  0  0  0  0  0  0  0  0  0
   10.3010    4.9260   10.7620 C   0  0  0  0  0  0  0  0  0  0  0  0
    8.9500    5.1060   11.2590 N   0  0  0  0  0  0  0  0  0  0  0  0
    8.4440    6.3620   11.5310 C   0  0  0  0  0  0  0  0  0  0  0  0
    9.0380    7.4030   11.2670 O   0  0  0  0  0  0  0  0  0  0  0  0
    7.0300    6.3580   12.1180 C   0  0  1  0  0  0  0  0  0  0  0  0
    6.8530    5.2880   13.0580 O   0  0  0  0  0  0  0  0  0  0  0  0
    6.8090    5.8490   14.3840 C   0  0  1  0  0  0  0  0  0  0  0  0
    7.6430    5.0730   15.2830 N   0  0  0  0  0  0  0  0  0  0  0  0
    7.2660    4.3960   16.4100 C   0  0  0  0  0  0  0  0  0  0  0  0
    8.2930    3.8280   17.0100 N   0  0  0  0  0  0  0  0  0  0  0  0
    9.3840    4.1530   16.2290 C   0  0  0  0  0  0  0  0  0  0  0  0
   10.7510    3.8500   16.3320 C   0  0  0  0  0  0  0  0  0  0  0  0
   11.2900    3.1090   17.3730 N   0  0  0  0  0  0  0  0  0  0  0  0
   11.5820    4.2930   15.3610 N   0  0  0  0  0  0  0  0  0  0  0  0
   11.0640    5.0260   14.3540 C   0  0  0  0  0  0  0  0  0  0  0  0
    9.7750    5.3810   14.1450 N   0  0  0  0  0  0  0  0  0  0  0  0
    8.9960    4.9110   15.1380 C   0  0  0  0  0  0  0  0  0  0  0  0
    7.2530    7.3120   14.2780 C   0  0  2  0  0  0  0  0  0  0  0  0
    6.6190    8.1910   15.2110 O   0  0  0  0  0  0  0  0  0  0  0  0
    6.8220    7.6670   12.8670 C   0  0  2  0  0  0  0  0  0  0  0  0
    5.4350    8.0410   12.8540 O   0  0  0  0  0  0  0  0  0  0  0  0
   12.7120    7.6200   11.1310 C   0  0  0  0  0  0  0  0  0  0  0  0
   12.1500    7.7250   12.3730 N   0  0  0  0  0  0  0  0  0  0  0  0
   12.0480    7.8830   10.1250 O   0  0  0  0  0  0  0  0  0  0  0  0
   15.4910    2.2830   15.5420 H   0  0  0  0  0  0  0  0  0  0  0  0
   14.3240    1.1020   15.9980 H   0  0  0  0  0  0  0  0  0  0  0  0
   12.1150    1.6600   13.3080 H   0  0  0  0  0  0  0  0  0  0  0  0
   12.4120    0.7490   14.7360 H   0  0  0  0  0  0  0  0  0  0  0  0
   15.1570    3.5490   13.6590 H   0  0  0  0  0  0  0  0  0  0  0  0
   13.3289    2.6418   11.6182 H   0  0  0  0  0  0  0  0  0  0  0  0
   12.5963    3.9856   12.6038 H   0  0  0  0  0  0  0  0  0  0  0  0
   15.3069    4.2051   11.2518 H   0  0  0  0  0  0  0  0  0  0  0  0
   13.7305    4.6870   10.4722 H   0  0  0  0  0  0  0  0  0  0  0  0
   13.5420    5.9986   12.8425 H   0  0  0  0  0  0  0  0  0  0  0  0
   15.3423    6.0331   12.5475 H   0  0  0  0  0  0  0  0  0  0  0  0
   14.8678    7.9143   11.4040 H   0  0  0  0  0  0  0  0  0  0  0  0
   14.7230    5.6920    9.5960 H   0  0  0  0  0  0  0  0  0  0  0  0
   14.7796    6.2266    7.2305 H   0  0  0  0  0  0  0  0  0  0  0  0
   16.4434    8.7372    6.8184 H   0  0  0  0  0  0  0  0  0  0  0  0
   15.9753    7.4902    5.5487 H   0  0  0  0  0  0  0  0  0  0  0  0
   14.1581    8.6185    5.1066 H   0  0  0  0  0  0  0  0  0  0  0  0
   13.6322    8.3541    6.8499 H   0  0  0  0  0  0  0  0  0  0  0  0
   15.0102   10.4496    7.3654 H   0  0  0  0  0  0  0  0  0  0  0  0
   14.9201   10.7646    5.5874 H   0  0  0  0  0  0  0  0  0  0  0  0
   12.6010   11.1710    5.7870 H   0  0  0  0  0  0  0  0  0  0  0  0
   10.7890   11.8530    6.9940 H   0  0  0  0  0  0  0  0  0  0  0  0
   10.7220   11.5590    8.6910 H   0  0  0  0  0  0  0  0  0  0  0  0
   12.4800   10.5190    9.7990 H   0  0  0  0  0  0  0  0  0  0  0  0
   13.8680    9.9610    8.9510 H   0  0  0  0  0  0  0  0  0  0  0  0
   16.8510    5.2050    7.5910 H   0  0  0  0  0  0  0  0  0  0  0  0
   20.0369    6.5427    8.3362 H   0  0  0  0  0  0  0  0  0  0  0  0
   18.9095    5.1158    8.4292 H   0  0  0  0  0  0  0  0  0  0  0  0
   19.6006    6.1320    5.7143 H   0  0  0  0  0  0  0  0  0  0  0  0
   20.8965    5.2709    6.6748 H   0  0  0  0  0  0  0  0  0  0  0  0
   20.0020    3.2812    6.2946 H   0  0  0  0  0  0  0  0  0  0  0  0
   18.3379    3.8906    6.7417 H   0  0  0  0  0  0  0  0  0  0  0  0
   19.1636    4.8642    4.1314 H   0  0  0  0  0  0  0  0  0  0  0  0
   19.2001    3.0446    4.2371 H   0  0  0  0  0  0  0  0  0  0  0  0
   16.9025    4.9246    4.2538 H   0  0  0  0  0  0  0  0  0  0  0  0
   17.0490    3.1956    3.6950 H   0  0  0  0  0  0  0  0  0  0  0  0
   16.7120    3.9990    6.5410 H   0  0  0  0  0  0  0  0  0  0  0  0
   15.5940    0.7016    7.3847 H   0  0  0  0  0  0  0  0  0  0  0  0
   16.9767    3.2747    7.9360 H   0  0  0  0  0  0  0  0  0  0  0  0
   15.7894    2.5770    9.1719 H   0  0  0  0  0  0  0  0  0  0  0  0
   17.1651    0.9902    9.8257 H   0  0  0  0  0  0  0  0  0  0  0  0
   17.8065    0.7375    8.1187 H   0  0  0  0  0  0  0  0  0  0  0  0
   19.2233    2.7410    8.4124 H   0  0  0  0  0  0  0  0  0  0  0  0
   18.7020    2.7857   10.1539 H   0  0  0  0  0  0  0  0  0  0  0  0
   20.0940    1.1244   10.7388 H   0  0  0  0  0  0  0  0  0  0  0  0
   19.7030    0.1559    9.2728 H   0  0  0  0  0  0  0  0  0  0  0  0
   21.1710    2.3340    8.3360 H   0  0  0  0  0  0  0  0  0  0  0  0
   21.9240    1.9150    9.7340 H   0  0  0  0  0  0  0  0  0  0  0  0
   21.7250    0.7820    8.5460 H   0  0  0  0  0  0  0  0  0  0  0  0
   13.9370    2.9420    6.5620 H   0  0  0  0  0  0  0  0  0  0  0  0
   11.4345    1.5878    6.4802 H   0  0  0  0  0  0  0  0  0  0  0  0
   11.2070    1.6004    8.2961 H   0  0  0  0  0  0  0  0  0  0  0  0
   12.6429    3.8513    6.9070 H   0  0  0  0  0  0  0  0  0  0  0  0
   10.8227    3.7696    6.9779 H   0  0  0  0  0  0  0  0  0  0  0  0
   12.2148    3.3338    9.5621 H   0  0  0  0  0  0  0  0  0  0  0  0
   12.3758    4.9883    8.8547 H   0  0  0  0  0  0  0  0  0  0  0  0
    9.9489    5.1805    8.6561 H   0  0  0  0  0  0  0  0  0  0  0  0
    9.7654    3.4798    9.2855 H   0  0  0  0  0  0  0  0  0  0  0  0
   10.8186    4.2057   11.4126 H   0  0  0  0  0  0  0  0  0  0  0  0
   10.7836    5.9145   10.7688 H   0  0  0  0  0  0  0  0  0  0  0  0
    8.5180    4.3110   11.7140 H   0  0  0  0  0  0  0  0  0  0  0  0
    6.3132    6.2317   11.2933 H   0  0  0  0  0  0  0  0  0  0  0  0
    5.7930    5.8145   14.8043 H   0  0  0  0  0  0  0  0  0  0  0  0
    6.2293    4.3330   16.7725 H   0  0  0  0  0  0  0  0  0  0  0  0
   11.7710    3.6610   18.0740 H   0  0  0  0  0  0  0  0  0  0  0  0
   10.6920    2.3570   17.6830 H   0  0  0  0  0  0  0  0  0  0  0  0
   11.7848    5.3823   13.6034 H   0  0  0  0  0  0  0  0  0  0  0  0
    8.3251    7.4237   14.4975 H   0  0  0  0  0  0  0  0  0  0  0  0
    6.4400    7.6540   16.0160 H   0  0  0  0  0  0  0  0  0  0  0  0
    7.3748    8.5126   12.4319 H   0  0  0  0  0  0  0  0  0  0  0  0
    4.9510    7.2240   13.1090 H   0  0  0  0  0  0  0  0  0  0  0  0
   12.7460    7.9400   13.1670 H   0  0  0  0  0  0  0  0  0  0  0  0
   11.2380    8.1660   12.4140 H   0  0  0  0  0  0  0  0  0  0  0  0
  1  2  1  0
  2  3  2  0
  2  4  1  0
  4  5  1  0
  5  6  1  0
  6  7  1  0
  7  8  1  0
  8  9  1  0
  9 10  1  0
 10 11  2  0
 10 12  1  0
 12 13  1  0
 13 14  1  0
 14 15  1  0
 15 16  1  0
 16 17  1  0
 17 18  1  0
 17 19  2  0
 12 20  1  0
 20 21  1  0
 21 22  2  0
 21 23  1  0
 23 24  1  0
 24 25  1  0
 25 26  1  0
 26 27  1  0
 27 28  1  0
 28 29  1  0
 29 30  2  0
 29 31  1  0
 31 32  1  0
 32 33  1  0
 33 34  1  0
 34 35  1  0
 35 36  1  0
 31 37  1  0
 37 38  1  0
 38 39  2  0
 38 40  1  0
 40 41  1  0
 41 42  1  0
 42 43  1  0
 43 44  1  0
 44 45  1  0
 45 46  1  0
 46 47  2  0
 46 48  1  0
 48 49  1  0
 49 50  1  0
 50 51  1  0
 51 52  1  0
 52 53  2  0
 53 54  1  0
 54 55  2  0
 55 56  1  0
 55 57  1  0
 57 58  2  0
 58 59  1  0
 59 60  2  0
 50 61  1  0
 61 62  1  0
 61 63  1  0
 63 64  1  0
  8 65  1  0
 65 66  1  0
 65 67  2  0
 63 48  1  0
 60 51  1  0
 60 54  1  0
  1 68  1  0
  1 69  1  0
  3 70  1  0
  3 71  1  0
  4 72  1  0
  5 73  1  0
  5 74  1  0
  6 75  1  0
  6 76  1  0
  7 77  1  0
  7 78  1  0
  8 79  1  1
  9 80  1  0
 12 81  1  6
 13 82  1  0
 13 83  1  0
 14 84  1  0
 14 85  1  0
 15 86  1  0
 15 87  1  0
 16 88  1  0
 18 89  1  0
 18 90  1  0
 19 91  1  0
 19 92  1  0
 20 93  1  0
 23 94  1  0
 23 95  1  0
 24 96  1  0
 24 97  1  0
 25 98  1  0
 25 99  1  0
 26100  1  0
 26101  1  0
 27102  1  0
 27103  1  0
 28104  1  0
 31105  1  1
 32106  1  0
 32107  1  0
 33108  1  0
 33109  1  0
 34110  1  0
 34111  1  0
 35112  1  0
 35113  1  0
 36114  1  0
 36115  1  0
 36116  1  0
 37117  1  0
 40118  1  0
 40119  1  0
 41120  1  0
 41121  1  0
 42122  1  0
 42123  1  0
 43124  1  0
 43125  1  0
 44126  1  0
 44127  1  0
 45128  1  0
 48129  1  6
 50130  1  1
 52131  1  0
 56132  1  0
 56133  1  0
 58134  1  0
 61135  1  6
 62136  1  0
 63137  1  6
 64138  1  0
 66139  1  0
 66140  1  0
M  CHG  3   3   1  19   1  36   1
M  END
>  <meeko>  (7) 
{"is_sidechain": [false], "free_energy": -7.032, "intermolecular_energy": -22.714, "internal_energy": -5.798}

$$$$
3ag9_ligand
     RDKit          3D

140142  0  0  0  0  0  0  0  0999 V2000
   11.2200    3.4360   17.2720 N   0  0  0  0  0  0  0  0  0  0  0  0
   10.7140    3.8760   16.1160 C   0  0  0  0  0  0  0  0  0  0  0  0
   11.5380    4.0390   15.0800 N   0  0  0  0  0  0  0  0  0  0  0  0
    9.3950    4.1420   16.0310 N   0  0  0  0  0  0  0  0  0  0  0  0
    8.7340    4.6050   14.8030 C   0  0  0  0  0  0  0  0  0  0  0  0
    7.2570    4.9460   15.0230 C   0  0  0  0  0  0  0  0  0  0  0  0
    6.5970    5.5880   13.7940 C   0  0  0  0  0  0  0  0  0  0  0  0
    7.0620    7.0350   13.5410 C   0  0  1  0  0  0  0  0  0  0  0  0
    7.0800    7.3220   12.1070 N   0  0  0  0  0  0  0  0  0  0  0  0
    8.1300    8.0620   11.5880 C   0  0  0  0  0  0  0  0  0  0  0  0
    9.0250    8.5250   12.2900 O   0  0  0  0  0  0  0  0  0  0  0  0
    8.0860    8.2170   10.0560 C   0  0  1  0  0  0  0  0  0  0  0  0
    8.2010    9.6940    9.6440 C   0  0  0  0  0  0  0  0  0  0  0  0
    7.4830   10.0660    8.3380 C   0  0  0  0  0  0  0  0  0  0  0  0
    8.3950   10.5270    7.2020 C   0  0  0  0  0  0  0  0  0  0  0  0
    9.5770   11.2270    7.7250 N   0  0  0  0  0  0  0  0  0  0  0  0
   10.8420   10.8250    7.5140 C   0  0  0  0  0  0  0  0  0  0  0  0
   11.8490   11.5670    7.9880 N   0  0  0  0  0  0  0  0  0  0  0  0
   11.1390    9.7070    6.8510 N   0  0  0  0  0  0  0  0  0  0  0  0
    9.2080    7.4550    9.5180 N   0  0  0  0  0  0  0  0  0  0  0  0
    9.2780    6.0850    9.6560 C   0  0  0  0  0  0  0  0  0  0  0  0
    8.4360    5.4420   10.2780 O   0  0  0  0  0  0  0  0  0  0  0  0
   10.5100    5.4890    8.9940 C   0  0  0  0  0  0  0  0  0  0  0  0
   10.7060    5.9800    7.5600 C   0  0  0  0  0  0  0  0  0  0  0  0
   12.1740    6.2360    7.1910 C   0  0  0  0  0  0  0  0  0  0  0  0
   12.8790    5.0130    6.5870 C   0  0  0  0  0  0  0  0  0  0  0  0
   13.9910    5.3890    5.6050 C   0  0  0  0  0  0  0  0  0  0  0  0
   15.1670    4.5470    5.7330 N   0  0  0  0  0  0  0  0  0  0  0  0
   16.0080    4.3210    4.6650 C   0  0  0  0  0  0  0  0  0  0  0  0
   15.7510    4.6600    3.5040 O   0  0  0  0  0  0  0  0  0  0  0  0
   17.2740    3.5060    4.9990 C   0  0  1  0  0  0  0  0  0  0  0  0
   18.4690    4.4580    5.2320 C   0  0  0  0  0  0  0  0  0  0  0  0
   19.5710    3.9530    6.1790 C   0  0  0  0  0  0  0  0  0  0  0  0
   19.6550    4.6760    7.5290 C   0  0  0  0  0  0  0  0  0  0  0  0
   20.4640    3.8930    8.5590 C   0  0  0  0  0  0  0  0  0  0  0  0
   20.8790    4.7890    9.6650 N   0  0  0  0  0  0  0  0  0  0  0  0
   16.9730    2.6360    6.1330 N   0  0  0  0  0  0  0  0  0  0  0  0
   16.2920    1.4470    5.9320 C   0  0  0  0  0  0  0  0  0  0  0  0
   16.0380    1.0140    4.8170 O   0  0  0  0  0  0  0  0  0  0  0  0
   15.9120    0.7600    7.2310 C   0  0  0  0  0  0  0  0  0  0  0  0
   14.6870    1.3640    7.9160 C   0  0  0  0  0  0  0  0  0  0  0  0
   15.0450    2.4530    8.9330 C   0  0  0  0  0  0  0  0  0  0  0  0
   13.7850    3.0050    9.6080 C   0  0  0  0  0  0  0  0  0  0  0  0
   13.9410    3.1710   11.1200 C   0  0  0  0  0  0  0  0  0  0  0  0
   14.0460    4.5540   11.5410 N   0  0  0  0  0  0  0  0  0  0  0  0
   12.9450    5.2550   11.9940 C   0  0  0  0  0  0  0  0  0  0  0  0
   11.8470    4.7420   12.1840 O   0  0  0  0  0  0  0  0  0  0  0  0
   13.2260    6.7240   12.3250 C   0  0  1  0  0  0  0  0  0  0  0  0
   14.4310    7.1840   11.6970 O   0  0  0  0  0  0  0  0  0  0  0  0
   14.0730    8.0670   10.6170 C   0  0  1  0  0  0  0  0  0  0  0  0
   14.8460    7.7460    9.4310 N   0  0  0  0  0  0  0  0  0  0  0  0
   15.4610    6.5650    9.1200 C   0  0  0  0  0  0  0  0  0  0  0  0
   16.1110    6.6350    7.9750 N   0  0  0  0  0  0  0  0  0  0  0  0
   15.9010    7.9230    7.5270 C   0  0  0  0  0  0  0  0  0  0  0  0
   16.3240    8.6110    6.3780 C   0  0  0  0  0  0  0  0  0  0  0  0
   17.1370    8.0450    5.4080 N   0  0  0  0  0  0  0  0  0  0  0  0
   15.9070    9.8860    6.2020 N   0  0  0  0  0  0  0  0  0  0  0  0
   15.1260   10.4450    7.1490 C   0  0  0  0  0  0  0  0  0  0  0  0
   14.6550    9.8900    8.2910 N   0  0  0  0  0  0  0  0  0  0  0  0
   15.0990    8.6240    8.4100 C   0  0  0  0  0  0  0  0  0  0  0  0
   12.5640    7.9320   10.3960 C   0  0  2  0  0  0  0  0  0  0  0  0
   11.9190    9.1340    9.9640 O   0  0  0  0  0  0  0  0  0  0  0  0
   12.0760    7.5620   11.7840 C   0  0  2  0  0  0  0  0  0  0  0  0
   11.8990    8.7460   12.5770 O   0  0  0  0  0  0  0  0  0  0  0  0
    6.0860    8.0310   14.2290 C   0  0  0  0  0  0  0  0  0  0  0  0
    6.3090    8.2460   15.5610 N   0  0  0  0  0  0  0  0  0  0  0  0
    5.1360    8.5780   13.6620 O   0  0  0  0  0  0  0  0  0  0  0  0
   10.6490    3.2890   18.0930 H   0  0  0  0  0  0  0  0  0  0  0  0
   12.2070    3.2240   17.3640 H   0  0  0  0  0  0  0  0  0  0  0  0
   11.2100    4.3650   14.1810 H   0  0  0  0  0  0  0  0  0  0  0  0
   12.5270    3.8320   15.1490 H   0  0  0  0  0  0  0  0  0  0  0  0
    8.8400    3.9740   16.8600 H   0  0  0  0  0  0  0  0  0  0  0  0
    9.2533    5.5045   14.4408 H   0  0  0  0  0  0  0  0  0  0  0  0
    8.7818    3.7866   14.0695 H   0  0  0  0  0  0  0  0  0  0  0  0
    6.7164    4.0195   15.2667 H   0  0  0  0  0  0  0  0  0  0  0  0
    7.2082    5.6790   15.8417 H   0  0  0  0  0  0  0  0  0  0  0  0
    6.8423    4.9823   12.9092 H   0  0  0  0  0  0  0  0  0  0  0  0
    5.5142    5.6215   13.9849 H   0  0  0  0  0  0  0  0  0  0  0  0
    8.0752    7.1481   13.9540 H   0  0  0  0  0  0  0  0  0  0  0  0
    6.7660    6.5890   11.4700 H   0  0  0  0  0  0  0  0  0  0  0  0
    7.1279    7.8461    9.6629 H   0  0  0  0  0  0  0  0  0  0  0  0
    7.7761   10.3070   10.4525 H   0  0  0  0  0  0  0  0  0  0  0  0
    9.2708    9.8796    9.4680 H   0  0  0  0  0  0  0  0  0  0  0  0
    6.9280    9.1819    7.9912 H   0  0  0  0  0  0  0  0  0  0  0  0
    6.8378   10.9239    8.5784 H   0  0  0  0  0  0  0  0  0  0  0  0
    8.7228    9.6494    6.6254 H   0  0  0  0  0  0  0  0  0  0  0  0
    7.8320   11.2215    6.5612 H   0  0  0  0  0  0  0  0  0  0  0  0
    9.4470   12.0760    8.2610 H   0  0  0  0  0  0  0  0  0  0  0  0
   11.6890   12.4330    8.4890 H   0  0  0  0  0  0  0  0  0  0  0  0
   12.8140   11.2980    7.8440 H   0  0  0  0  0  0  0  0  0  0  0  0
   12.0910    9.4160    6.6870 H   0  0  0  0  0  0  0  0  0  0  0  0
   10.4170    9.0720    6.4940 H   0  0  0  0  0  0  0  0  0  0  0  0
   10.0630    7.9570    9.3030 H   0  0  0  0  0  0  0  0  0  0  0  0
   11.3955    5.7661    9.5848 H   0  0  0  0  0  0  0  0  0  0  0  0
   10.3711    4.3985    8.9553 H   0  0  0  0  0  0  0  0  0  0  0  0
   10.3030    5.2200    6.8745 H   0  0  0  0  0  0  0  0  0  0  0  0
   10.1804    6.9426    7.4749 H   0  0  0  0  0  0  0  0  0  0  0  0
   12.2104    7.0554    6.4580 H   0  0  0  0  0  0  0  0  0  0  0  0
   12.7021    6.4845    8.1234 H   0  0  0  0  0  0  0  0  0  0  0  0
   13.3180    4.4222    7.4044 H   0  0  0  0  0  0  0  0  0  0  0  0
   12.1245    4.4413    6.0269 H   0  0  0  0  0  0  0  0  0  0  0  0
   13.6014    5.2943    4.5807 H   0  0  0  0  0  0  0  0  0  0  0  0
   14.2975    6.4206    5.8329 H   0  0  0  0  0  0  0  0  0  0  0  0
   15.5470    4.4120    6.6640 H   0  0  0  0  0  0  0  0  0  0  0  0
   17.5732    2.8590    4.1612 H   0  0  0  0  0  0  0  0  0  0  0  0
   18.9331    4.6580    4.2549 H   0  0  0  0  0  0  0  0  0  0  0  0
   18.0443    5.3451    5.7246 H   0  0  0  0  0  0  0  0  0  0  0  0
   19.3882    2.8862    6.3753 H   0  0  0  0  0  0  0  0  0  0  0  0
   20.5253    4.1491    5.6683 H   0  0  0  0  0  0  0  0  0  0  0  0
   20.1315    5.6556    7.3760 H   0  0  0  0  0  0  0  0  0  0  0  0
   18.6311    4.7820    7.9169 H   0  0  0  0  0  0  0  0  0  0  0  0
   19.8469    3.0771    8.9632 H   0  0  0  0  0  0  0  0  0  0  0  0
   21.3602    3.4780    8.0747 H   0  0  0  0  0  0  0  0  0  0  0  0
   20.5900    5.7800    9.5310 H   0  0  0  0  0  0  0  0  0  0  0  0
   20.4550    4.5040   10.5560 H   0  0  0  0  0  0  0  0  0  0  0  0
   21.8970    4.7890    9.7970 H   0  0  0  0  0  0  0  0  0  0  0  0
   16.8340    3.0810    7.0340 H   0  0  0  0  0  0  0  0  0  0  0  0
   15.7013   -0.2977    7.0146 H   0  0  0  0  0  0  0  0  0  0  0  0
   16.7594    0.8896    7.9203 H   0  0  0  0  0  0  0  0  0  0  0  0
   14.0363    1.8040    7.1460 H   0  0  0  0  0  0  0  0  0  0  0  0
   14.1845    0.5540    8.4649 H   0  0  0  0  0  0  0  0  0  0  0  0
   15.7071    2.0256    9.7005 H   0  0  0  0  0  0  0  0  0  0  0  0
   15.5502    3.2752    8.4049 H   0  0  0  0  0  0  0  0  0  0  0  0
   13.5541    3.9871    9.1695 H   0  0  0  0  0  0  0  0  0  0  0  0
   12.9761    2.2791    9.4385 H   0  0  0  0  0  0  0  0  0  0  0  0
   13.0652    2.7226   11.6119 H   0  0  0  0  0  0  0  0  0  0  0  0
   14.8795    2.6732   11.4055 H   0  0  0  0  0  0  0  0  0  0  0  0
   14.8350    5.0840   11.1880 H   0  0  0  0  0  0  0  0  0  0  0  0
   13.3329    6.8189   13.4157 H   0  0  0  0  0  0  0  0  0  0  0  0
   14.3053    9.1150   10.8573 H   0  0  0  0  0  0  0  0  0  0  0  0
   15.4185    5.6642    9.7498 H   0  0  0  0  0  0  0  0  0  0  0  0
   18.1180    8.2880    5.4910 H   0  0  0  0  0  0  0  0  0  0  0  0
   16.8970    7.0880    5.1900 H   0  0  0  0  0  0  0  0  0  0  0  0
   14.8328   11.4900    6.9700 H   0  0  0  0  0  0  0  0  0  0  0  0
   12.3391    7.2101    9.5971 H   0  0  0  0  0  0  0  0  0  0  0  0
   11.9110    9.7360   10.7430 H   0  0  0  0  0  0  0  0  0  0  0  0
   11.1093    7.0371   11.7914 H   0  0  0  0  0  0  0  0  0  0  0  0
   11.2420    8.4960   13.2630 H   0  0  0  0  0  0  0  0  0  0  0  0
    7.2580    8.1830   15.9170 H   0  0  0  0  0  0  0  0  0  0  0  0
    5.7570    8.9790   15.9930 H   0  0  0  0  0  0  0  0  0  0  0  0
  1  2  1  0
  2  3  2  0
  2  4  1  0
  4  5  1  0
  5  6  1  0
  6  7  1  0
  7  8  1  0
  8  9  1  0
  9 10  1  0
 10 11  2  0
 10 12  1  0
 12 13  1  0
 13 14  1  0
 14 15  1  0
 15 16  1  0
 16 17  1  0
 17 18  1  0
 17 19  2  0
 12 20  1  0
 20 21  1  0
 21 22  2  0
 21 23  1  0
 23 24  1  0
 24 25  1  0
 25 26  1  0
 26 27  1  0
 27 28  1  0
 28 29  1  0
 29 30  2  0
 29 31  1  0
 31 32  1  0
 32 33  1  0
 33 34  1  0
 34 35  1  0
 35 36  1  0
 31 37  1  0
 37 38  1  0
 38 39  2  0
 38 40  1  0
 40 41  1  0
 41 42  1  0
 42 43  1  0
 43 44  1  0
 44 45  1  0
 45 46  1  0
 46 47  2  0
 46 48  1  0
 48 49  1  0
 49 50  1  0
 50 51  1  0
 51 52  1  0
 52 53  2  0
 53 54  1  0
 54 55  2  0
 55 56  1  0
 55 57  1  0
 57 58  2  0
 58 59  1  0
 59 60  2  0
 50 61  1  0
 61 62  1  0
 61 63  1  0
 63 64  1  0
  8 65  1  0
 65 66  1  0
 65 67  2  0
 63 48  1  0
 60 51  1  0
 60 54  1  0
  1 68  1  0
  1 69  1  0
  3 70  1  0
  3 71  1  0
  4 72  1  0
  5 73  1  0
  5 74  1  0
  6 75  1  0
  6 76  1  0
  7 77  1  0
  7 78  1  0
  8 79  1  1
  9 80  1  0
 12 81  1  6
 13 82  1  0
 13 83  1  0
 14 84  1  0
 14 85  1  0
 15 86  1  0
 15 87  1  0
 16 88  1  0
 18 89  1  0
 18 90  1  0
 19 91  1  0
 19 92  1  0
 20 93  1  0
 23 94  1  0
 23 95  1  0
 24 96  1  0
 24 97  1  0
 25 98  1  0
 25 99  1  0
 26100  1  0
 26101  1  0
 27102  1  0
 27103  1  0
 28104  1  0
 31105  1  6
 32106  1  0
 32107  1  0
 33108  1  0
 33109  1  0
 34110  1  0
 34111  1  0
 35112  1  0
 35113  1  0
 36114  1  0
 36115  1  0
 36116  1  0
 37117  1  0
 40118  1  0
 40119  1  0
 41120  1  0
 41121  1  0
 42122  1  0
 42123  1  0
 43124  1  0
 43125  1  0
 44126  1  0
 44127  1  0
 45128  1  0
 48129  1  1
 50130  1  1
 52131  1  0
 56132  1  0
 56133  1  0
 58134  1  0
 61135  1  6
 62136  1  0
 63137  1  6
 64138  1  0
 66139  1  0
 66140  1  0
M  CHG  3   3   1  19   1  36   1
M  END
>  <meeko>  (8) 
{"is_sidechain": [false], "free_energy": -6.978, "intermolecular_energy": -20.644, "internal_energy": -7.707}

$$$$
3ag9_ligand
     RDKit          3D

140142  0  0  0  0  0  0  0  0999 V2000
   17.4010   13.5400    6.0740 N   0  0  0  0  0  0  0  0  0  0  0  0
   16.3390   12.7760    5.8010 C   0  0  0  0  0  0  0  0  0  0  0  0
   15.1290   13.3370    5.8200 N   0  0  0  0  0  0  0  0  0  0  0  0
   16.5180   11.4710    5.5180 N   0  0  0  0  0  0  0  0  0  0  0  0
   15.4240   10.5510    5.1800 C   0  0  0  0  0  0  0  0  0  0  0  0
   15.9190    9.1340    4.8740 C   0  0  0  0  0  0  0  0  0  0  0  0
   16.9740    8.6360    5.8710 C   0  0  0  0  0  0  0  0  0  0  0  0
   16.3970    7.6960    6.9470 C   0  0  1  0  0  0  0  0  0  0  0  0
   17.1560    6.4460    6.9940 N   0  0  0  0  0  0  0  0  0  0  0  0
   16.8370    5.4400    6.0970 C   0  0  0  0  0  0  0  0  0  0  0  0
   15.9150    5.5350    5.2930 O   0  0  0  0  0  0  0  0  0  0  0  0
   17.7660    4.2130    6.1820 C   0  0  1  0  0  0  0  0  0  0  0  0
   18.8720    4.4240    7.2290 C   0  0  0  0  0  0  0  0  0  0  0  0
   19.7210    3.1830    7.5420 C   0  0  0  0  0  0  0  0  0  0  0  0
   20.2310    3.0890    8.9790 C   0  0  0  0  0  0  0  0  0  0  0  0
   20.1670    1.7060    9.4730 N   0  0  0  0  0  0  0  0  0  0  0  0
   21.1440    0.7990    9.2940 C   0  0  0  0  0  0  0  0  0  0  0  0
   21.0090   -0.4170    9.8350 N   0  0  0  0  0  0  0  0  0  0  0  0
   22.2470    1.0610    8.5930 N   0  0  0  0  0  0  0  0  0  0  0  0
   16.9330    3.0730    6.5530 N   0  0  0  0  0  0  0  0  0  0  0  0
   16.5220    2.1480    5.6160 C   0  0  0  0  0  0  0  0  0  0  0  0
   16.7870    2.2590    4.4220 O   0  0  0  0  0  0  0  0  0  0  0  0
   15.6930    1.0260    6.2200 C   0  0  0  0  0  0  0  0  0  0  0  0
   15.8300    0.9440    7.7400 C   0  0  0  0  0  0  0  0  0  0  0  0
   14.6080    1.4810    8.5000 C   0  0  0  0  0  0  0  0  0  0  0  0
   13.2760    0.8940    8.0150 C   0  0  0  0  0  0  0  0  0  0  0  0
   12.3440    1.9470    7.4100 C   0  0  0  0  0  0  0  0  0  0  0  0
   12.9450    3.2670    7.3490 N   0  0  0  0  0  0  0  0  0  0  0  0
   12.1860    4.4090    7.4900 C   0  0  0  0  0  0  0  0  0  0  0  0
   10.9500    4.4150    7.5060 O   0  0  0  0  0  0  0  0  0  0  0  0
   12.9930    5.7220    7.5240 C   0  0  1  0  0  0  0  0  0  0  0  0
   12.2150    6.8400    6.7940 C   0  0  0  0  0  0  0  0  0  0  0  0
   12.8610    8.2360    6.7940 C   0  0  0  0  0  0  0  0  0  0  0  0
   11.9220    9.3920    6.4250 C   0  0  0  0  0  0  0  0  0  0  0  0
   11.6460   10.3150    7.6070 C   0  0  0  0  0  0  0  0  0  0  0  0
   10.2890   10.0550    8.1480 N   0  0  0  0  0  0  0  0  0  0  0  0
   13.3140    6.0280    8.9160 N   0  0  0  0  0  0  0  0  0  0  0  0
   14.4620    5.5100    9.4920 C   0  0  0  0  0  0  0  0  0  0  0  0
   15.3060    4.9030    8.8470 O   0  0  0  0  0  0  0  0  0  0  0  0
   14.5460    5.7800   10.9830 C   0  0  0  0  0  0  0  0  0  0  0  0
   13.4250    5.1330   11.7940 C   0  0  0  0  0  0  0  0  0  0  0  0
   13.3470    3.6140   11.6040 C   0  0  0  0  0  0  0  0  0  0  0  0
   13.8390    2.8820   12.8570 C   0  0  0  0  0  0  0  0  0  0  0  0
   12.6990    2.4420   13.7770 C   0  0  0  0  0  0  0  0  0  0  0  0
   11.9360    3.5500   14.3200 N   0  0  0  0  0  0  0  0  0  0  0  0
   11.1450    3.3980   15.4420 C   0  0  0  0  0  0  0  0  0  0  0  0
   11.1210    2.3760   16.1210 O   0  0  0  0  0  0  0  0  0  0  0  0
   10.3540    4.6510   15.8300 C   0  0  1  0  0  0  0  0  0  0  0  0
   10.2720    5.5800   14.7390 O   0  0  0  0  0  0  0  0  0  0  0  0
    8.9280    5.5590   14.2230 C   0  0  1  0  0  0  0  0  0  0  0  0
    8.9500    5.5040   12.7720 N   0  0  0  0  0  0  0  0  0  0  0  0
    9.1310    4.4090   11.9730 C   0  0  0  0  0  0  0  0  0  0  0  0
    9.1310    4.7290   10.6940 N   0  0  0  0  0  0  0  0  0  0  0  0
    8.9380    6.0950   10.6700 C   0  0  0  0  0  0  0  0  0  0  0  0
    8.8420    7.0230    9.6200 C   0  0  0  0  0  0  0  0  0  0  0  0
    8.9660    6.6770    8.2840 N   0  0  0  0  0  0  0  0  0  0  0  0
    8.6040    8.3190    9.9290 N   0  0  0  0  0  0  0  0  0  0  0  0
    8.4950    8.6630   11.2290 C   0  0  0  0  0  0  0  0  0  0  0  0
    8.5690    7.8670   12.3210 N   0  0  0  0  0  0  0  0  0  0  0  0
    8.8030    6.5930   11.9540 C   0  0  0  0  0  0  0  0  0  0  0  0
    8.2140    4.3590   14.8520 C   0  0  2  0  0  0  0  0  0  0  0  0
    6.8150    4.5560   15.0790 O   0  0  0  0  0  0  0  0  0  0  0  0
    8.9340    4.2270   16.1800 C   0  0  2  0  0  0  0  0  0  0  0  0
    8.3630    5.1280   17.1420 O   0  0  0  0  0  0  0  0  0  0  0  0
   16.4850    8.3760    8.3430 C   0  0  0  0  0  0  0  0  0  0  0  0
   17.1080    7.6420    9.3140 N   0  0  0  0  0  0  0  0  0  0  0  0
   16.0030    9.4790    8.6120 O   0  0  0  0  0  0  0  0  0  0  0  0
   18.3450   13.1770    6.0720 H   0  0  0  0  0  0  0  0  0  0  0  0
   17.2970   14.5260    6.2860 H   0  0  0  0  0  0  0  0  0  0  0  0
   14.2900   12.8090    5.6180 H   0  0  0  0  0  0  0  0  0  0  0  0
   15.0010   14.3200    6.0280 H   0  0  0  0  0  0  0  0  0  0  0  0
   17.4720   11.1320    5.5080 H   0  0  0  0  0  0  0  0  0  0  0  0
   14.7272   10.5049    6.0299 H   0  0  0  0  0  0  0  0  0  0  0  0
   14.9335   10.9355    4.2736 H   0  0  0  0  0  0  0  0  0  0  0  0
   15.0589    8.4489    4.9032 H   0  0  0  0  0  0  0  0  0  0  0  0
   16.3922    9.1593    3.8813 H   0  0  0  0  0  0  0  0  0  0  0  0
   17.7526    8.0938    5.3143 H   0  0  0  0  0  0  0  0  0  0  0  0
   17.3757    9.5189    6.3898 H   0  0  0  0  0  0  0  0  0  0  0  0
   15.3485    7.4830    6.6916 H   0  0  0  0  0  0  0  0  0  0  0  0
   18.1590    6.5040    7.1780 H   0  0  0  0  0  0  0  0  0  0  0  0
   18.2645    4.0457    5.2158 H   0  0  0  0  0  0  0  0  0  0  0  0
   19.5445    5.2122    6.8596 H   0  0  0  0  0  0  0  0  0  0  0  0
   18.3594    4.6876    8.1659 H   0  0  0  0  0  0  0  0  0  0  0  0
   19.1087    2.2919    7.3393 H   0  0  0  0  0  0  0  0  0  0  0  0
   20.6149    3.2563    6.9052 H   0  0  0  0  0  0  0  0  0  0  0  0
   21.2746    3.4350    9.0133 H   0  0  0  0  0  0  0  0  0  0  0  0
   19.5942    3.7184    9.6180 H   0  0  0  0  0  0  0  0  0  0  0  0
   19.3550    1.4100    9.9990 H   0  0  0  0  0  0  0  0  0  0  0  0
   20.2010   -0.6730   10.3880 H   0  0  0  0  0  0  0  0  0  0  0  0
   21.7260   -1.1230    9.7250 H   0  0  0  0  0  0  0  0  0  0  0  0
   22.9800    0.3790    8.4710 H   0  0  0  0  0  0  0  0  0  0  0  0
   22.3970    1.9590    8.1210 H   0  0  0  0  0  0  0  0  0  0  0  0
   16.4250    3.1220    7.4290 H   0  0  0  0  0  0  0  0  0  0  0  0
   14.6353    1.1965    5.9707 H   0  0  0  0  0  0  0  0  0  0  0  0
   16.0619    0.0780    5.8015 H   0  0  0  0  0  0  0  0  0  0  0  0
   15.9770   -0.1098    8.0191 H   0  0  0  0  0  0  0  0  0  0  0  0
   16.6859    1.5757    8.0201 H   0  0  0  0  0  0  0  0  0  0  0  0
   14.7273    1.2381    9.5662 H   0  0  0  0  0  0  0  0  0  0  0  0
   14.5672    2.5654    8.3198 H   0  0  0  0  0  0  0  0  0  0  0  0
   13.4865    0.1314    7.2507 H   0  0  0  0  0  0  0  0  0  0  0  0
   12.7658    0.4671    8.8910 H   0  0  0  0  0  0  0  0  0  0  0  0
   12.0782    1.6351    6.3892 H   0  0  0  0  0  0  0  0  0  0  0  0
   11.4598    2.0173    8.0606 H   0  0  0  0  0  0  0  0  0  0  0  0
   13.9380    3.3380    7.5450 H   0  0  0  0  0  0  0  0  0  0  0  0
   13.9459    5.6262    6.9829 H   0  0  0  0  0  0  0  0  0  0  0  0
   12.0883    6.5300    5.7462 H   0  0  0  0  0  0  0  0  0  0  0  0
   11.2744    6.9537    7.3528 H   0  0  0  0  0  0  0  0  0  0  0  0
   13.2563    8.4277    7.8024 H   0  0  0  0  0  0  0  0  0  0  0  0
   13.6365    8.2128    6.0142 H   0  0  0  0  0  0  0  0  0  0  0  0
   12.3846    9.9795    5.6183 H   0  0  0  0  0  0  0  0  0  0  0  0
   10.9628    8.9573    6.1071 H   0  0  0  0  0  0  0  0  0  0  0  0
   12.3929   10.1326    8.3937 H   0  0  0  0  0  0  0  0  0  0  0  0
   11.7063   11.3605    7.2704 H   0  0  0  0  0  0  0  0  0  0  0  0
    9.9300   10.8190    8.7570 H   0  0  0  0  0  0  0  0  0  0  0  0
    9.5980    9.9640    7.3950 H   0  0  0  0  0  0  0  0  0  0  0  0
   10.2560    9.1910    8.7000 H   0  0  0  0  0  0  0  0  0  0  0  0
   12.5360    6.1900    9.5460 H   0  0  0  0  0  0  0  0  0  0  0  0
   15.5075    5.3930   11.3513 H   0  0  0  0  0  0  0  0  0  0  0  0
   14.4492    6.8676   11.1161 H   0  0  0  0  0  0  0  0  0  0  0  0
   13.5966    5.3444   12.8598 H   0  0  0  0  0  0  0  0  0  0  0  0
   12.4747    5.5579   11.4384 H   0  0  0  0  0  0  0  0  0  0  0  0
   12.3032    3.3286   11.4063 H   0  0  0  0  0  0  0  0  0  0  0  0
   13.9888    3.3317   10.7564 H   0  0  0  0  0  0  0  0  0  0  0  0
   14.4013    1.9899   12.5440 H   0  0  0  0  0  0  0  0  0  0  0  0
   14.4674    3.5848   13.4238 H   0  0  0  0  0  0  0  0  0  0  0  0
   12.0171    1.7972   13.2032 H   0  0  0  0  0  0  0  0  0  0  0  0
   13.1540    1.9135   14.6277 H   0  0  0  0  0  0  0  0  0  0  0  0
   11.7260    4.3160   13.6910 H   0  0  0  0  0  0  0  0  0  0  0  0
   10.8645    5.1356   16.6753 H   0  0  0  0  0  0  0  0  0  0  0  0
    8.3797    6.4761   14.4845 H   0  0  0  0  0  0  0  0  0  0  0  0
    9.2610    3.3845   12.3518 H   0  0  0  0  0  0  0  0  0  0  0  0
    8.4060    5.8790    8.0050 H   0  0  0  0  0  0  0  0  0  0  0  0
    9.0090    7.4730    7.6640 H   0  0  0  0  0  0  0  0  0  0  0  0
    8.3234    9.7312   11.4275 H   0  0  0  0  0  0  0  0  0  0  0  0
    8.2527    3.4786   14.1937 H   0  0  0  0  0  0  0  0  0  0  0  0
    6.3490    3.9070   14.5040 H   0  0  0  0  0  0  0  0  0  0  0  0
    8.8730    3.2214   16.6216 H   0  0  0  0  0  0  0  0  0  0  0  0
    7.4850    5.3690   16.7730 H   0  0  0  0  0  0  0  0  0  0  0  0
   17.8480    6.9990    9.0470 H   0  0  0  0  0  0  0  0  0  0  0  0
   17.2770    8.1180   10.1940 H   0  0  0  0  0  0  0  0  0  0  0  0
  1  2  1  0
  2  3  2  0
  2  4  1  0
  4  5  1  0
  5  6  1  0
  6  7  1  0
  7  8  1  0
  8  9  1  0
  9 10  1  0
 10 11  2  0
 10 12  1  0
 12 13  1  0
 13 14  1  0
 14 15  1  0
 15 16  1  0
 16 17  1  0
 17 18  1  0
 17 19  2  0
 12 20  1  0
 20 21  1  0
 21 22  2  0
 21 23  1  0
 23 24  1  0
 24 25  1  0
 25 26  1  0
 26 27  1  0
 27 28  1  0
 28 29  1  0
 29 30  2  0
 29 31  1  0
 31 32  1  0
 32 33  1  0
 33 34  1  0
 34 35  1  0
 35 36  1  0
 31 37  1  0
 37 38  1  0
 38 39  2  0
 38 40  1  0
 40 41  1  0
 41 42  1  0
 42 43  1  0
 43 44  1  0
 44 45  1  0
 45 46  1  0
 46 47  2  0
 46 48  1  0
 48 49  1  0
 49 50  1  0
 50 51  1  0
 51 52  1  0
 52 53  2  0
 53 54  1  0
 54 55  2  0
 55 56  1  0
 55 57  1  0
 57 58  2  0
 58 59  1  0
 59 60  2  0
 50 61  1  0
 61 62  1  0
 61 63  1  0
 63 64  1  0
  8 65  1  0
 65 66  1  0
 65 67  2  0
 63 48  1  0
 60 51  1  0
 60 54  1  0
  1 68  1  0
  1 69  1  0
  3 70  1  0
  3 71  1  0
  4 72  1  0
  5 73  1  0
  5 74  1  0
  6 75  1  0
  6 76  1  0
  7 77  1  0
  7 78  1  0
  8 79  1  6
  9 80  1  0
 12 81  1  6
 13 82  1  0
 13 83  1  0
 14 84  1  0
 14 85  1  0
 15 86  1  0
 15 87  1  0
 16 88  1  0
 18 89  1  0
 18 90  1  0
 19 91  1  0
 19 92  1  0
 20 93  1  0
 23 94  1  0
 23 95  1  0
 24 96  1  0
 24 97  1  0
 25 98  1  0
 25 99  1  0
 26100  1  0
 26101  1  0
 27102  1  0
 27103  1  0
 28104  1  0
 31105  1  6
 32106  1  0
 32107  1  0
 33108  1  0
 33109  1  0
 34110  1  0
 34111  1  0
 35112  1  0
 35113  1  0
 36114  1  0
 36115  1  0
 36116  1  0
 37117  1  0
 40118  1  0
 40119  1  0
 41120  1  0
 41121  1  0
 42122  1  0
 42123  1  0
 43124  1  0
 43125  1  0
 44126  1  0
 44127  1  0
 45128  1  0
 48129  1  1
 50130  1  6
 52131  1  0
 56132  1  0
 56133  1  0
 58134  1  0
 61135  1  6
 62136  1  0
 63137  1  1
 64138  1  0
 66139  1  0
 66140  1  0
M  CHG  3   3   1  19   1  36   1
M  END
>  <meeko>  (9) 
{"is_sidechain": [false], "free_energy": -6.97, "intermolecular_energy": -21.418, "internal_energy": -6.909}

$$$$
