2qe4_ligand
     RDKit          3D

 46 49  0  0  0  0  0  0  0  0999 V2000
   19.7610   18.1750   27.6880 C   0  0  0  0  0  0  0  0  0  0  0  0
   19.0090   17.2100   28.4090 O   0  0  0  0  0  0  0  0  0  0  0  0
   19.7630   16.0160   28.6280 C   0  0  0  0  0  0  0  0  0  0  0  0
   19.8760   15.6780   30.0980 C   0  0  0  0  0  0  0  0  0  0  0  0
   20.1800   16.6530   31.0570 C   0  0  0  0  0  0  0  0  0  0  0  0
   20.2980   16.3060   32.3960 C   0  0  0  0  0  0  0  0  0  0  0  0
   20.5890   17.2970   33.2880 O   0  0  0  0  0  0  0  0  0  0  0  0
   20.1160   14.9920   32.8110 C   0  0  0  0  0  0  0  0  0  0  0  0
   19.8250   13.9910   31.8710 C   0  0  0  0  0  0  0  0  0  0  0  0
   19.7150   14.3430   30.5180 C   0  0  0  0  0  0  0  0  0  0  0  0
   19.4460   13.4250   29.5360 O   0  0  0  0  0  0  0  0  0  0  0  0
   19.8110   12.0640   29.8110 C   0  0  1  0  0  0  0  0  0  0  0  0
   21.2530   11.7890   29.3910 C   0  0  0  0  0  0  0  0  0  0  0  0
   22.3310   12.5930   29.7860 C   0  0  0  0  0  0  0  0  0  0  0  0
   23.6370   12.2950   29.3830 C   0  0  0  0  0  0  0  0  0  0  0  0
   23.8770   11.1930   28.5760 C   0  0  0  0  0  0  0  0  0  0  0  0
   25.1650   10.9410   28.2080 O   0  0  0  0  0  0  0  0  0  0  0  0
   22.8310   10.3800   28.1610 C   0  0  0  0  0  0  0  0  0  0  0  0
   21.5270   10.6780   28.5660 C   0  0  0  0  0  0  0  0  0  0  0  0
   19.3280   11.5870   31.1920 C   0  0  1  0  0  0  0  0  0  0  0  0
   19.8930   10.2400   31.6770 C   0  0  0  0  0  0  0  0  0  0  0  0
   20.2900   10.4650   33.1310 C   0  0  0  0  0  0  0  0  0  0  0  0
   20.6520   11.9410   33.1870 C   0  0  0  0  0  0  0  0  0  0  0  0
   19.5650   12.5890   32.3280 C   0  0  1  0  0  0  0  0  0  0  0  0
   20.2788   18.8395   28.3953 H   0  0  0  0  0  0  0  0  0  0  0  0
   20.5018   17.6644   27.0551 H   0  0  0  0  0  0  0  0  0  0  0  0
   19.0849   18.7686   27.0551 H   0  0  0  0  0  0  0  0  0  0  0  0
   19.2667   15.1826   28.1092 H   0  0  0  0  0  0  0  0  0  0  0  0
   20.7785   16.1795   28.2382 H   0  0  0  0  0  0  0  0  0  0  0  0
   20.3259   17.6984   30.7475 H   0  0  0  0  0  0  0  0  0  0  0  0
   21.1210   16.9230   34.0080 H   0  0  0  0  0  0  0  0  0  0  0  0
   20.2001   14.7362   33.8775 H   0  0  0  0  0  0  0  0  0  0  0  0
   19.2461   11.3766   29.1642 H   0  0  0  0  0  0  0  0  0  0  0  0
   22.1473   13.4713   30.4223 H   0  0  0  0  0  0  0  0  0  0  0  0
   24.4723   12.9338   29.7057 H   0  0  0  0  0  0  0  0  0  0  0  0
   25.7540   11.2310   28.9220 H   0  0  0  0  0  0  0  0  0  0  0  0
   23.0269    9.5086   27.5188 H   0  0  0  0  0  0  0  0  0  0  0  0
   20.6987   10.0341   28.2352 H   0  0  0  0  0  0  0  0  0  0  0  0
   18.2531   11.4734   30.9879 H   0  0  0  0  0  0  0  0  0  0  0  0
   19.1273    9.4536   31.6048 H   0  0  0  0  0  0  0  0  0  0  0  0
   20.7474    9.9123   31.0666 H   0  0  0  0  0  0  0  0  0  0  0  0
   19.4498   10.2422   33.8051 H   0  0  0  0  0  0  0  0  0  0  0  0
   21.1162    9.8131   33.4509 H   0  0  0  0  0  0  0  0  0  0  0  0
   20.6184   12.3183   34.2197 H   0  0  0  0  0  0  0  0  0  0  0  0
   21.6715   12.1532   32.8326 H   0  0  0  0  0  0  0  0  0  0  0  0
   18.6602   12.7637   32.9287 H   0  0  0  0  0  0  0  0  0  0  0  0
  1  2  1  0
  2  3  1  0
  3  4  1  0
  4  5  2  0
  5  6  1  0
  6  7  1  0
  6  8  2  0
  8  9  1  0
  9 10  2  0
 10 11  1  0
 11 12  1  0
 12 13  1  0
 13 14  2  0
 14 15  1  0
 15 16  2  0
 16 17  1  0
 16 18  1  0
 18 19  2  0
 12 20  1  0
 20 21  1  0
 21 22  1  0
 22 23  1  0
 23 24  1  0
 10  4  1  0
 19 13  1  0
 24 20  1  0
 24  9  1  0
  1 25  1  0
  1 26  1  0
  1 27  1  0
  3 28  1  0
  3 29  1  0
  5 30  1  0
  7 31  1  0
  8 32  1  0
 12 33  1  6
 14 34  1  0
 15 35  1  0
 17 36  1  0
 18 37  1  0
 19 38  1  0
 20 39  1  6
 21 40  1  0
 21 41  1  0
 22 42  1  0
 22 43  1  0
 23 44  1  0
 23 45  1  0
 24 46  1  1
M  END
>  <meeko>  (1) 
{"is_sidechain": [false], "free_energy": -8.328, "intermolecular_energy": -10.275, "internal_energy": -0.746}

$$$$
2qe4_ligand
     RDKit          3D

 46 49  0  0  0  0  0  0  0  0999 V2000
   26.0470   12.5900   29.4890 C   0  0  0  0  0  0  0  0  0  0  0  0
   25.0790   13.6060   29.2650 O   0  0  0  0  0  0  0  0  0  0  0  0
   24.0750   13.6040   30.2820 C   0  0  0  0  0  0  0  0  0  0  0  0
   22.9700   12.6140   29.9860 C   0  0  0  0  0  0  0  0  0  0  0  0
   23.1560   11.5470   29.0970 C   0  0  0  0  0  0  0  0  0  0  0  0
   22.1150   10.6670   28.8310 C   0  0  0  0  0  0  0  0  0  0  0  0
   22.3530    9.6430   27.9620 O   0  0  0  0  0  0  0  0  0  0  0  0
   20.8740   10.8250   29.4380 C   0  0  0  0  0  0  0  0  0  0  0  0
   20.6550   11.8930   30.3220 C   0  0  0  0  0  0  0  0  0  0  0  0
   21.7060   12.7850   30.5830 C   0  0  0  0  0  0  0  0  0  0  0  0
   21.5710   13.8590   31.4230 O   0  0  0  0  0  0  0  0  0  0  0  0
   20.2420   14.3740   31.6000 C   0  0  1  0  0  0  0  0  0  0  0  0
   19.9150   15.4200   30.5380 C   0  0  0  0  0  0  0  0  0  0  0  0
   19.7760   15.1120   29.1770 C   0  0  0  0  0  0  0  0  0  0  0  0
   19.4660   16.1050   28.2430 C   0  0  0  0  0  0  0  0  0  0  0  0
   19.2970   17.4170   28.6570 C   0  0  0  0  0  0  0  0  0  0  0  0
   18.9970   18.3520   27.7110 O   0  0  0  0  0  0  0  0  0  0  0  0
   19.4350   17.7580   29.9960 C   0  0  0  0  0  0  0  0  0  0  0  0
   19.7430   16.7640   30.9290 C   0  0  0  0  0  0  0  0  0  0  0  0
   19.2140   13.2710   31.9080 C   0  0  1  0  0  0  0  0  0  0  0  0
   17.7350   13.6920   31.8550 C   0  0  0  0  0  0  0  0  0  0  0  0
   17.0250   12.5880   31.0800 C   0  0  0  0  0  0  0  0  0  0  0  0
   18.0940   12.0560   30.1380 C   0  0  0  0  0  0  0  0  0  0  0  0
   19.3390   12.0230   31.0270 C   0  0  1  0  0  0  0  0  0  0  0  0
   26.1840   12.4462   30.5709 H   0  0  0  0  0  0  0  0  0  0  0  0
   25.7029   11.6491   29.0347 H   0  0  0  0  0  0  0  0  0  0  0  0
   27.0034   12.8882   29.0347 H   0  0  0  0  0  0  0  0  0  0  0  0
   24.5422   13.3382   31.2417 H   0  0  0  0  0  0  0  0  0  0  0  0
   23.6292   14.6089   30.3211 H   0  0  0  0  0  0  0  0  0  0  0  0
   24.1309   11.4057   28.6076 H   0  0  0  0  0  0  0  0  0  0  0  0
   22.8300    9.9900   27.1920 H   0  0  0  0  0  0  0  0  0  0  0  0
   20.0634   10.1125   29.2252 H   0  0  0  0  0  0  0  0  0  0  0  0
   20.1774   14.9592   32.5291 H   0  0  0  0  0  0  0  0  0  0  0  0
   19.9129   14.0741   28.8394 H   0  0  0  0  0  0  0  0  0  0  0  0
   19.3562   15.8452   27.1798 H   0  0  0  0  0  0  0  0  0  0  0  0
   19.4070   18.0870   26.8730 H   0  0  0  0  0  0  0  0  0  0  0  0
   19.3031   18.8011   30.3195 H   0  0  0  0  0  0  0  0  0  0  0  0
   19.8534   17.0354   31.9893 H   0  0  0  0  0  0  0  0  0  0  0  0
   19.4863   13.0444   32.9494 H   0  0  0  0  0  0  0  0  0  0  0  0
   17.3222   13.7749   32.8712 H   0  0  0  0  0  0  0  0  0  0  0  0
   17.6071   14.6740   31.3761 H   0  0  0  0  0  0  0  0  0  0  0  0
   16.6732   11.7973   31.7590 H   0  0  0  0  0  0  0  0  0  0  0  0
   16.1329   12.9499   30.5478 H   0  0  0  0  0  0  0  0  0  0  0  0
   17.8383   11.0493   29.7759 H   0  0  0  0  0  0  0  0  0  0  0  0
   18.2206   12.6666   29.2318 H   0  0  0  0  0  0  0  0  0  0  0  0
   19.3601   11.0951   31.6174 H   0  0  0  0  0  0  0  0  0  0  0  0
  1  2  1  0
  2  3  1  0
  3  4  1  0
  4  5  2  0
  5  6  1  0
  6  7  1  0
  6  8  2  0
  8  9  1  0
  9 10  2  0
 10 11  1  0
 11 12  1  0
 12 13  1  0
 13 14  2  0
 14 15  1  0
 15 16  2  0
 16 17  1  0
 16 18  1  0
 18 19  2  0
 12 20  1  0
 20 21  1  0
 21 22  1  0
 22 23  1  0
 23 24  1  0
 10  4  1  0
 19 13  1  0
 24 20  1  0
 24  9  1  0
  1 25  1  0
  1 26  1  0
  1 27  1  0
  3 28  1  0
  3 29  1  0
  5 30  1  0
  7 31  1  0
  8 32  1  0
 12 33  1  1
 14 34  1  0
 15 35  1  0
 17 36  1  0
 18 37  1  0
 19 38  1  0
 20 39  1  1
 21 40  1  0
 21 41  1  0
 22 42  1  0
 22 43  1  0
 23 44  1  0
 23 45  1  0
 24 46  1  1
M  END
>  <meeko>  (2) 
{"is_sidechain": [false], "free_energy": -7.824, "intermolecular_energy": -10.021, "internal_energy": -0.378}

$$$$
2qe4_ligand
     RDKit          3D

 46 49  0  0  0  0  0  0  0  0999 V2000
   20.2040    9.2060   33.5540 C   0  0  0  0  0  0  0  0  0  0  0  0
   19.8990   10.3820   34.2890 O   0  0  0  0  0  0  0  0  0  0  0  0
   20.3590   11.5550   33.6130 C   0  0  0  0  0  0  0  0  0  0  0  0
   19.3190   12.1060   32.6630 C   0  0  0  0  0  0  0  0  0  0  0  0
   18.1270   11.4190   32.3960 C   0  0  0  0  0  0  0  0  0  0  0  0
   17.2020   11.9420   31.5030 C   0  0  0  0  0  0  0  0  0  0  0  0
   16.0560   11.2350   31.2860 O   0  0  0  0  0  0  0  0  0  0  0  0
   17.4370   13.1510   30.8590 C   0  0  0  0  0  0  0  0  0  0  0  0
   18.6280   13.8540   31.0960 C   0  0  0  0  0  0  0  0  0  0  0  0
   19.5650   13.3200   31.9920 C   0  0  0  0  0  0  0  0  0  0  0  0
   20.7570   13.9370   32.2690 O   0  0  0  0  0  0  0  0  0  0  0  0
   21.2750   14.8180   31.2600 C   0  0  1  0  0  0  0  0  0  0  0  0
   22.1340   14.0550   30.2560 C   0  0  0  0  0  0  0  0  0  0  0  0
   21.5940   13.2690   29.2270 C   0  0  0  0  0  0  0  0  0  0  0  0
   22.4230   12.5950   28.3260 C   0  0  0  0  0  0  0  0  0  0  0  0
   23.8010   12.6950   28.4450 C   0  0  0  0  0  0  0  0  0  0  0  0
   24.5710   12.0210   27.5440 O   0  0  0  0  0  0  0  0  0  0  0  0
   24.3690   13.4580   29.4560 C   0  0  0  0  0  0  0  0  0  0  0  0
   23.5390   14.1320   30.3560 C   0  0  0  0  0  0  0  0  0  0  0  0
   20.2200   15.8120   30.7420 C   0  0  1  0  0  0  0  0  0  0  0  0
   20.6060   16.6130   29.4870 C   0  0  0  0  0  0  0  0  0  0  0  0
   19.3840   16.5620   28.5790 C   0  0  0  0  0  0  0  0  0  0  0  0
   18.7240   15.2370   28.9280 C   0  0  0  0  0  0  0  0  0  0  0  0
   18.8500   15.1890   30.4520 C   0  0  1  0  0  0  0  0  0  0  0  0
   20.4175    8.3827   34.2515 H   0  0  0  0  0  0  0  0  0  0  0  0
   19.3460    8.9367   32.9205 H   0  0  0  0  0  0  0  0  0  0  0  0
   21.0848    9.3876   32.9205 H   0  0  0  0  0  0  0  0  0  0  0  0
   20.5998   12.3246   34.3611 H   0  0  0  0  0  0  0  0  0  0  0  0
   21.2466   11.2815   33.0236 H   0  0  0  0  0  0  0  0  0  0  0  0
   17.9235   10.4608   32.8965 H   0  0  0  0  0  0  0  0  0  0  0  0
   16.2910   10.3340   31.0140 H   0  0  0  0  0  0  0  0  0  0  0  0
   16.6885   13.5572   30.1628 H   0  0  0  0  0  0  0  0  0  0  0  0
   21.9999   15.5199   31.6981 H   0  0  0  0  0  0  0  0  0  0  0  0
   20.5019   13.1819   29.1279 H   0  0  0  0  0  0  0  0  0  0  0  0
   21.9827   11.9856   27.5230 H   0  0  0  0  0  0  0  0  0  0  0  0
   24.0400   11.8530   26.7490 H   0  0  0  0  0  0  0  0  0  0  0  0
   25.4627   13.5315   29.5480 H   0  0  0  0  0  0  0  0  0  0  0  0
   23.9902   14.7344   31.1582 H   0  0  0  0  0  0  0  0  0  0  0  0
   20.1653   16.4956   31.6021 H   0  0  0  0  0  0  0  0  0  0  0  0
   20.8438   17.6535   29.7532 H   0  0  0  0  0  0  0  0  0  0  0  0
   21.4972   16.1960   28.9952 H   0  0  0  0  0  0  0  0  0  0  0  0
   18.7066   17.4034   28.7869 H   0  0  0  0  0  0  0  0  0  0  0  0
   19.6441   16.6385   27.5129 H   0  0  0  0  0  0  0  0  0  0  0  0
   17.6690   15.2253   28.6167 H   0  0  0  0  0  0  0  0  0  0  0  0
   19.1847   14.3742   28.4247 H   0  0  0  0  0  0  0  0  0  0  0  0
   18.0277   15.7504   30.9196 H   0  0  0  0  0  0  0  0  0  0  0  0
  1  2  1  0
  2  3  1  0
  3  4  1  0
  4  5  2  0
  5  6  1  0
  6  7  1  0
  6  8  2  0
  8  9  1  0
  9 10  2  0
 10 11  1  0
 11 12  1  0
 12 13  1  0
 13 14  2  0
 14 15  1  0
 15 16  2  0
 16 17  1  0
 16 18  1  0
 18 19  2  0
 12 20  1  0
 20 21  1  0
 21 22  1  0
 22 23  1  0
 23 24  1  0
 10  4  1  0
 19 13  1  0
 24 20  1  0
 24  9  1  0
  1 25  1  0
  1 26  1  0
  1 27  1  0
  3 28  1  0
  3 29  1  0
  5 30  1  0
  7 31  1  0
  8 32  1  0
 12 33  1  1
 14 34  1  0
 15 35  1  0
 17 36  1  0
 18 37  1  0
 19 38  1  0
 20 39  1  1
 21 40  1  0
 21 41  1  0
 22 42  1  0
 22 43  1  0
 23 44  1  0
 23 45  1  0
 24 46  1  1
M  END
>  <meeko>  (3) 
{"is_sidechain": [false], "free_energy": -7.583, "intermolecular_energy": -9.619, "internal_energy": -0.482}

$$$$
2qe4_ligand
     RDKit          3D

 46 49  0  0  0  0  0  0  0  0999 V2000
   20.9570    9.5760   29.7950 C   0  0  0  0  0  0  0  0  0  0  0  0
   21.9390    9.7220   28.7790 O   0  0  0  0  0  0  0  0  0  0  0  0
   21.6930   10.8820   27.9790 C   0  0  0  0  0  0  0  0  0  0  0  0
   22.1960   12.1450   28.6430 C   0  0  0  0  0  0  0  0  0  0  0  0
   23.5650   12.4120   28.7780 C   0  0  0  0  0  0  0  0  0  0  0  0
   23.9930   13.5710   29.4120 C   0  0  0  0  0  0  0  0  0  0  0  0
   25.3370   13.7830   29.5090 O   0  0  0  0  0  0  0  0  0  0  0  0
   23.0790   14.4840   29.9220 C   0  0  0  0  0  0  0  0  0  0  0  0
   21.7020   14.2360   29.8150 C   0  0  0  0  0  0  0  0  0  0  0  0
   21.2710   13.0610   29.1820 C   0  0  0  0  0  0  0  0  0  0  0  0
   19.9460   12.7380   29.0460 O   0  0  0  0  0  0  0  0  0  0  0  0
   19.0440   13.3090   30.0070 C   0  0  1  0  0  0  0  0  0  0  0  0
   18.9260   12.4200   31.2420 C   0  0  0  0  0  0  0  0  0  0  0  0
   19.9970   12.1770   32.1150 C   0  0  0  0  0  0  0  0  0  0  0  0
   19.8370   11.3620   33.2390 C   0  0  0  0  0  0  0  0  0  0  0  0
   18.6080   10.7770   33.5010 C   0  0  0  0  0  0  0  0  0  0  0  0
   18.4980    9.9900   34.6090 O   0  0  0  0  0  0  0  0  0  0  0  0
   17.5290   10.9910   32.6540 C   0  0  0  0  0  0  0  0  0  0  0  0
   17.6900   11.8070   31.5310 C   0  0  0  0  0  0  0  0  0  0  0  0
   19.2510   14.8230   30.1890 C   0  0  1  0  0  0  0  0  0  0  0  0
   18.5150   15.4680   31.3760 C   0  0  0  0  0  0  0  0  0  0  0  0
   19.5390   16.3760   32.0460 C   0  0  0  0  0  0  0  0  0  0  0  0
   20.8700   15.6980   31.7620 C   0  0  0  0  0  0  0  0  0  0  0  0
   20.7180   15.2540   30.3060 C   0  0  1  0  0  0  0  0  0  0  0  0
   21.4372    9.6474   30.7821 H   0  0  0  0  0  0  0  0  0  0  0  0
   20.2046   10.3722   29.6948 H   0  0  0  0  0  0  0  0  0  0  0  0
   20.4688    8.5954   29.6948 H   0  0  0  0  0  0  0  0  0  0  0  0
   22.2035   10.7615   27.0121 H   0  0  0  0  0  0  0  0  0  0  0  0
   20.6054   10.9783   27.8452 H   0  0  0  0  0  0  0  0  0  0  0  0
   24.3036   11.7006   28.3801 H   0  0  0  0  0  0  0  0  0  0  0  0
   25.5550   14.6190   29.0660 H   0  0  0  0  0  0  0  0  0  0  0  0
   23.4351   15.4030   30.4106 H   0  0  0  0  0  0  0  0  0  0  0  0
   18.0148   13.3032   29.6189 H   0  0  0  0  0  0  0  0  0  0  0  0
   20.9766   12.6344   31.9119 H   0  0  0  0  0  0  0  0  0  0  0  0
   20.6861   11.1848   33.9155 H   0  0  0  0  0  0  0  0  0  0  0  0
   19.0960    9.2310   34.5100 H   0  0  0  0  0  0  0  0  0  0  0  0
   16.5563   10.5226   32.8649 H   0  0  0  0  0  0  0  0  0  0  0  0
   16.8352   11.9743   30.8592 H   0  0  0  0  0  0  0  0  0  0  0  0
   18.8087   15.1878   29.2502 H   0  0  0  0  0  0  0  0  0  0  0  0
   17.6546   16.0547   31.0218 H   0  0  0  0  0  0  0  0  0  0  0  0
   18.1229   14.7120   32.0722 H   0  0  0  0  0  0  0  0  0  0  0  0
   19.5126   17.3851   31.6089 H   0  0  0  0  0  0  0  0  0  0  0  0
   19.3505   16.5068   33.1218 H   0  0  0  0  0  0  0  0  0  0  0  0
   21.7066   16.4031   31.8763 H   0  0  0  0  0  0  0  0  0  0  0  0
   21.0929   14.8691   32.4499 H   0  0  0  0  0  0  0  0  0  0  0  0
   20.9664   16.0836   29.6278 H   0  0  0  0  0  0  0  0  0  0  0  0
  1  2  1  0
  2  3  1  0
  3  4  1  0
  4  5  2  0
  5  6  1  0
  6  7  1  0
  6  8  2  0
  8  9  1  0
  9 10  2  0
 10 11  1  0
 11 12  1  0
 12 13  1  0
 13 14  2  0
 14 15  1  0
 15 16  2  0
 16 17  1  0
 16 18  1  0
 18 19  2  0
 12 20  1  0
 20 21  1  0
 21 22  1  0
 22 23  1  0
 23 24  1  0
 10  4  1  0
 19 13  1  0
 24 20  1  0
 24  9  1  0
  1 25  1  0
  1 26  1  0
  1 27  1  0
  3 28  1  0
  3 29  1  0
  5 30  1  0
  7 31  1  0
  8 32  1  0
 12 33  1  6
 14 34  1  0
 15 35  1  0
 17 36  1  0
 18 37  1  0
 19 38  1  0
 20 39  1  6
 21 40  1  0
 21 41  1  0
 22 42  1  0
 22 43  1  0
 23 44  1  0
 23 45  1  0
 24 46  1  6
M  END
>  <meeko>  (4) 
{"is_sidechain": [false], "free_energy": -7.542, "intermolecular_energy": -9.148, "internal_energy": -0.903}

$$$$
2qe4_ligand
     RDKit          3D

 46 49  0  0  0  0  0  0  0  0999 V2000
   16.7820   13.7510   31.6220 C   0  0  0  0  0  0  0  0  0  0  0  0
   16.7960   13.1440   30.3380 O   0  0  0  0  0  0  0  0  0  0  0  0
   17.2560   11.7920   30.4050 C   0  0  0  0  0  0  0  0  0  0  0  0
   18.5910   11.6810   31.1090 C   0  0  0  0  0  0  0  0  0  0  0  0
   18.6890   11.2370   32.4350 C   0  0  0  0  0  0  0  0  0  0  0  0
   19.9270   11.1660   33.0600 C   0  0  0  0  0  0  0  0  0  0  0  0
   19.9650   10.7210   34.3490 O   0  0  0  0  0  0  0  0  0  0  0  0
   21.0870   11.5320   32.3880 C   0  0  0  0  0  0  0  0  0  0  0  0
   21.0180   11.9940   31.0640 C   0  0  0  0  0  0  0  0  0  0  0  0
   19.7650   12.0720   30.4380 C   0  0  0  0  0  0  0  0  0  0  0  0
   19.6090   12.5240   29.1530 O   0  0  0  0  0  0  0  0  0  0  0  0
   20.6240   13.4080   28.6550 C   0  0  1  0  0  0  0  0  0  0  0  0
   20.2970   14.8610   28.9900 C   0  0  0  0  0  0  0  0  0  0  0  0
   20.4790   15.4110   30.2670 C   0  0  0  0  0  0  0  0  0  0  0  0
   20.1730   16.7510   30.5240 C   0  0  0  0  0  0  0  0  0  0  0  0
   19.6770   17.5540   29.5080 C   0  0  0  0  0  0  0  0  0  0  0  0
   19.3920   18.8540   29.8030 O   0  0  0  0  0  0  0  0  0  0  0  0
   19.4780   17.0400   28.2340 C   0  0  0  0  0  0  0  0  0  0  0  0
   19.7860   15.7000   27.9790 C   0  0  0  0  0  0  0  0  0  0  0  0
   22.0480   12.8820   28.9100 C   0  0  1  0  0  0  0  0  0  0  0  0
   23.1930   13.8750   28.6470 C   0  0  0  0  0  0  0  0  0  0  0  0
   24.1300   13.7420   29.8420 C   0  0  0  0  0  0  0  0  0  0  0  0
   23.2110   13.3360   30.9840 C   0  0  0  0  0  0  0  0  0  0  0  0
   22.2750   12.3240   30.3200 C   0  0  1  0  0  0  0  0  0  0  0  0
   16.8000   12.9704   32.3968 H   0  0  0  0  0  0  0  0  0  0  0  0
   17.6655   14.3971   31.7318 H   0  0  0  0  0  0  0  0  0  0  0  0
   15.8697   14.3556   31.7318 H   0  0  0  0  0  0  0  0  0  0  0  0
   16.5148   11.1915   30.9527 H   0  0  0  0  0  0  0  0  0  0  0  0
   17.3834   11.4253   29.3758 H   0  0  0  0  0  0  0  0  0  0  0  0
   17.7813   10.9436   32.9828 H   0  0  0  0  0  0  0  0  0  0  0  0
   20.2720    9.8010   34.3530 H   0  0  0  0  0  0  0  0  0  0  0  0
   22.0609   11.4596   32.8942 H   0  0  0  0  0  0  0  0  0  0  0  0
   20.6185   13.4168   27.5550 H   0  0  0  0  0  0  0  0  0  0  0  0
   20.8683   14.7789   31.0787 H   0  0  0  0  0  0  0  0  0  0  0  0
   20.3255   17.1676   31.5306 H   0  0  0  0  0  0  0  0  0  0  0  0
   19.9220   19.4270   29.2250 H   0  0  0  0  0  0  0  0  0  0  0  0
   19.0817   17.6808   27.4325 H   0  0  0  0  0  0  0  0  0  0  0  0
   19.6264   15.2926   26.9697 H   0  0  0  0  0  0  0  0  0  0  0  0
   22.0901   12.0792   28.1592 H   0  0  0  0  0  0  0  0  0  0  0  0
   23.7188   13.6176   27.7157 H   0  0  0  0  0  0  0  0  0  0  0  0
   22.8222   14.9042   28.5317 H   0  0  0  0  0  0  0  0  0  0  0  0
   24.8911   12.9693   29.6585 H   0  0  0  0  0  0  0  0  0  0  0  0
   24.6837   14.6689   30.0521 H   0  0  0  0  0  0  0  0  0  0  0  0
   23.7787   12.8723   31.8042 H   0  0  0  0  0  0  0  0  0  0  0  0
   22.6818   14.1852   31.4410 H   0  0  0  0  0  0  0  0  0  0  0  0
   22.7402   11.3273   30.3061 H   0  0  0  0  0  0  0  0  0  0  0  0
  1  2  1  0
  2  3  1  0
  3  4  1  0
  4  5  2  0
  5  6  1  0
  6  7  1  0
  6  8  2  0
  8  9  1  0
  9 10  2  0
 10 11  1  0
 11 12  1  0
 12 13  1  0
 13 14  2  0
 14 15  1  0
 15 16  2  0
 16 17  1  0
 16 18  1  0
 18 19  2  0
 12 20  1  0
 20 21  1  0
 21 22  1  0
 22 23  1  0
 23 24  1  0
 10  4  1  0
 19 13  1  0
 24 20  1  0
 24  9  1  0
  1 25  1  0
  1 26  1  0
  1 27  1  0
  3 28  1  0
  3 29  1  0
  5 30  1  0
  7 31  1  0
  8 32  1  0
 12 33  1  6
 14 34  1  0
 15 35  1  0
 17 36  1  0
 18 37  1  0
 19 38  1  0
 20 39  1  6
 21 40  1  0
 21 41  1  0
 22 42  1  0
 22 43  1  0
 23 44  1  0
 23 45  1  0
 24 46  1  6
M  END
>  <meeko>  (5) 
{"is_sidechain": [false], "free_energy": -7.367, "intermolecular_energy": -9.329, "internal_energy": -0.506}

$$$$
2qe4_ligand
     RDKit          3D

 46 49  0  0  0  0  0  0  0  0999 V2000
   20.6320   16.6120   30.6800 C   0  0  0  0  0  0  0  0  0  0  0  0
   20.8710   15.6270   29.6850 O   0  0  0  0  0  0  0  0  0  0  0  0
   21.9810   14.7950   30.0290 C   0  0  0  0  0  0  0  0  0  0  0  0
   21.6620   13.3260   29.8640 C   0  0  0  0  0  0  0  0  0  0  0  0
   21.6600   12.7100   28.6050 C   0  0  0  0  0  0  0  0  0  0  0  0
   21.3420   11.3640   28.4850 C   0  0  0  0  0  0  0  0  0  0  0  0
   21.3610   10.8140   27.2360 O   0  0  0  0  0  0  0  0  0  0  0  0
   21.0220   10.6030   29.6030 C   0  0  0  0  0  0  0  0  0  0  0  0
   21.0030   11.1970   30.8750 C   0  0  0  0  0  0  0  0  0  0  0  0
   21.3160   12.5590   30.9930 C   0  0  0  0  0  0  0  0  0  0  0  0
   21.3080   13.2170   32.1950 O   0  0  0  0  0  0  0  0  0  0  0  0
   20.4700   12.6670   33.2240 C   0  0  1  0  0  0  0  0  0  0  0  0
   19.0550   13.2300   33.1360 C   0  0  0  0  0  0  0  0  0  0  0  0
   17.9070   12.4260   33.1900 C   0  0  0  0  0  0  0  0  0  0  0  0
   16.6300   12.9890   33.1140 C   0  0  0  0  0  0  0  0  0  0  0  0
   16.4860   14.3620   32.9790 C   0  0  0  0  0  0  0  0  0  0  0  0
   15.2220   14.8670   32.9090 O   0  0  0  0  0  0  0  0  0  0  0  0
   17.6010   15.1860   32.9150 C   0  0  0  0  0  0  0  0  0  0  0  0
   18.8770   14.6210   32.9920 C   0  0  0  0  0  0  0  0  0  0  0  0
   20.6650   11.1500   33.4000 C   0  0  1  0  0  0  0  0  0  0  0  0
   19.6330   10.4350   34.2890 C   0  0  0  0  0  0  0  0  0  0  0  0
   19.2480    9.1710   33.5300 C   0  0  0  0  0  0  0  0  0  0  0  0
   19.4240    9.5530   32.0690 C   0  0  0  0  0  0  0  0  0  0  0  0
   20.7230   10.3610   32.0860 C   0  0  1  0  0  0  0  0  0  0  0  0
   20.7416   16.1602   31.6769 H   0  0  0  0  0  0  0  0  0  0  0  0
   21.3575   17.4311   30.5668 H   0  0  0  0  0  0  0  0  0  0  0  0
   19.6118   17.0075   30.5668 H   0  0  0  0  0  0  0  0  0  0  0  0
   22.8303   15.0491   29.3777 H   0  0  0  0  0  0  0  0  0  0  0  0
   22.2231   14.9728   31.0872 H   0  0  0  0  0  0  0  0  0  0  0  0
   21.9114   13.2955   27.7083 H   0  0  0  0  0  0  0  0  0  0  0  0
   21.7350   11.4590   26.6160 H   0  0  0  0  0  0  0  0  0  0  0  0
   20.7835    9.5350   29.4913 H   0  0  0  0  0  0  0  0  0  0  0  0
   20.7966   13.0173   34.2142 H   0  0  0  0  0  0  0  0  0  0  0  0
   18.0133   11.3361   33.2937 H   0  0  0  0  0  0  0  0  0  0  0  0
   15.7402   12.3440   33.1612 H   0  0  0  0  0  0  0  0  0  0  0  0
   14.8710   14.7030   32.0190 H   0  0  0  0  0  0  0  0  0  0  0  0
   17.4815   16.2739   32.8047 H   0  0  0  0  0  0  0  0  0  0  0  0
   19.7600   15.2748   32.9392 H   0  0  0  0  0  0  0  0  0  0  0  0
   21.6419   11.1421   33.9056 H   0  0  0  0  0  0  0  0  0  0  0  0
   20.0762   10.1788   35.2626 H   0  0  0  0  0  0  0  0  0  0  0  0
   18.7589   11.0712   34.4922 H   0  0  0  0  0  0  0  0  0  0  0  0
   19.9116    8.3359   33.7987 H   0  0  0  0  0  0  0  0  0  0  0  0
   18.2267    8.8330   33.7598 H   0  0  0  0  0  0  0  0  0  0  0  0
   19.5209    8.6597   31.4345 H   0  0  0  0  0  0  0  0  0  0  0  0
   18.5692   10.1099   31.6577 H   0  0  0  0  0  0  0  0  0  0  0  0
   21.5906    9.6863   32.0400 H   0  0  0  0  0  0  0  0  0  0  0  0
  1  2  1  0
  2  3  1  0
  3  4  1  0
  4  5  2  0
  5  6  1  0
  6  7  1  0
  6  8  2  0
  8  9  1  0
  9 10  2  0
 10 11  1  0
 11 12  1  0
 12 13  1  0
 13 14  2  0
 14 15  1  0
 15 16  2  0
 16 17  1  0
 16 18  1  0
 18 19  2  0
 12 20  1  0
 20 21  1  0
 21 22  1  0
 22 23  1  0
 23 24  1  0
 10  4  1  0
 19 13  1  0
 24 20  1  0
 24  9  1  0
  1 25  1  0
  1 26  1  0
  1 27  1  0
  3 28  1  0
  3 29  1  0
  5 30  1  0
  7 31  1  0
  8 32  1  0
 12 33  1  1
 14 34  1  0
 15 35  1  0
 17 36  1  0
 18 37  1  0
 19 38  1  0
 20 39  1  1
 21 40  1  0
 21 41  1  0
 22 42  1  0
 22 43  1  0
 23 44  1  0
 23 45  1  0
 24 46  1  1
M  END
>  <meeko>  (6) 
{"is_sidechain": [false], "free_energy": -6.65, "intermolecular_energy": -8.723, "internal_energy": -0.228}

$$$$
2qe4_ligand
     RDKit          3D

 46 49  0  0  0  0  0  0  0  0999 V2000
   20.6020    9.9090   31.2530 C   0  0  0  0  0  0  0  0  0  0  0  0
   20.1730   10.0820   29.9100 O   0  0  0  0  0  0  0  0  0  0  0  0
   21.2740   10.3610   29.0420 C   0  0  0  0  0  0  0  0  0  0  0  0
   21.9150   11.6970   29.3500 C   0  0  0  0  0  0  0  0  0  0  0  0
   23.2620   11.7990   29.7220 C   0  0  0  0  0  0  0  0  0  0  0  0
   23.8150   13.0370   30.0190 C   0  0  0  0  0  0  0  0  0  0  0  0
   25.1330   13.0790   30.3700 O   0  0  0  0  0  0  0  0  0  0  0  0
   23.0490   14.1950   29.9530 C   0  0  0  0  0  0  0  0  0  0  0  0
   21.6930   14.1220   29.5970 C   0  0  0  0  0  0  0  0  0  0  0  0
   21.1350   12.8680   29.3050 C   0  0  0  0  0  0  0  0  0  0  0  0
   19.8170   12.7090   28.9610 O   0  0  0  0  0  0  0  0  0  0  0  0
   18.9060   13.7180   29.4220 C   0  0  1  0  0  0  0  0  0  0  0  0
   18.3740   13.3830   30.8120 C   0  0  0  0  0  0  0  0  0  0  0  0
   17.0090   13.2250   31.0920 C   0  0  0  0  0  0  0  0  0  0  0  0
   16.5700   12.9090   32.3810 C   0  0  0  0  0  0  0  0  0  0  0  0
   17.4910   12.7510   33.4070 C   0  0  0  0  0  0  0  0  0  0  0  0
   17.0190   12.4430   34.6470 O   0  0  0  0  0  0  0  0  0  0  0  0
   18.8500   12.9070   33.1660 C   0  0  0  0  0  0  0  0  0  0  0  0
   19.2860   13.2220   31.8760 C   0  0  0  0  0  0  0  0  0  0  0  0
   19.4060   15.1460   29.1340 C   0  0  1  0  0  0  0  0  0  0  0  0
   18.6290   16.2840   29.8180 C   0  0  0  0  0  0  0  0  0  0  0  0
   19.6910   17.2220   30.3790 C   0  0  0  0  0  0  0  0  0  0  0  0
   20.8690   16.3070   30.6750 C   0  0  0  0  0  0  0  0  0  0  0  0
   20.8870   15.3770   29.4610 C   0  0  1  0  0  0  0  0  0  0  0  0
   19.8033   10.2311   31.9374 H   0  0  0  0  0  0  0  0  0  0  0  0
   20.8315    8.8480   31.4308 H   0  0  0  0  0  0  0  0  0  0  0  0
   21.5033   10.5139   31.4308 H   0  0  0  0  0  0  0  0  0  0  0  0
   22.0287    9.5695   29.1601 H   0  0  0  0  0  0  0  0  0  0  0  0
   20.8928   10.3970   28.0108 H   0  0  0  0  0  0  0  0  0  0  0  0
   23.8842   10.8937   29.7790 H   0  0  0  0  0  0  0  0  0  0  0  0
   25.2250   12.7520   31.2790 H   0  0  0  0  0  0  0  0  0  0  0  0
   23.5058   15.1696   30.1799 H   0  0  0  0  0  0  0  0  0  0  0  0
   17.9880   13.7110   28.8161 H   0  0  0  0  0  0  0  0  0  0  0  0
   16.2724   13.3517   30.2849 H   0  0  0  0  0  0  0  0  0  0  0  0
   15.4955   12.7857   32.5819 H   0  0  0  0  0  0  0  0  0  0  0  0
   17.4210   11.6070   34.9330 H   0  0  0  0  0  0  0  0  0  0  0  0
   19.5764   12.7838   33.9828 H   0  0  0  0  0  0  0  0  0  0  0  0
   20.3623   13.3469   31.6866 H   0  0  0  0  0  0  0  0  0  0  0  0
   19.2318   15.1933   28.0489 H   0  0  0  0  0  0  0  0  0  0  0  0
   17.9973   16.8112   29.0880 H   0  0  0  0  0  0  0  0  0  0  0  0
   17.9609   15.9061   30.6059 H   0  0  0  0  0  0  0  0  0  0  0  0
   19.9668   17.9879   29.6391 H   0  0  0  0  0  0  0  0  0  0  0  0
   19.3457   17.7696   31.2683 H   0  0  0  0  0  0  0  0  0  0  0  0
   21.8058   16.8786   30.7505 H   0  0  0  0  0  0  0  0  0  0  0  0
   20.7766   15.7729   31.6322 H   0  0  0  0  0  0  0  0  0  0  0  0
   21.4309   15.8483   28.6291 H   0  0  0  0  0  0  0  0  0  0  0  0
  1  2  1  0
  2  3  1  0
  3  4  1  0
  4  5  2  0
  5  6  1  0
  6  7  1  0
  6  8  2  0
  8  9  1  0
  9 10  2  0
 10 11  1  0
 11 12  1  0
 12 13  1  0
 13 14  2  0
 14 15  1  0
 15 16  2  0
 16 17  1  0
 16 18  1  0
 18 19  2  0
 12 20  1  0
 20 21  1  0
 21 22  1  0
 22 23  1  0
 23 24  1  0
 10  4  1  0
 19 13  1  0
 24 20  1  0
 24  9  1  0
  1 25  1  0
  1 26  1  0
  1 27  1  0
  3 28  1  0
  3 29  1  0
  5 30  1  0
  7 31  1  0
  8 32  1  0
 12 33  1  6
 14 34  1  0
 15 35  1  0
 17 36  1  0
 18 37  1  0
 19 38  1  0
 20 39  1  6
 21 40  1  0
 21 41  1  0
 22 42  1  0
 22 43  1  0
 23 44  1  0
 23 45  1  0
 24 46  1  6
M  END
>  <meeko>  (7) 
{"is_sidechain": [false], "free_energy": -6.425, "intermolecular_energy": -8.17, "internal_energy": -0.503}

$$$$
2qe4_ligand
     RDKit          3D

 46 49  0  0  0  0  0  0  0  0999 V2000
   23.4220   13.0890   29.9700 C   0  0  0  0  0  0  0  0  0  0  0  0
   23.1220   13.3340   28.6030 O   0  0  0  0  0  0  0  0  0  0  0  0
   21.7940   12.9190   28.2770 C   0  0  0  0  0  0  0  0  0  0  0  0
   20.7540   13.8870   28.7950 C   0  0  0  0  0  0  0  0  0  0  0  0
   20.9130   15.2740   28.6740 C   0  0  0  0  0  0  0  0  0  0  0  0
   19.9500   16.1370   29.1780 C   0  0  0  0  0  0  0  0  0  0  0  0
   20.1530   17.4780   29.0270 O   0  0  0  0  0  0  0  0  0  0  0  0
   18.8140   15.6460   29.8110 C   0  0  0  0  0  0  0  0  0  0  0  0
   18.6340   14.2620   29.9590 C   0  0  0  0  0  0  0  0  0  0  0  0
   19.6120   13.3930   29.4560 C   0  0  0  0  0  0  0  0  0  0  0  0
   19.5190   12.0300   29.5700 O   0  0  0  0  0  0  0  0  0  0  0  0
   18.7230   11.5300   30.6560 C   0  0  1  0  0  0  0  0  0  0  0  0
   19.5580   11.3760   31.9230 C   0  0  0  0  0  0  0  0  0  0  0  0
   20.4900   12.3360   32.3460 C   0  0  0  0  0  0  0  0  0  0  0  0
   21.2270   12.1550   33.5200 C   0  0  0  0  0  0  0  0  0  0  0  0
   21.0440   11.0100   34.2820 C   0  0  0  0  0  0  0  0  0  0  0  0
   21.7840   10.8760   35.4190 O   0  0  0  0  0  0  0  0  0  0  0  0
   20.1350   10.0380   33.8890 C   0  0  0  0  0  0  0  0  0  0  0  0
   19.3980   10.2210   32.7150 C   0  0  0  0  0  0  0  0  0  0  0  0
   17.3440   12.2090   30.7430 C   0  0  1  0  0  0  0  0  0  0  0  0
   16.5320   11.9270   32.0190 C   0  0  0  0  0  0  0  0  0  0  0  0
   15.9870   13.2800   32.4630 C   0  0  0  0  0  0  0  0  0  0  0  0
   17.0280   14.2730   31.9700 C   0  0  0  0  0  0  0  0  0  0  0  0
   17.3770   13.7340   30.5810 C   0  0  1  0  0  0  0  0  0  0  0  0
   22.7266   13.6569   30.6055 H   0  0  0  0  0  0  0  0  0  0  0  0
   23.3177   12.0146   30.1814 H   0  0  0  0  0  0  0  0  0  0  0  0
   24.4539   13.4058   30.1814 H   0  0  0  0  0  0  0  0  0  0  0  0
   21.7019   12.8508   27.1830 H   0  0  0  0  0  0  0  0  0  0  0  0
   21.6167   11.9434   28.7532 H   0  0  0  0  0  0  0  0  0  0  0  0
   21.8059   15.6810   28.1769 H   0  0  0  0  0  0  0  0  0  0  0  0
   21.0600   17.6890   29.2980 H   0  0  0  0  0  0  0  0  0  0  0  0
   18.0552   16.3430   30.1964 H   0  0  0  0  0  0  0  0  0  0  0  0
   18.4127   10.4933   30.4585 H   0  0  0  0  0  0  0  0  0  0  0  0
   20.6429   13.2444   31.7449 H   0  0  0  0  0  0  0  0  0  0  0  0
   21.9509   12.9192   33.8392 H   0  0  0  0  0  0  0  0  0  0  0  0
   21.2050   11.0220   36.1850 H   0  0  0  0  0  0  0  0  0  0  0  0
   19.9954    9.1313   34.4959 H   0  0  0  0  0  0  0  0  0  0  0  0
   18.6794    9.4487   32.4034 H   0  0  0  0  0  0  0  0  0  0  0  0
   16.8439   11.7340   29.8861 H   0  0  0  0  0  0  0  0  0  0  0  0
   15.7069   11.2321   31.8038 H   0  0  0  0  0  0  0  0  0  0  0  0
   17.1493   11.4596   32.8003 H   0  0  0  0  0  0  0  0  0  0  0  0
   15.0080   13.4780   32.0021 H   0  0  0  0  0  0  0  0  0  0  0  0
   15.8273   13.3372   33.5498 H   0  0  0  0  0  0  0  0  0  0  0  0
   16.6093   15.2883   31.9076 H   0  0  0  0  0  0  0  0  0  0  0  0
   17.8991   14.3585   32.6362 H   0  0  0  0  0  0  0  0  0  0  0  0
   16.6473   14.0927   29.8401 H   0  0  0  0  0  0  0  0  0  0  0  0
  1  2  1  0
  2  3  1  0
  3  4  1  0
  4  5  2  0
  5  6  1  0
  6  7  1  0
  6  8  2  0
  8  9  1  0
  9 10  2  0
 10 11  1  0
 11 12  1  0
 12 13  1  0
 13 14  2  0
 14 15  1  0
 15 16  2  0
 16 17  1  0
 16 18  1  0
 18 19  2  0
 12 20  1  0
 20 21  1  0
 21 22  1  0
 22 23  1  0
 23 24  1  0
 10  4  1  0
 19 13  1  0
 24 20  1  0
 24  9  1  0
  1 25  1  0
  1 26  1  0
  1 27  1  0
  3 28  1  0
  3 29  1  0
  5 30  1  0
  7 31  1  0
  8 32  1  0
 12 33  1  6
 14 34  1  0
 15 35  1  0
 17 36  1  0
 18 37  1  0
 19 38  1  0
 20 39  1  6
 21 40  1  0
 21 41  1  0
 22 42  1  0
 22 43  1  0
 23 44  1  0
 23 45  1  0
 24 46  1  6
M  END
>  <meeko>  (8) 
{"is_sidechain": [false], "free_energy": -5.749, "intermolecular_energy": -7.123, "internal_energy": -0.716}

$$$$
2qe4_ligand
     RDKit          3D

 46 49  0  0  0  0  0  0  0  0999 V2000
   17.1060   14.4460   33.2120 C   0  0  0  0  0  0  0  0  0  0  0  0
   16.5980   13.7320   32.0940 O   0  0  0  0  0  0  0  0  0  0  0  0
   16.4200   12.3460   32.3970 C   0  0  0  0  0  0  0  0  0  0  0  0
   17.7390   11.6100   32.4810 C   0  0  0  0  0  0  0  0  0  0  0  0
   18.2090   11.0750   33.6880 C   0  0  0  0  0  0  0  0  0  0  0  0
   19.4340   10.4230   33.7360 C   0  0  0  0  0  0  0  0  0  0  0  0
   19.8400    9.9170   34.9360 O   0  0  0  0  0  0  0  0  0  0  0  0
   20.2150   10.2880   32.5940 C   0  0  0  0  0  0  0  0  0  0  0  0
   19.7760   10.8260   31.3740 C   0  0  0  0  0  0  0  0  0  0  0  0
   18.5420   11.4920   31.3300 C   0  0  0  0  0  0  0  0  0  0  0  0
   18.0480   12.0560   30.1830 O   0  0  0  0  0  0  0  0  0  0  0  0
   19.0100   12.4360   29.1870 C   0  0  1  0  0  0  0  0  0  0  0  0
   19.5140   13.8570   29.4280 C   0  0  0  0  0  0  0  0  0  0  0  0
   19.2810   14.9130   28.5360 C   0  0  0  0  0  0  0  0  0  0  0  0
   19.7550   16.2000   28.8040 C   0  0  0  0  0  0  0  0  0  0  0  0
   20.4730   16.4450   29.9650 C   0  0  0  0  0  0  0  0  0  0  0  0
   20.9160   17.7150   30.1860 O   0  0  0  0  0  0  0  0  0  0  0  0
   20.7280   15.4210   30.8670 C   0  0  0  0  0  0  0  0  0  0  0  0
   20.2520   14.1340   30.5970 C   0  0  0  0  0  0  0  0  0  0  0  0
   20.0270   11.3200   28.8870 C   0  0  1  0  0  0  0  0  0  0  0  0
   21.2420   11.7250   28.0340 C   0  0  0  0  0  0  0  0  0  0  0  0
   22.4510   11.1090   28.7270 C   0  0  0  0  0  0  0  0  0  0  0  0
   22.0500   11.0680   30.1940 C   0  0  0  0  0  0  0  0  0  0  0  0
   20.5880   10.6220   30.1320 C   0  0  1  0  0  0  0  0  0  0  0  0
   16.7639   13.9652   34.1404 H   0  0  0  0  0  0  0  0  0  0  0  0
   18.2055   14.4422   33.1807 H   0  0  0  0  0  0  0  0  0  0  0  0
   16.7419   15.4835   33.1807 H   0  0  0  0  0  0  0  0  0  0  0  0
   15.9018   12.2575   33.3633 H   0  0  0  0  0  0  0  0  0  0  0  0
   15.8300   11.8941   31.5860 H   0  0  0  0  0  0  0  0  0  0  0  0
   17.6045   11.1721   34.6019 H   0  0  0  0  0  0  0  0  0  0  0  0
   19.3860   10.3950   35.6470 H   0  0  0  0  0  0  0  0  0  0  0  0
   21.1780    9.7590   32.6464 H   0  0  0  0  0  0  0  0  0  0  0  0
   18.5287   12.5244   28.2018 H   0  0  0  0  0  0  0  0  0  0  0  0
   18.7163   14.7257   27.6108 H   0  0  0  0  0  0  0  0  0  0  0  0
   19.5589   17.0178   28.0949 H   0  0  0  0  0  0  0  0  0  0  0  0
   21.8710   17.7440   30.0150 H   0  0  0  0  0  0  0  0  0  0  0  0
   21.2992   15.6201   31.7857 H   0  0  0  0  0  0  0  0  0  0  0  0
   20.4573   13.3222   31.3104 H   0  0  0  0  0  0  0  0  0  0  0  0
   19.3916   10.6354   28.3060 H   0  0  0  0  0  0  0  0  0  0  0  0
   21.1426   11.3305   27.0120 H   0  0  0  0  0  0  0  0  0  0  0  0
   21.3340   12.8178   27.9487 H   0  0  0  0  0  0  0  0  0  0  0  0
   22.6463   10.0957   28.3461 H   0  0  0  0  0  0  0  0  0  0  0  0
   23.3752   11.6804   28.5555 H   0  0  0  0  0  0  0  0  0  0  0  0
   22.6620   10.3442   30.7522 H   0  0  0  0  0  0  0  0  0  0  0  0
   22.1913   12.0283   30.7116 H   0  0  0  0  0  0  0  0  0  0  0  0
   20.5287    9.5260   30.0601 H   0  0  0  0  0  0  0  0  0  0  0  0
  1  2  1  0
  2  3  1  0
  3  4  1  0
  4  5  2  0
  5  6  1  0
  6  7  1  0
  6  8  2  0
  8  9  1  0
  9 10  2  0
 10 11  1  0
 11 12  1  0
 12 13  1  0
 13 14  2  0
 14 15  1  0
 15 16  2  0
 16 17  1  0
 16 18  1  0
 18 19  2  0
 12 20  1  0
 20 21  1  0
 21 22  1  0
 22 23  1  0
 23 24  1  0
 10  4  1  0
 19 13  1  0
 24 20  1  0
 24  9  1  0
  1 25  1  0
  1 26  1  0
  1 27  1  0
  3 28  1  0
  3 29  1  0
  5 30  1  0
  7 31  1  0
  8 32  1  0
 12 33  1  6
 14 34  1  0
 15 35  1  0
 17 36  1  0
 18 37  1  0
 19 38  1  0
 20 39  1  6
 21 40  1  0
 21 41  1  0
 22 42  1  0
 22 43  1  0
 23 44  1  0
 23 45  1  0
 24 46  1  6
M  END
>  <meeko>  (9) 
{"is_sidechain": [false], "free_energy": -5.656, "intermolecular_energy": -7.149, "internal_energy": -0.575}

$$$$
