4hge_ligand
     RDKit          3D

 38 41  0  0  0  0  0  0  0  0999 V2000
   53.3670    9.3310    6.7600 C   0  0  0  0  0  0  0  0  0  0  0  0
   54.6140    9.3500    5.9600 C   0  0  0  0  0  0  0  0  0  0  0  0
   55.9200    9.6420    6.3980 C   0  0  0  0  0  0  0  0  0  0  0  0
   56.7120    9.6040    5.2690 C   0  0  0  0  0  0  0  0  0  0  0  0
   58.0350    9.9960    5.0810 N   0  0  0  0  0  0  0  0  0  0  0  0
   58.7540   10.7390    6.0090 C   0  0  0  0  0  0  0  0  0  0  0  0
   58.3380   11.0830    7.1090 O   0  0  0  0  0  0  0  0  0  0  0  0
   60.0950   11.0740    5.5540 C   0  0  0  0  0  0  0  0  0  0  0  0
   61.0830   11.8670    6.1780 C   0  0  0  0  0  0  0  0  0  0  0  0
   62.2080   11.9700    5.4740 N   0  0  0  0  0  0  0  0  0  0  0  0
   61.9600   11.2630    4.3460 N   0  0  0  0  0  0  0  0  0  0  0  0
   62.8150   11.0710    3.2640 C   0  0  0  0  0  0  0  0  0  0  0  0
   62.4290   10.3290    2.2170 C   0  0  0  0  0  0  0  0  0  0  0  0
   61.0620    9.7500    2.3290 C   0  0  0  0  0  0  0  0  0  0  0  0
   60.2430    9.9050    3.3240 N   0  0  0  0  0  0  0  0  0  0  0  0
   60.6840   10.6880    4.3600 C   0  0  0  0  0  0  0  0  0  0  0  0
   55.8780    9.1220    4.2540 N   0  0  0  0  0  0  0  0  0  0  0  0
   56.2120    8.6540    2.9490 C   0  0  0  0  0  0  0  0  0  0  0  0
   56.4850    9.5890    1.9360 C   0  0  0  0  0  0  0  0  0  0  0  0
   56.8190    9.1610    0.6480 C   0  0  0  0  0  0  0  0  0  0  0  0
   56.8660    7.7990    0.3570 C   0  0  0  0  0  0  0  0  0  0  0  0
   56.5620    6.8710    1.3500 C   0  0  0  0  0  0  0  0  0  0  0  0
   56.5850    5.1900    0.9840 Cl  0  0  0  0  0  0  0  0  0  0  0  0
   56.2250    7.2880    2.6400 C   0  0  0  0  0  0  0  0  0  0  0  0
   54.5770    9.1110    4.6480 N   0  0  0  0  0  0  0  0  0  0  0  0
   53.6183    9.3348    7.8309 H   0  0  0  0  0  0  0  0  0  0  0  0
   52.7648   10.2201    6.5215 H   0  0  0  0  0  0  0  0  0  0  0  0
   52.7921    8.4240    6.5215 H   0  0  0  0  0  0  0  0  0  0  0  0
   56.2422    9.8562    7.4277 H   0  0  0  0  0  0  0  0  0  0  0  0
   58.4350    9.8700    4.1610 H   0  0  0  0  0  0  0  0  0  0  0  0
   60.9367   12.3536    7.1536 H   0  0  0  0  0  0  0  0  0  0  0  0
   63.8140   11.5315    3.2686 H   0  0  0  0  0  0  0  0  0  0  0  0
   63.0732   10.1605    1.3414 H   0  0  0  0  0  0  0  0  0  0  0  0
   60.7128    9.1321    1.4886 H   0  0  0  0  0  0  0  0  0  0  0  0
   56.4355   10.6652    2.1583 H   0  0  0  0  0  0  0  0  0  0  0  0
   57.0447    9.8991   -0.1357 H   0  0  0  0  0  0  0  0  0  0  0  0
   57.1418    7.4585   -0.6520 H   0  0  0  0  0  0  0  0  0  0  0  0
   55.9706    6.5457    3.4108 H   0  0  0  0  0  0  0  0  0  0  0  0
  1  2  1  0
  2  3  1  0
  3  4  2  0
  4  5  1  0
  5  6  1  0
  6  7  2  0
  6  8  1  0
  8  9  1  0
  9 10  2  0
 10 11  1  0
 11 12  1  0
 12 13  2  0
 13 14  1  0
 14 15  2  0
 15 16  1  0
  4 17  1  0
 17 18  1  0
 18 19  2  0
 19 20  1  0
 20 21  2  0
 21 22  1  0
 22 23  1  0
 22 24  2  0
 17 25  1  0
 25  2  2  0
 16  8  2  0
 24 18  1  0
 16 11  1  0
  1 26  1  0
  1 27  1  0
  1 28  1  0
  3 29  1  0
  5 30  1  0
  9 31  1  0
 12 32  1  0
 13 33  1  0
 14 34  1  0
 19 35  1  0
 20 36  1  0
 21 37  1  0
 24 38  1  0
M  END
>  <meeko>  (1) 
{"is_sidechain": [false], "free_energy": -9.275, "intermolecular_energy": -10.902, "internal_energy": -0.564}

$$$$
4hge_ligand
     RDKit          3D

 38 41  0  0  0  0  0  0  0  0999 V2000
   56.9000   11.3790    9.5230 C   0  0  0  0  0  0  0  0  0  0  0  0
   57.2460   11.1160    8.1060 C   0  0  0  0  0  0  0  0  0  0  0  0
   56.3700   10.8650    7.0330 C   0  0  0  0  0  0  0  0  0  0  0  0
   57.1760   10.6050    5.9440 C   0  0  0  0  0  0  0  0  0  0  0  0
   56.8550   10.1150    4.6800 N   0  0  0  0  0  0  0  0  0  0  0  0
   56.9780    8.7780    4.3220 C   0  0  0  0  0  0  0  0  0  0  0  0
   57.3200    7.8770    5.0790 O   0  0  0  0  0  0  0  0  0  0  0  0
   56.6410    8.5280    2.9290 C   0  0  0  0  0  0  0  0  0  0  0  0
   57.4820    8.4870    1.7950 C   0  0  0  0  0  0  0  0  0  0  0  0
   56.8350    8.2330    0.6600 N   0  0  0  0  0  0  0  0  0  0  0  0
   55.5370    8.1360    1.0310 N   0  0  0  0  0  0  0  0  0  0  0  0
   54.4380    7.8970    0.2100 C   0  0  0  0  0  0  0  0  0  0  0  0
   53.2070    7.8150    0.7310 C   0  0  0  0  0  0  0  0  0  0  0  0
   53.1380    7.9860    2.2080 C   0  0  0  0  0  0  0  0  0  0  0  0
   54.1410    8.2060    3.0020 N   0  0  0  0  0  0  0  0  0  0  0  0
   55.3750    8.2980    2.4130 C   0  0  0  0  0  0  0  0  0  0  0  0
   58.4760   10.8870    6.3760 N   0  0  0  0  0  0  0  0  0  0  0  0
   59.6760   11.0300    5.6170 C   0  0  0  0  0  0  0  0  0  0  0  0
   60.6030   12.0200    5.9850 C   0  0  0  0  0  0  0  0  0  0  0  0
   61.7890   12.1810    5.2640 C   0  0  0  0  0  0  0  0  0  0  0  0
   62.0500   11.3710    4.1600 C   0  0  0  0  0  0  0  0  0  0  0  0
   61.1160   10.4130    3.7730 C   0  0  0  0  0  0  0  0  0  0  0  0
   61.4180    9.4340    2.3910 Cl  0  0  0  0  0  0  0  0  0  0  0  0
   59.9260   10.2440    4.4860 C   0  0  0  0  0  0  0  0  0  0  0  0
   58.5230   11.0530    7.7240 N   0  0  0  0  0  0  0  0  0  0  0  0
   57.6038   10.8441   10.1776 H   0  0  0  0  0  0  0  0  0  0  0  0
   56.9632   12.4591    9.7215 H   0  0  0  0  0  0  0  0  0  0  0  0
   55.8762   11.0290    9.7215 H   0  0  0  0  0  0  0  0  0  0  0  0
   55.2703   10.8743    7.0578 H   0  0  0  0  0  0  0  0  0  0  0  0
   56.6800   10.7880    3.9470 H   0  0  0  0  0  0  0  0  0  0  0  0
   58.5688    8.6496    1.8452 H   0  0  0  0  0  0  0  0  0  0  0  0
   54.5819    7.7747   -0.8737 H   0  0  0  0  0  0  0  0  0  0  0  0
   52.3143    7.6349    0.1140 H   0  0  0  0  0  0  0  0  0  0  0  0
   52.1423    7.9196    2.6707 H   0  0  0  0  0  0  0  0  0  0  0  0
   60.3937   12.6721    6.8458 H   0  0  0  0  0  0  0  0  0  0  0  0
   62.5172   12.9474    5.5678 H   0  0  0  0  0  0  0  0  0  0  0  0
   62.9882   11.4877    3.5977 H   0  0  0  0  0  0  0  0  0  0  0  0
   59.1884    9.4960    4.1596 H   0  0  0  0  0  0  0  0  0  0  0  0
  1  2  1  0
  2  3  1  0
  3  4  2  0
  4  5  1  0
  5  6  1  0
  6  7  2  0
  6  8  1  0
  8  9  1  0
  9 10  2  0
 10 11  1  0
 11 12  1  0
 12 13  2  0
 13 14  1  0
 14 15  2  0
 15 16  1  0
  4 17  1  0
 17 18  1  0
 18 19  2  0
 19 20  1  0
 20 21  2  0
 21 22  1  0
 22 23  1  0
 22 24  2  0
 17 25  1  0
 25  2  2  0
 16  8  2  0
 24 18  1  0
 16 11  1  0
  1 26  1  0
  1 27  1  0
  1 28  1  0
  3 29  1  0
  5 30  1  0
  9 31  1  0
 12 32  1  0
 13 33  1  0
 14 34  1  0
 19 35  1  0
 20 36  1  0
 21 37  1  0
 24 38  1  0
M  END
>  <meeko>  (2) 
{"is_sidechain": [false], "free_energy": -9.233, "intermolecular_energy": -10.898, "internal_energy": -0.517}

$$$$
4hge_ligand
     RDKit          3D

 38 41  0  0  0  0  0  0  0  0999 V2000
   56.1770   11.4940    9.7430 C   0  0  0  0  0  0  0  0  0  0  0  0
   56.3110   11.0750    8.3270 C   0  0  0  0  0  0  0  0  0  0  0  0
   55.2890   10.9000    7.3750 C   0  0  0  0  0  0  0  0  0  0  0  0
   55.9130   10.4300    6.2370 C   0  0  0  0  0  0  0  0  0  0  0  0
   55.3750    9.9110    5.0620 N   0  0  0  0  0  0  0  0  0  0  0  0
   54.3190    9.0080    5.0340 C   0  0  0  0  0  0  0  0  0  0  0  0
   53.7070    8.6130    6.0190 O   0  0  0  0  0  0  0  0  0  0  0  0
   53.9820    8.5690    3.6880 C   0  0  0  0  0  0  0  0  0  0  0  0
   52.7550    8.6620    2.9950 C   0  0  0  0  0  0  0  0  0  0  0  0
   52.7960    8.1500    1.7670 N   0  0  0  0  0  0  0  0  0  0  0  0
   54.0590    7.6770    1.6460 N   0  0  0  0  0  0  0  0  0  0  0  0
   54.6160    7.0250    0.5500 C   0  0  0  0  0  0  0  0  0  0  0  0
   55.8940    6.6250    0.5750 C   0  0  0  0  0  0  0  0  0  0  0  0
   56.6260    6.9430    1.8310 C   0  0  0  0  0  0  0  0  0  0  0  0
   56.1390    7.5530    2.8690 N   0  0  0  0  0  0  0  0  0  0  0  0
   54.8220    7.9240    2.7940 C   0  0  0  0  0  0  0  0  0  0  0  0
   57.2830   10.5180    6.5090 N   0  0  0  0  0  0  0  0  0  0  0  0
   58.3950   10.4010    5.6230 C   0  0  0  0  0  0  0  0  0  0  0  0
   58.2920    9.5560    4.5060 C   0  0  0  0  0  0  0  0  0  0  0  0
   59.3630    9.4240    3.6170 C   0  0  0  0  0  0  0  0  0  0  0  0
   60.5490   10.1180    3.8470 C   0  0  0  0  0  0  0  0  0  0  0  0
   60.6650   10.9290    4.9740 C   0  0  0  0  0  0  0  0  0  0  0  0
   62.1400   11.7610    5.2800 Cl  0  0  0  0  0  0  0  0  0  0  0  0
   59.6010   11.0680    5.8690 C   0  0  0  0  0  0  0  0  0  0  0  0
   57.5090   10.7700    7.8250 N   0  0  0  0  0  0  0  0  0  0  0  0
   56.4456   10.6543   10.4008 H   0  0  0  0  0  0  0  0  0  0  0  0
   56.8485   12.3429    9.9393 H   0  0  0  0  0  0  0  0  0  0  0  0
   55.1376   11.7957    9.9393 H   0  0  0  0  0  0  0  0  0  0  0  0
   54.2152   11.0970    7.5100 H   0  0  0  0  0  0  0  0  0  0  0  0
   55.8810   10.0760    4.2020 H   0  0  0  0  0  0  0  0  0  0  0  0
   51.8512    9.1146    3.4289 H   0  0  0  0  0  0  0  0  0  0  0  0
   54.0023    6.8368   -0.3433 H   0  0  0  0  0  0  0  0  0  0  0  0
   56.3667    6.1011   -0.2689 H   0  0  0  0  0  0  0  0  0  0  0  0
   57.6797    6.6318    1.8854 H   0  0  0  0  0  0  0  0  0  0  0  0
   57.3628    8.9944    4.3294 H   0  0  0  0  0  0  0  0  0  0  0  0
   59.2692    8.7722    2.7359 H   0  0  0  0  0  0  0  0  0  0  0  0
   61.3891   10.0262    3.1428 H   0  0  0  0  0  0  0  0  0  0  0  0
   59.7106   11.6990    6.7633 H   0  0  0  0  0  0  0  0  0  0  0  0
  1  2  1  0
  2  3  1  0
  3  4  2  0
  4  5  1  0
  5  6  1  0
  6  7  2  0
  6  8  1  0
  8  9  1  0
  9 10  2  0
 10 11  1  0
 11 12  1  0
 12 13  2  0
 13 14  1  0
 14 15  2  0
 15 16  1  0
  4 17  1  0
 17 18  1  0
 18 19  2  0
 19 20  1  0
 20 21  2  0
 21 22  1  0
 22 23  1  0
 22 24  2  0
 17 25  1  0
 25  2  2  0
 16  8  2  0
 24 18  1  0
 16 11  1  0
  1 26  1  0
  1 27  1  0
  1 28  1  0
  3 29  1  0
  5 30  1  0
  9 31  1  0
 12 32  1  0
 13 33  1  0
 14 34  1  0
 19 35  1  0
 20 36  1  0
 21 37  1  0
 24 38  1  0
M  END
>  <meeko>  (3) 
{"is_sidechain": [false], "free_energy": -9.005, "intermolecular_energy": -10.702, "internal_energy": -0.445}

$$$$
4hge_ligand
     RDKit          3D

 38 41  0  0  0  0  0  0  0  0999 V2000
   54.9330   11.3480    9.6270 C   0  0  0  0  0  0  0  0  0  0  0  0
   55.7550   10.9720    8.4520 C   0  0  0  0  0  0  0  0  0  0  0  0
   57.1430   11.1310    8.2790 C   0  0  0  0  0  0  0  0  0  0  0  0
   57.4130   10.7020    6.9960 C   0  0  0  0  0  0  0  0  0  0  0  0
   58.5740   10.8100    6.2340 N   0  0  0  0  0  0  0  0  0  0  0  0
   59.7330   11.4290    6.6850 C   0  0  0  0  0  0  0  0  0  0  0  0
   59.8910   11.8930    7.8080 O   0  0  0  0  0  0  0  0  0  0  0  0
   60.7860   11.4680    5.6800 C   0  0  0  0  0  0  0  0  0  0  0  0
   61.9960   12.1960    5.6760 C   0  0  0  0  0  0  0  0  0  0  0  0
   62.7330   11.9990    4.5850 N   0  0  0  0  0  0  0  0  0  0  0  0
   61.9930   11.1510    3.8320 N   0  0  0  0  0  0  0  0  0  0  0  0
   62.3070   10.6420    2.5750 C   0  0  0  0  0  0  0  0  0  0  0  0
   61.4730    9.7960    1.9560 C   0  0  0  0  0  0  0  0  0  0  0  0
   60.2390    9.4630    2.7190 C   0  0  0  0  0  0  0  0  0  0  0  0
   59.9170    9.9160    3.8930 N   0  0  0  0  0  0  0  0  0  0  0  0
   60.8000   10.7910    4.4710 C   0  0  0  0  0  0  0  0  0  0  0  0
   56.2140   10.1480    6.5360 N   0  0  0  0  0  0  0  0  0  0  0  0
   55.9670    9.3430    5.3840 C   0  0  0  0  0  0  0  0  0  0  0  0
   57.0070    8.5530    4.8660 C   0  0  0  0  0  0  0  0  0  0  0  0
   56.7940    7.7510    3.7420 C   0  0  0  0  0  0  0  0  0  0  0  0
   55.5500    7.7450    3.1160 C   0  0  0  0  0  0  0  0  0  0  0  0
   54.5280    8.5540    3.6060 C   0  0  0  0  0  0  0  0  0  0  0  0
   53.0000    8.5750    2.8140 Cl  0  0  0  0  0  0  0  0  0  0  0  0
   54.7290    9.3610    4.7290 C   0  0  0  0  0  0  0  0  0  0  0  0
   55.1810   10.4480    7.3670 N   0  0  0  0  0  0  0  0  0  0  0  0
   55.4772   11.0991   10.5500 H   0  0  0  0  0  0  0  0  0  0  0  0
   54.7295   12.4287    9.6014 H   0  0  0  0  0  0  0  0  0  0  0  0
   53.9823   10.7952    9.6014 H   0  0  0  0  0  0  0  0  0  0  0  0
   57.8635   11.5175    9.0149 H   0  0  0  0  0  0  0  0  0  0  0  0
   58.5150   10.5700    5.2530 H   0  0  0  0  0  0  0  0  0  0  0  0
   62.3006   12.8625    6.4964 H   0  0  0  0  0  0  0  0  0  0  0  0
   63.2473   10.9368    2.0862 H   0  0  0  0  0  0  0  0  0  0  0  0
   61.6839    9.3793    0.9601 H   0  0  0  0  0  0  0  0  0  0  0  0
   59.5325    8.7670    2.2433 H   0  0  0  0  0  0  0  0  0  0  0  0
   57.9954    8.5660    5.3486 H   0  0  0  0  0  0  0  0  0  0  0  0
   57.6091    7.1241    3.3514 H   0  0  0  0  0  0  0  0  0  0  0  0
   55.3756    7.1044    2.2389 H   0  0  0  0  0  0  0  0  0  0  0  0
   53.9186   10.0075    5.0970 H   0  0  0  0  0  0  0  0  0  0  0  0
  1  2  1  0
  2  3  1  0
  3  4  2  0
  4  5  1  0
  5  6  1  0
  6  7  2  0
  6  8  1  0
  8  9  1  0
  9 10  2  0
 10 11  1  0
 11 12  1  0
 12 13  2  0
 13 14  1  0
 14 15  2  0
 15 16  1  0
  4 17  1  0
 17 18  1  0
 18 19  2  0
 19 20  1  0
 20 21  2  0
 21 22  1  0
 22 23  1  0
 22 24  2  0
 17 25  1  0
 25  2  2  0
 16  8  2  0
 24 18  1  0
 16 11  1  0
  1 26  1  0
  1 27  1  0
  1 28  1  0
  3 29  1  0
  5 30  1  0
  9 31  1  0
 12 32  1  0
 13 33  1  0
 14 34  1  0
 19 35  1  0
 20 36  1  0
 21 37  1  0
 24 38  1  0
M  END
>  <meeko>  (4) 
{"is_sidechain": [false], "free_energy": -8.901, "intermolecular_energy": -10.793, "internal_energy": -0.232}

$$$$
4hge_ligand
     RDKit          3D

 38 41  0  0  0  0  0  0  0  0999 V2000
   52.4150    9.4810    5.5890 C   0  0  0  0  0  0  0  0  0  0  0  0
   53.6560    9.2800    4.8030 C   0  0  0  0  0  0  0  0  0  0  0  0
   54.9630    9.6860    5.1310 C   0  0  0  0  0  0  0  0  0  0  0  0
   55.7460    9.3370    4.0500 C   0  0  0  0  0  0  0  0  0  0  0  0
   57.0660    9.6640    3.7490 N   0  0  0  0  0  0  0  0  0  0  0  0
   58.1620    8.9690    4.2460 C   0  0  0  0  0  0  0  0  0  0  0  0
   58.0980    7.9680    4.9490 O   0  0  0  0  0  0  0  0  0  0  0  0
   59.4340    9.5440    3.8360 C   0  0  0  0  0  0  0  0  0  0  0  0
   60.1760    9.3280    2.6530 C   0  0  0  0  0  0  0  0  0  0  0  0
   61.3120   10.0200    2.6030 N   0  0  0  0  0  0  0  0  0  0  0  0
   61.3490   10.6840    3.7820 N   0  0  0  0  0  0  0  0  0  0  0  0
   62.3480   11.5400    4.2390 C   0  0  0  0  0  0  0  0  0  0  0  0
   62.2360   12.1390    5.4320 C   0  0  0  0  0  0  0  0  0  0  0  0
   60.9890   11.8180    6.1790 C   0  0  0  0  0  0  0  0  0  0  0  0
   60.0380   11.0290    5.7820 N   0  0  0  0  0  0  0  0  0  0  0  0
   60.2140   10.4310    4.5610 C   0  0  0  0  0  0  0  0  0  0  0  0
   54.9070    8.5880    3.2180 N   0  0  0  0  0  0  0  0  0  0  0  0
   55.2330    7.7750    2.0920 C   0  0  0  0  0  0  0  0  0  0  0  0
   54.7560    8.1420    0.8220 C   0  0  0  0  0  0  0  0  0  0  0  0
   55.0620    7.3680   -0.3000 C   0  0  0  0  0  0  0  0  0  0  0  0
   55.8300    6.2140   -0.1620 C   0  0  0  0  0  0  0  0  0  0  0  0
   56.2750    5.8290    1.1000 C   0  0  0  0  0  0  0  0  0  0  0  0
   57.1950    4.3860    1.2790 Cl  0  0  0  0  0  0  0  0  0  0  0  0
   55.9740    6.5950    2.2300 C   0  0  0  0  0  0  0  0  0  0  0  0
   53.6100    8.6840    3.6110 N   0  0  0  0  0  0  0  0  0  0  0  0
   52.6508    9.4428    6.6627 H   0  0  0  0  0  0  0  0  0  0  0  0
   51.9803   10.4613    5.3437 H   0  0  0  0  0  0  0  0  0  0  0  0
   51.6931    8.6881    5.3437 H   0  0  0  0  0  0  0  0  0  0  0  0
   55.2921   10.1794    6.0574 H   0  0  0  0  0  0  0  0  0  0  0  0
   57.2350   10.5430    3.2780 H   0  0  0  0  0  0  0  0  0  0  0  0
   59.8463    8.6524    1.8500 H   0  0  0  0  0  0  0  0  0  0  0  0
   63.2353   11.7256    3.6159 H   0  0  0  0  0  0  0  0  0  0  0  0
   63.0065   12.8162    5.8292 H   0  0  0  0  0  0  0  0  0  0  0  0
   60.8613   12.2953    7.1618 H   0  0  0  0  0  0  0  0  0  0  0  0
   54.1375    9.0448    0.7107 H   0  0  0  0  0  0  0  0  0  0  0  0
   54.6964    7.6698   -1.2926 H   0  0  0  0  0  0  0  0  0  0  0  0
   56.0836    5.6099   -1.0456 H   0  0  0  0  0  0  0  0  0  0  0  0
   56.3179    6.2720    3.2237 H   0  0  0  0  0  0  0  0  0  0  0  0
  1  2  1  0
  2  3  1  0
  3  4  2  0
  4  5  1  0
  5  6  1  0
  6  7  2  0
  6  8  1  0
  8  9  1  0
  9 10  2  0
 10 11  1  0
 11 12  1  0
 12 13  2  0
 13 14  1  0
 14 15  2  0
 15 16  1  0
  4 17  1  0
 17 18  1  0
 18 19  2  0
 19 20  1  0
 20 21  2  0
 21 22  1  0
 22 23  1  0
 22 24  2  0
 17 25  1  0
 25  2  2  0
 16  8  2  0
 24 18  1  0
 16 11  1  0
  1 26  1  0
  1 27  1  0
  1 28  1  0
  3 29  1  0
  5 30  1  0
  9 31  1  0
 12 32  1  0
 13 33  1  0
 14 34  1  0
 19 35  1  0
 20 36  1  0
 21 37  1  0
 24 38  1  0
M  END
>  <meeko>  (5) 
{"is_sidechain": [false], "free_energy": -8.859, "intermolecular_energy": -10.019, "internal_energy": -0.957}

$$$$
4hge_ligand
     RDKit          3D

 38 41  0  0  0  0  0  0  0  0999 V2000
   63.0050   10.5690    2.2970 C   0  0  0  0  0  0  0  0  0  0  0  0
   61.6270   10.2080    2.7070 C   0  0  0  0  0  0  0  0  0  0  0  0
   60.7380    9.3210    2.0720 C   0  0  0  0  0  0  0  0  0  0  0  0
   59.5630    9.3870    2.7910 C   0  0  0  0  0  0  0  0  0  0  0  0
   58.3000    8.8720    2.5080 N   0  0  0  0  0  0  0  0  0  0  0  0
   57.5060    9.3220    1.4600 C   0  0  0  0  0  0  0  0  0  0  0  0
   57.8380   10.1700    0.6400 O   0  0  0  0  0  0  0  0  0  0  0  0
   56.2060    8.6700    1.4110 C   0  0  0  0  0  0  0  0  0  0  0  0
   55.6950    7.7590    0.4600 C   0  0  0  0  0  0  0  0  0  0  0  0
   54.4530    7.3560    0.7210 N   0  0  0  0  0  0  0  0  0  0  0  0
   54.1140    8.0310    1.8440 N   0  0  0  0  0  0  0  0  0  0  0  0
   52.9010    7.9830    2.5260 C   0  0  0  0  0  0  0  0  0  0  0  0
   52.7190    8.7040    3.6400 C   0  0  0  0  0  0  0  0  0  0  0  0
   53.8930    9.5170    4.0600 C   0  0  0  0  0  0  0  0  0  0  0  0
   55.0370    9.5820    3.4510 N   0  0  0  0  0  0  0  0  0  0  0  0
   55.1620    8.8370    2.3070 C   0  0  0  0  0  0  0  0  0  0  0  0
   59.8650   10.1670    3.9130 N   0  0  0  0  0  0  0  0  0  0  0  0
   59.1150   10.3680    5.1100 C   0  0  0  0  0  0  0  0  0  0  0  0
   57.8190    9.8340    5.2020 C   0  0  0  0  0  0  0  0  0  0  0  0
   57.0610   10.0100    6.3620 C   0  0  0  0  0  0  0  0  0  0  0  0
   57.5830   10.7370    7.4310 C   0  0  0  0  0  0  0  0  0  0  0  0
   58.8530   11.2970    7.3280 C   0  0  0  0  0  0  0  0  0  0  0  0
   59.4870   12.2240    8.6330 Cl  0  0  0  0  0  0  0  0  0  0  0  0
   59.6190   11.1280    6.1720 C   0  0  0  0  0  0  0  0  0  0  0  0
   61.0720   10.7780    3.7780 N   0  0  0  0  0  0  0  0  0  0  0  0
   63.6233   10.7310    3.1922 H   0  0  0  0  0  0  0  0  0  0  0  0
   63.4347    9.7531    1.6973 H   0  0  0  0  0  0  0  0  0  0  0  0
   62.9795   11.4908    1.6973 H   0  0  0  0  0  0  0  0  0  0  0  0
   60.9389    8.7024    1.1849 H   0  0  0  0  0  0  0  0  0  0  0  0
   57.8810    8.2570    3.1910 H   0  0  0  0  0  0  0  0  0  0  0  0
   56.2687    7.4151   -0.4133 H   0  0  0  0  0  0  0  0  0  0  0  0
   52.0863    7.3484    2.1471 H   0  0  0  0  0  0  0  0  0  0  0  0
   51.7734    8.6959    4.2020 H   0  0  0  0  0  0  0  0  0  0  0  0
   53.7801   10.1198    4.9732 H   0  0  0  0  0  0  0  0  0  0  0  0
   57.3980    9.2732    4.3545 H   0  0  0  0  0  0  0  0  0  0  0  0
   56.0530    9.5753    6.4320 H   0  0  0  0  0  0  0  0  0  0  0  0
   56.9942   10.8673    8.3510 H   0  0  0  0  0  0  0  0  0  0  0  0
   60.6143   11.5903    6.0966 H   0  0  0  0  0  0  0  0  0  0  0  0
  1  2  1  0
  2  3  1  0
  3  4  2  0
  4  5  1  0
  5  6  1  0
  6  7  2  0
  6  8  1  0
  8  9  1  0
  9 10  2  0
 10 11  1  0
 11 12  1  0
 12 13  2  0
 13 14  1  0
 14 15  2  0
 15 16  1  0
  4 17  1  0
 17 18  1  0
 18 19  2  0
 19 20  1  0
 20 21  2  0
 21 22  1  0
 22 23  1  0
 22 24  2  0
 17 25  1  0
 25  2  2  0
 16  8  2  0
 24 18  1  0
 16 11  1  0
  1 26  1  0
  1 27  1  0
  1 28  1  0
  3 29  1  0
  5 30  1  0
  9 31  1  0
 12 32  1  0
 13 33  1  0
 14 34  1  0
 19 35  1  0
 20 36  1  0
 21 37  1  0
 24 38  1  0
M  END
>  <meeko>  (6) 
{"is_sidechain": [false], "free_energy": -8.752, "intermolecular_energy": -10.413, "internal_energy": -0.438}

$$$$
4hge_ligand
     RDKit          3D

 38 41  0  0  0  0  0  0  0  0999 V2000
   57.1780   11.1700    8.4870 C   0  0  0  0  0  0  0  0  0  0  0  0
   57.1860   10.7230    7.0740 C   0  0  0  0  0  0  0  0  0  0  0  0
   56.0850   10.5600    6.2110 C   0  0  0  0  0  0  0  0  0  0  0  0
   56.6010   10.0540    5.0360 C   0  0  0  0  0  0  0  0  0  0  0  0
   55.9560    9.5310    3.9180 N   0  0  0  0  0  0  0  0  0  0  0  0
   54.8020    8.7610    3.9890 C   0  0  0  0  0  0  0  0  0  0  0  0
   54.1910    8.5040    5.0200 O   0  0  0  0  0  0  0  0  0  0  0  0
   54.3580    8.2800    2.6890 C   0  0  0  0  0  0  0  0  0  0  0  0
   53.0860    8.3790    2.0830 C   0  0  0  0  0  0  0  0  0  0  0  0
   53.0260    7.8220    0.8760 N   0  0  0  0  0  0  0  0  0  0  0  0
   54.2650    7.3130    0.6820 N   0  0  0  0  0  0  0  0  0  0  0  0
   54.7260    6.6070   -0.4260 C   0  0  0  0  0  0  0  0  0  0  0  0
   55.9930    6.1760   -0.4780 C   0  0  0  0  0  0  0  0  0  0  0  0
   56.8220    6.5220    0.7090 C   0  0  0  0  0  0  0  0  0  0  0  0
   56.4260    7.1810    1.7550 N   0  0  0  0  0  0  0  0  0  0  0  0
   55.1150    7.5820    1.7620 C   0  0  0  0  0  0  0  0  0  0  0  0
   57.9910   10.1100    5.1940 N   0  0  0  0  0  0  0  0  0  0  0  0
   59.0230    9.9480    4.2230 C   0  0  0  0  0  0  0  0  0  0  0  0
   60.3290   10.3590    4.5380 C   0  0  0  0  0  0  0  0  0  0  0  0
   61.3620   10.2100    3.6090 C   0  0  0  0  0  0  0  0  0  0  0  0
   61.0980    9.6680    2.3530 C   0  0  0  0  0  0  0  0  0  0  0  0
   59.7970    9.2920    2.0260 C   0  0  0  0  0  0  0  0  0  0  0  0
   59.4600    8.6530    0.4630 Cl  0  0  0  0  0  0  0  0  0  0  0  0
   58.7560    9.4380    2.9460 C   0  0  0  0  0  0  0  0  0  0  0  0
   58.3310   10.3780    6.4820 N   0  0  0  0  0  0  0  0  0  0  0  0
   57.1937   10.2920    9.1494 H   0  0  0  0  0  0  0  0  0  0  0  0
   58.0652   11.7910    8.6802 H   0  0  0  0  0  0  0  0  0  0  0  0
   56.2692   11.7588    8.6802 H   0  0  0  0  0  0  0  0  0  0  0  0
   55.0314   10.7889    6.4289 H   0  0  0  0  0  0  0  0  0  0  0  0
   56.4410    9.5790    3.0320 H   0  0  0  0  0  0  0  0  0  0  0  0
   52.2267    8.8699    2.5632 H   0  0  0  0  0  0  0  0  0  0  0  0
   54.0446    6.4017   -1.2648 H   0  0  0  0  0  0  0  0  0  0  0  0
   56.3908    5.6094   -1.3328 H   0  0  0  0  0  0  0  0  0  0  0  0
   57.8698    6.1874    0.6988 H   0  0  0  0  0  0  0  0  0  0  0  0
   60.5398   10.8012    5.5229 H   0  0  0  0  0  0  0  0  0  0  0  0
   62.3845   10.5209    3.8695 H   0  0  0  0  0  0  0  0  0  0  0  0
   61.9116    9.5378    1.6242 H   0  0  0  0  0  0  0  0  0  0  0  0
   57.7303    9.1535    2.6686 H   0  0  0  0  0  0  0  0  0  0  0  0
  1  2  1  0
  2  3  1  0
  3  4  2  0
  4  5  1  0
  5  6  1  0
  6  7  2  0
  6  8  1  0
  8  9  1  0
  9 10  2  0
 10 11  1  0
 11 12  1  0
 12 13  2  0
 13 14  1  0
 14 15  2  0
 15 16  1  0
  4 17  1  0
 17 18  1  0
 18 19  2  0
 19 20  1  0
 20 21  2  0
 21 22  1  0
 22 23  1  0
 22 24  2  0
 17 25  1  0
 25  2  2  0
 16  8  2  0
 24 18  1  0
 16 11  1  0
  1 26  1  0
  1 27  1  0
  1 28  1  0
  3 29  1  0
  5 30  1  0
  9 31  1  0
 12 32  1  0
 13 33  1  0
 14 34  1  0
 19 35  1  0
 20 36  1  0
 21 37  1  0
 24 38  1  0
M  END
>  <meeko>  (7) 
{"is_sidechain": [false], "free_energy": -8.665, "intermolecular_energy": -10.308, "internal_energy": -0.44}

$$$$
4hge_ligand
     RDKit          3D

 38 41  0  0  0  0  0  0  0  0999 V2000
   56.1680    5.9170   -0.3160 C   0  0  0  0  0  0  0  0  0  0  0  0
   56.2660    6.8950    0.7940 C   0  0  0  0  0  0  0  0  0  0  0  0
   57.3320    7.7650    1.0910 C   0  0  0  0  0  0  0  0  0  0  0  0
   56.9760    8.4100    2.2570 C   0  0  0  0  0  0  0  0  0  0  0  0
   57.7230    9.2290    3.1000 N   0  0  0  0  0  0  0  0  0  0  0  0
   58.1530    8.8410    4.3630 C   0  0  0  0  0  0  0  0  0  0  0  0
   57.9800    7.7310    4.8540 O   0  0  0  0  0  0  0  0  0  0  0  0
   58.8630    9.8960    5.0720 C   0  0  0  0  0  0  0  0  0  0  0  0
   58.4650   10.6390    6.2050 C   0  0  0  0  0  0  0  0  0  0  0  0
   59.3660   11.5390    6.5950 N   0  0  0  0  0  0  0  0  0  0  0  0
   60.3670   11.4200    5.6910 N   0  0  0  0  0  0  0  0  0  0  0  0
   61.5490   12.1550    5.6360 C   0  0  0  0  0  0  0  0  0  0  0  0
   62.4570   11.9110    4.6820 C   0  0  0  0  0  0  0  0  0  0  0  0
   62.0950   10.8190    3.7370 C   0  0  0  0  0  0  0  0  0  0  0  0
   61.0060   10.1130    3.7620 N   0  0  0  0  0  0  0  0  0  0  0  0
   60.1050   10.4180    4.7490 C   0  0  0  0  0  0  0  0  0  0  0  0
   55.6510    8.0270    2.4970 N   0  0  0  0  0  0  0  0  0  0  0  0
   54.7010    8.5650    3.4140 C   0  0  0  0  0  0  0  0  0  0  0  0
   53.3700    8.7350    2.9990 C   0  0  0  0  0  0  0  0  0  0  0  0
   52.4150    9.2560    3.8760 C   0  0  0  0  0  0  0  0  0  0  0  0
   52.7850    9.6290    5.1670 C   0  0  0  0  0  0  0  0  0  0  0  0
   54.1110    9.4950    5.5690 C   0  0  0  0  0  0  0  0  0  0  0  0
   54.5790    9.9860    7.1510 Cl  0  0  0  0  0  0  0  0  0  0  0  0
   55.0740    8.9760    4.7000 C   0  0  0  0  0  0  0  0  0  0  0  0
   55.2810    6.9990    1.6890 N   0  0  0  0  0  0  0  0  0  0  0  0
   56.0663    4.9026    0.0970 H   0  0  0  0  0  0  0  0  0  0  0  0
   55.2888    6.1510   -0.9343 H   0  0  0  0  0  0  0  0  0  0  0  0
   57.0761    5.9719   -0.9343 H   0  0  0  0  0  0  0  0  0  0  0  0
   58.2576    7.9021    0.5127 H   0  0  0  0  0  0  0  0  0  0  0  0
   57.8180   10.2030    2.8450 H   0  0  0  0  0  0  0  0  0  0  0  0
   57.5028   10.4888    6.7165 H   0  0  0  0  0  0  0  0  0  0  0  0
   61.7381   12.9415    6.3814 H   0  0  0  0  0  0  0  0  0  0  0  0
   63.3984   12.4745    4.6028 H   0  0  0  0  0  0  0  0  0  0  0  0
   62.8193   10.5885    2.9419 H   0  0  0  0  0  0  0  0  0  0  0  0
   53.0772    8.4560    1.9761 H   0  0  0  0  0  0  0  0  0  0  0  0
   51.3716    9.3717    3.5476 H   0  0  0  0  0  0  0  0  0  0  0  0
   52.0333   10.0271    5.8644 H   0  0  0  0  0  0  0  0  0  0  0  0
   56.1215    8.8904    5.0246 H   0  0  0  0  0  0  0  0  0  0  0  0
  1  2  1  0
  2  3  1  0
  3  4  2  0
  4  5  1  0
  5  6  1  0
  6  7  2  0
  6  8  1  0
  8  9  1  0
  9 10  2  0
 10 11  1  0
 11 12  1  0
 12 13  2  0
 13 14  1  0
 14 15  2  0
 15 16  1  0
  4 17  1  0
 17 18  1  0
 18 19  2  0
 19 20  1  0
 20 21  2  0
 21 22  1  0
 22 23  1  0
 22 24  2  0
 17 25  1  0
 25  2  2  0
 16  8  2  0
 24 18  1  0
 16 11  1  0
  1 26  1  0
  1 27  1  0
  1 28  1  0
  3 29  1  0
  5 30  1  0
  9 31  1  0
 12 32  1  0
 13 33  1  0
 14 34  1  0
 19 35  1  0
 20 36  1  0
 21 37  1  0
 24 38  1  0
M  END
>  <meeko>  (8) 
{"is_sidechain": [false], "free_energy": -8.642, "intermolecular_energy": -10.494, "internal_energy": -0.226}

$$$$
4hge_ligand
     RDKit          3D

 38 41  0  0  0  0  0  0  0  0999 V2000
   62.4460   11.8730    5.2360 C   0  0  0  0  0  0  0  0  0  0  0  0
   61.1280   11.2080    5.1000 C   0  0  0  0  0  0  0  0  0  0  0  0
   60.7400   10.2390    4.1560 C   0  0  0  0  0  0  0  0  0  0  0  0
   59.4030    9.9960    4.3950 C   0  0  0  0  0  0  0  0  0  0  0  0
   58.4690    9.2780    3.6520 N   0  0  0  0  0  0  0  0  0  0  0  0
   58.3350    9.3920    2.2730 C   0  0  0  0  0  0  0  0  0  0  0  0
   59.0480   10.0800    1.5520 O   0  0  0  0  0  0  0  0  0  0  0  0
   57.2470    8.5860    1.7390 C   0  0  0  0  0  0  0  0  0  0  0  0
   57.2700    7.6150    0.7140 C   0  0  0  0  0  0  0  0  0  0  0  0
   56.0810    7.0660    0.4730 N   0  0  0  0  0  0  0  0  0  0  0  0
   55.2430    7.7000    1.3270 N   0  0  0  0  0  0  0  0  0  0  0  0
   53.8710    7.5080    1.4640 C   0  0  0  0  0  0  0  0  0  0  0  0
   53.1740    8.2070    2.3690 C   0  0  0  0  0  0  0  0  0  0  0  0
   53.9790    9.1580    3.1820 C   0  0  0  0  0  0  0  0  0  0  0  0
   55.2580    9.3590    3.0830 N   0  0  0  0  0  0  0  0  0  0  0  0
   55.9170    8.6290    2.1280 C   0  0  0  0  0  0  0  0  0  0  0  0
   59.1100   10.6940    5.5720 N   0  0  0  0  0  0  0  0  0  0  0  0
   57.9620   10.6140    6.4140 C   0  0  0  0  0  0  0  0  0  0  0  0
   58.0440   11.0960    7.7310 C   0  0  0  0  0  0  0  0  0  0  0  0
   56.9350   11.0360    8.5790 C   0  0  0  0  0  0  0  0  0  0  0  0
   55.7420   10.4760    8.1260 C   0  0  0  0  0  0  0  0  0  0  0  0
   55.6680    9.9640    6.8330 C   0  0  0  0  0  0  0  0  0  0  0  0
   54.2070    9.2410    6.2810 Cl  0  0  0  0  0  0  0  0  0  0  0  0
   56.7710   10.0190    5.9770 C   0  0  0  0  0  0  0  0  0  0  0  0
   60.1190   11.5400    5.9080 N   0  0  0  0  0  0  0  0  0  0  0  0
   62.6870   11.9946    6.3024 H   0  0  0  0  0  0  0  0  0  0  0  0
   63.2190   11.2570    4.7533 H   0  0  0  0  0  0  0  0  0  0  0  0
   62.4099   12.8608    4.7533 H   0  0  0  0  0  0  0  0  0  0  0  0
   61.3721    9.7718    3.3865 H   0  0  0  0  0  0  0  0  0  0  0  0
   57.7530    8.7750    4.1580 H   0  0  0  0  0  0  0  0  0  0  0  0
   58.1832    7.3384    0.1667 H   0  0  0  0  0  0  0  0  0  0  0  0
   53.3556    6.7767    0.8241 H   0  0  0  0  0  0  0  0  0  0  0  0
   52.0886    8.0871    2.5012 H   0  0  0  0  0  0  0  0  0  0  0  0
   53.4396    9.7466    3.9387 H   0  0  0  0  0  0  0  0  0  0  0  0
   58.9887   11.5240    8.0976 H   0  0  0  0  0  0  0  0  0  0  0  0
   57.0036   11.4306    9.6035 H   0  0  0  0  0  0  0  0  0  0  0  0
   54.8631   10.4386    8.7864 H   0  0  0  0  0  0  0  0  0  0  0  0
   56.7046    9.5966    4.9635 H   0  0  0  0  0  0  0  0  0  0  0  0
  1  2  1  0
  2  3  1  0
  3  4  2  0
  4  5  1  0
  5  6  1  0
  6  7  2  0
  6  8  1  0
  8  9  1  0
  9 10  2  0
 10 11  1  0
 11 12  1  0
 12 13  2  0
 13 14  1  0
 14 15  2  0
 15 16  1  0
  4 17  1  0
 17 18  1  0
 18 19  2  0
 19 20  1  0
 20 21  2  0
 21 22  1  0
 22 23  1  0
 22 24  2  0
 17 25  1  0
 25  2  2  0
 16  8  2  0
 24 18  1  0
 16 11  1  0
  1 26  1  0
  1 27  1  0
  1 28  1  0
  3 29  1  0
  5 30  1  0
  9 31  1  0
 12 32  1  0
 13 33  1  0
 14 34  1  0
 19 35  1  0
 20 36  1  0
 21 37  1  0
 24 38  1  0
M  END
>  <meeko>  (9) 
{"is_sidechain": [false], "free_energy": -8.592, "intermolecular_energy": -10.461, "internal_energy": -0.202}

$$$$
