3aru_ligand
     RDKit          3D

 38 39  0  0  0  0  0  0  0  0999 V2000
    7.7440    4.8810   24.2510 C   0  0  0  0  0  0  0  0  0  0  0  0
    8.6140    5.3330   25.3950 C   0  0  0  0  0  0  0  0  0  0  0  0
    8.5610    6.4890   25.8140 O   0  0  0  0  0  0  0  0  0  0  0  0
    9.5810    4.3050   25.9520 C   0  0  0  0  0  0  0  0  0  0  0  0
    9.5790    4.2890   27.4800 C   0  0  0  0  0  0  0  0  0  0  0  0
    9.0050    3.0010   28.0760 C   0  0  0  0  0  0  0  0  0  0  0  0
    9.7410    1.7110   27.6810 C   0  0  0  0  0  0  0  0  0  0  0  0
   10.2640    0.9720   28.8270 N   0  0  0  0  0  0  0  0  0  0  0  0
    9.3970    0.0550   29.4350 C   0  0  0  0  0  0  0  0  0  0  0  0
    8.2410   -0.1460   29.0730 O   0  0  0  0  0  0  0  0  0  0  0  0
    9.9900   -0.6290   30.5300 C   0  0  0  0  0  0  0  0  0  0  0  0
   11.2680   -0.4070   30.9420 C   0  0  0  0  0  0  0  0  0  0  0  0
   11.6000   -1.1830   32.0110 N   0  0  0  0  0  0  0  0  0  0  0  0
   10.5150   -1.8920   32.2510 C   0  0  0  0  0  0  0  0  0  0  0  0
    9.5080   -1.5880   31.3730 N   0  0  0  0  0  0  0  0  0  0  0  0
    8.1930   -2.1750   31.3500 C   0  0  0  0  0  0  0  0  0  0  0  0
   12.0820    0.5060   30.3180 N   0  0  0  0  0  0  0  0  0  0  0  0
   13.4420    0.7020   30.7850 C   0  0  0  0  0  0  0  0  0  0  0  0
   11.5930    1.2260   29.2270 C   0  0  0  0  0  0  0  0  0  0  0  0
   12.2940    2.0530   28.6330 O   0  0  0  0  0  0  0  0  0  0  0  0
    6.8335    4.4079   24.6475 H   0  0  0  0  0  0  0  0  0  0  0  0
    7.4676    5.7495   23.6352 H   0  0  0  0  0  0  0  0  0  0  0  0
    8.2957    4.1555   23.6352 H   0  0  0  0  0  0  0  0  0  0  0  0
    9.2911    3.3091   25.5857 H   0  0  0  0  0  0  0  0  0  0  0  0
   10.5935    4.5724   25.6155 H   0  0  0  0  0  0  0  0  0  0  0  0
   10.6152    4.4035   27.8308 H   0  0  0  0  0  0  0  0  0  0  0  0
    8.9329    5.1152   27.8116 H   0  0  0  0  0  0  0  0  0  0  0  0
    9.0379    3.0893   29.1720 H   0  0  0  0  0  0  0  0  0  0  0  0
    7.9861    2.9062   27.6725 H   0  0  0  0  0  0  0  0  0  0  0  0
    9.0398    1.0613   27.1367 H   0  0  0  0  0  0  0  0  0  0  0  0
   10.6012    2.0028   27.0606 H   0  0  0  0  0  0  0  0  0  0  0  0
   10.4287   -2.6359   33.0567 H   0  0  0  0  0  0  0  0  0  0  0  0
    7.8431   -2.3312   32.3811 H   0  0  0  0  0  0  0  0  0  0  0  0
    7.4997   -1.5009   30.8257 H   0  0  0  0  0  0  0  0  0  0  0  0
    8.2319   -3.1412   30.8257 H   0  0  0  0  0  0  0  0  0  0  0  0
   13.4553    0.7039   31.8849 H   0  0  0  0  0  0  0  0  0  0  0  0
   14.0789   -0.1136   30.4120 H   0  0  0  0  0  0  0  0  0  0  0  0
   13.8227    1.6643   30.4120 H   0  0  0  0  0  0  0  0  0  0  0  0
  1  2  1  0
  2  3  2  0
  2  4  1  0
  4  5  1  0
  5  6  1  0
  6  7  1  0
  7  8  1  0
  8  9  1  0
  9 10  2  0
  9 11  1  0
 11 12  2  0
 12 13  1  0
 13 14  2  0
 14 15  1  0
 15 16  1  0
 12 17  1  0
 17 18  1  0
 17 19  1  0
 19 20  2  0
 19  8  1  0
 15 11  1  0
  1 21  1  0
  1 22  1  0
  1 23  1  0
  4 24  1  0
  4 25  1  0
  5 26  1  0
  5 27  1  0
  6 28  1  0
  6 29  1  0
  7 30  1  0
  7 31  1  0
 14 32  1  0
 16 33  1  0
 16 34  1  0
 16 35  1  0
 18 36  1  0
 18 37  1  0
 18 38  1  0
M  END
>  <meeko>  (1) 
{"is_sidechain": [false], "free_energy": -6.545, "intermolecular_energy": -8.458, "internal_energy": -0.331}

$$$$
3aru_ligand
     RDKit          3D

 38 39  0  0  0  0  0  0  0  0999 V2000
    1.9060   10.3470   14.3980 C   0  0  0  0  0  0  0  0  0  0  0  0
    1.0060   11.3050   13.6620 C   0  0  0  0  0  0  0  0  0  0  0  0
    1.1270   11.4840   12.4490 O   0  0  0  0  0  0  0  0  0  0  0  0
   -0.0030   12.0630   14.5040 C   0  0  0  0  0  0  0  0  0  0  0  0
   -0.1210   11.4820   15.9120 C   0  0  0  0  0  0  0  0  0  0  0  0
   -1.5560   11.1120   16.3010 C   0  0  0  0  0  0  0  0  0  0  0  0
   -1.9530    9.6530   16.0290 C   0  0  0  0  0  0  0  0  0  0  0  0
   -2.0490    8.8460   17.2420 N   0  0  0  0  0  0  0  0  0  0  0  0
   -0.9270    8.0780   17.5790 C   0  0  0  0  0  0  0  0  0  0  0  0
    0.1060    8.0390   16.9160 O   0  0  0  0  0  0  0  0  0  0  0  0
   -1.1010    7.3370   18.7780 C   0  0  0  0  0  0  0  0  0  0  0  0
   -2.2450    7.3690   19.5150 C   0  0  0  0  0  0  0  0  0  0  0  0
   -2.1640    6.5720   20.6160 N   0  0  0  0  0  0  0  0  0  0  0  0
   -0.9550    6.0500   20.5550 C   0  0  0  0  0  0  0  0  0  0  0  0
   -0.2710    6.4870   19.4520 N   0  0  0  0  0  0  0  0  0  0  0  0
    1.0710    6.1190   19.0810 C   0  0  0  0  0  0  0  0  0  0  0  0
   -3.3230    8.1340   19.1430 N   0  0  0  0  0  0  0  0  0  0  0  0
   -4.5200    8.1460   19.9660 C   0  0  0  0  0  0  0  0  0  0  0  0
   -3.2500    8.9040   17.9820 C   0  0  0  0  0  0  0  0  0  0  0  0
   -4.1950    9.6100   17.6150 O   0  0  0  0  0  0  0  0  0  0  0  0
    1.7781   10.4831   15.4820 H   0  0  0  0  0  0  0  0  0  0  0  0
    1.6439    9.3142   14.1247 H   0  0  0  0  0  0  0  0  0  0  0  0
    2.9531   10.5441   14.1247 H   0  0  0  0  0  0  0  0  0  0  0  0
    0.3137   13.1138   14.5783 H   0  0  0  0  0  0  0  0  0  0  0  0
   -0.9856   11.9785   14.0169 H   0  0  0  0  0  0  0  0  0  0  0  0
    0.4998   10.5757   15.9680 H   0  0  0  0  0  0  0  0  0  0  0  0
    0.2142   12.2606   16.6130 H   0  0  0  0  0  0  0  0  0  0  0  0
   -1.6763   11.3021   17.3778 H   0  0  0  0  0  0  0  0  0  0  0  0
   -2.2118   11.7292   15.6693 H   0  0  0  0  0  0  0  0  0  0  0  0
   -2.9311    9.6451   15.5258 H   0  0  0  0  0  0  0  0  0  0  0  0
   -1.1627    9.2108   15.4046 H   0  0  0  0  0  0  0  0  0  0  0  0
   -0.5461    5.3498   21.2983 H   0  0  0  0  0  0  0  0  0  0  0  0
    1.6703    5.9547   19.9886 H   0  0  0  0  0  0  0  0  0  0  0  0
    1.0463    5.1945   18.4855 H   0  0  0  0  0  0  0  0  0  0  0  0
    1.5214    6.9268   18.4855 H   0  0  0  0  0  0  0  0  0  0  0  0
   -4.2346    8.1431   21.0283 H   0  0  0  0  0  0  0  0  0  0  0  0
   -5.1069    9.0501   19.7464 H   0  0  0  0  0  0  0  0  0  0  0  0
   -5.1249    7.2539   19.7464 H   0  0  0  0  0  0  0  0  0  0  0  0
  1  2  1  0
  2  3  2  0
  2  4  1  0
  4  5  1  0
  5  6  1  0
  6  7  1  0
  7  8  1  0
  8  9  1  0
  9 10  2  0
  9 11  1  0
 11 12  2  0
 12 13  1  0
 13 14  2  0
 14 15  1  0
 15 16  1  0
 12 17  1  0
 17 18  1  0
 17 19  1  0
 19 20  2  0
 19  8  1  0
 15 11  1  0
  1 21  1  0
  1 22  1  0
  1 23  1  0
  4 24  1  0
  4 25  1  0
  5 26  1  0
  5 27  1  0
  6 28  1  0
  6 29  1  0
  7 30  1  0
  7 31  1  0
 14 32  1  0
 16 33  1  0
 16 34  1  0
 16 35  1  0
 18 36  1  0
 18 37  1  0
 18 38  1  0
M  END
>  <meeko>  (2) 
{"is_sidechain": [false], "free_energy": -6.487, "intermolecular_energy": -8.293, "internal_energy": -0.422}

$$$$
3aru_ligand
     RDKit          3D

 38 39  0  0  0  0  0  0  0  0999 V2000
    8.2040    3.6240   24.5370 C   0  0  0  0  0  0  0  0  0  0  0  0
    8.6240    4.7670   25.4240 C   0  0  0  0  0  0  0  0  0  0  0  0
    8.1770    5.9020   25.2540 O   0  0  0  0  0  0  0  0  0  0  0  0
    9.6590    4.4480   26.4880 C   0  0  0  0  0  0  0  0  0  0  0  0
    9.1210    3.4670   27.5300 C   0  0  0  0  0  0  0  0  0  0  0  0
   10.2060    2.5880   28.1570 C   0  0  0  0  0  0  0  0  0  0  0  0
   10.1010    1.0890   27.8370 C   0  0  0  0  0  0  0  0  0  0  0  0
    9.9720    0.2520   29.0270 N   0  0  0  0  0  0  0  0  0  0  0  0
   11.1520   -0.0430   29.7220 C   0  0  0  0  0  0  0  0  0  0  0  0
   12.2670    0.3440   29.3820 O   0  0  0  0  0  0  0  0  0  0  0  0
   10.9340   -0.8480   30.8710 C   0  0  0  0  0  0  0  0  0  0  0  0
    9.7020   -1.2870   31.2500 C   0  0  0  0  0  0  0  0  0  0  0  0
    9.7570   -2.0410   32.3830 N   0  0  0  0  0  0  0  0  0  0  0  0
   11.0360   -2.0590   32.7030 C   0  0  0  0  0  0  0  0  0  0  0  0
   11.7910   -1.3450   31.8110 N   0  0  0  0  0  0  0  0  0  0  0  0
   13.2180   -1.1570   31.8620 C   0  0  0  0  0  0  0  0  0  0  0  0
    8.5720   -0.9760   30.5360 N   0  0  0  0  0  0  0  0  0  0  0  0
    7.2770   -1.4570   30.9830 C   0  0  0  0  0  0  0  0  0  0  0  0
    8.6810   -0.1850   29.3910 C   0  0  0  0  0  0  0  0  0  0  0  0
    7.6880    0.1230   28.7230 O   0  0  0  0  0  0  0  0  0  0  0  0
    7.8912    2.7727   25.1594 H   0  0  0  0  0  0  0  0  0  0  0  0
    7.3640    3.9422   23.9020 H   0  0  0  0  0  0  0  0  0  0  0  0
    9.0501    3.3226   23.9020 H   0  0  0  0  0  0  0  0  0  0  0  0
   10.5416    4.0043   26.0040 H   0  0  0  0  0  0  0  0  0  0  0  0
    9.9184    5.3846   27.0032 H   0  0  0  0  0  0  0  0  0  0  0  0
    8.6328    4.0421   28.3306 H   0  0  0  0  0  0  0  0  0  0  0  0
    8.4199    2.7962   27.0119 H   0  0  0  0  0  0  0  0  0  0  0  0
   11.1825    2.9449   27.7977 H   0  0  0  0  0  0  0  0  0  0  0  0
   10.0785    2.6768   29.2460 H   0  0  0  0  0  0  0  0  0  0  0  0
    9.2185    0.9289   27.2002 H   0  0  0  0  0  0  0  0  0  0  0  0
   11.0342    0.7972   27.3330 H   0  0  0  0  0  0  0  0  0  0  0  0
   11.4462   -2.5831   33.5788 H   0  0  0  0  0  0  0  0  0  0  0  0
   13.5449   -1.1139   32.9114 H   0  0  0  0  0  0  0  0  0  0  0  0
   13.7168   -1.9972   31.3568 H   0  0  0  0  0  0  0  0  0  0  0  0
   13.4822   -0.2163   31.3568 H   0  0  0  0  0  0  0  0  0  0  0  0
    7.2493   -1.4673   32.0826 H   0  0  0  0  0  0  0  0  0  0  0  0
    6.4876   -0.7921   30.6025 H   0  0  0  0  0  0  0  0  0  0  0  0
    7.1130   -2.4760   30.6025 H   0  0  0  0  0  0  0  0  0  0  0  0
  1  2  1  0
  2  3  2  0
  2  4  1  0
  4  5  1  0
  5  6  1  0
  6  7  1  0
  7  8  1  0
  8  9  1  0
  9 10  2  0
  9 11  1  0
 11 12  2  0
 12 13  1  0
 13 14  2  0
 14 15  1  0
 15 16  1  0
 12 17  1  0
 17 18  1  0
 17 19  1  0
 19 20  2  0
 19  8  1  0
 15 11  1  0
  1 21  1  0
  1 22  1  0
  1 23  1  0
  4 24  1  0
  4 25  1  0
  5 26  1  0
  5 27  1  0
  6 28  1  0
  6 29  1  0
  7 30  1  0
  7 31  1  0
 14 32  1  0
 16 33  1  0
 16 34  1  0
 16 35  1  0
 18 36  1  0
 18 37  1  0
 18 38  1  0
M  END
>  <meeko>  (3) 
{"is_sidechain": [false], "free_energy": -6.472, "intermolecular_energy": -8.415, "internal_energy": -0.279}

$$$$
3aru_ligand
     RDKit          3D

 38 39  0  0  0  0  0  0  0  0999 V2000
    7.0780   -3.2860   17.7370 C   0  0  0  0  0  0  0  0  0  0  0  0
    6.7520   -3.0880   19.1950 C   0  0  0  0  0  0  0  0  0  0  0  0
    6.8750   -4.0080   20.0040 O   0  0  0  0  0  0  0  0  0  0  0  0
    6.2210   -1.7210   19.5860 C   0  0  0  0  0  0  0  0  0  0  0  0
    5.9410   -0.8480   18.3630 C   0  0  0  0  0  0  0  0  0  0  0  0
    6.0500    0.6530   18.6490 C   0  0  0  0  0  0  0  0  0  0  0  0
    4.9690    1.2240   19.5790 C   0  0  0  0  0  0  0  0  0  0  0  0
    5.4290    2.3640   20.3670 N   0  0  0  0  0  0  0  0  0  0  0  0
    6.0550    2.0770   21.5860 C   0  0  0  0  0  0  0  0  0  0  0  0
    6.2220    0.9420   22.0250 O   0  0  0  0  0  0  0  0  0  0  0  0
    6.4830    3.2410   22.2790 C   0  0  0  0  0  0  0  0  0  0  0  0
    6.2950    4.5020   21.8030 C   0  0  0  0  0  0  0  0  0  0  0  0
    6.7910    5.4450   22.6510 N   0  0  0  0  0  0  0  0  0  0  0  0
    7.2930    4.7530   23.6550 C   0  0  0  0  0  0  0  0  0  0  0  0
    7.1280    3.4060   23.4710 N   0  0  0  0  0  0  0  0  0  0  0  0
    7.5590    2.3650   24.3690 C   0  0  0  0  0  0  0  0  0  0  0  0
    5.6710    4.7370   20.6030 N   0  0  0  0  0  0  0  0  0  0  0  0
    5.5030    6.1000   20.1290 C   0  0  0  0  0  0  0  0  0  0  0  0
    5.2180    3.6580   19.8430 C   0  0  0  0  0  0  0  0  0  0  0  0
    4.6580    3.8260   18.7550 O   0  0  0  0  0  0  0  0  0  0  0  0
    8.0149   -3.8550   17.6447 H   0  0  0  0  0  0  0  0  0  0  0  0
    6.2623   -3.8414   17.2510 H   0  0  0  0  0  0  0  0  0  0  0  0
    7.1948   -2.3061   17.2510 H   0  0  0  0  0  0  0  0  0  0  0  0
    5.2867   -1.8508   20.1519 H   0  0  0  0  0  0  0  0  0  0  0  0
    6.9868   -1.2190   20.1955 H   0  0  0  0  0  0  0  0  0  0  0  0
    6.6655   -1.1066   17.5768 H   0  0  0  0  0  0  0  0  0  0  0  0
    4.9039   -1.0452   18.0539 H   0  0  0  0  0  0  0  0  0  0  0  0
    7.0301    0.8405   19.1118 H   0  0  0  0  0  0  0  0  0  0  0  0
    5.9161    1.1577   17.6809 H   0  0  0  0  0  0  0  0  0  0  0  0
    4.1147    1.5456   18.9653 H   0  0  0  0  0  0  0  0  0  0  0  0
    4.6943    0.4280   20.2868 H   0  0  0  0  0  0  0  0  0  0  0  0
    7.7833    5.2019   24.5314 H   0  0  0  0  0  0  0  0  0  0  0  0
    7.4214    2.6973   25.4085 H   0  0  0  0  0  0  0  0  0  0  0  0
    6.9625    1.4579   24.1920 H   0  0  0  0  0  0  0  0  0  0  0  0
    8.6222    2.1450   24.1920 H   0  0  0  0  0  0  0  0  0  0  0  0
    5.4192    6.7798   20.9897 H   0  0  0  0  0  0  0  0  0  0  0  0
    6.3727    6.3860   19.5192 H   0  0  0  0  0  0  0  0  0  0  0  0
    4.5899    6.1662   19.5192 H   0  0  0  0  0  0  0  0  0  0  0  0
  1  2  1  0
  2  3  2  0
  2  4  1  0
  4  5  1  0
  5  6  1  0
  6  7  1  0
  7  8  1  0
  8  9  1  0
  9 10  2  0
  9 11  1  0
 11 12  2  0
 12 13  1  0
 13 14  2  0
 14 15  1  0
 15 16  1  0
 12 17  1  0
 17 18  1  0
 17 19  1  0
 19 20  2  0
 19  8  1  0
 15 11  1  0
  1 21  1  0
  1 22  1  0
  1 23  1  0
  4 24  1  0
  4 25  1  0
  5 26  1  0
  5 27  1  0
  6 28  1  0
  6 29  1  0
  7 30  1  0
  7 31  1  0
 14 32  1  0
 16 33  1  0
 16 34  1  0
 16 35  1  0
 18 36  1  0
 18 37  1  0
 18 38  1  0
M  END
>  <meeko>  (4) 
{"is_sidechain": [false], "free_energy": -6.43, "intermolecular_energy": -8.262, "internal_energy": -0.379}

$$$$
3aru_ligand
     RDKit          3D

 38 39  0  0  0  0  0  0  0  0999 V2000
   -0.3000   11.1720   12.9930 C   0  0  0  0  0  0  0  0  0  0  0  0
   -0.1320   12.1280   14.1450 C   0  0  0  0  0  0  0  0  0  0  0  0
   -0.9930   12.9690   14.4030 O   0  0  0  0  0  0  0  0  0  0  0  0
    1.1690   12.0250   14.9200 C   0  0  0  0  0  0  0  0  0  0  0  0
    1.9300   10.7420   14.5880 C   0  0  0  0  0  0  0  0  0  0  0  0
    2.2800    9.9050   15.8220 C   0  0  0  0  0  0  0  0  0  0  0  0
    1.2660    8.8070   16.1780 C   0  0  0  0  0  0  0  0  0  0  0  0
    0.6260    9.0110   17.4740 N   0  0  0  0  0  0  0  0  0  0  0  0
    1.3440    8.6000   18.6050 C   0  0  0  0  0  0  0  0  0  0  0  0
    2.4530    8.0740   18.5630 O   0  0  0  0  0  0  0  0  0  0  0  0
    0.6550    8.8480   19.8210 C   0  0  0  0  0  0  0  0  0  0  0  0
   -0.5780    9.4230   19.8760 C   0  0  0  0  0  0  0  0  0  0  0  0
   -1.0240    9.5510   21.1560 N   0  0  0  0  0  0  0  0  0  0  0  0
   -0.0500    9.0540   21.8940 C   0  0  0  0  0  0  0  0  0  0  0  0
    0.9930    8.6140   21.1240 N   0  0  0  0  0  0  0  0  0  0  0  0
    2.2140    8.0190   21.6030 C   0  0  0  0  0  0  0  0  0  0  0  0
   -1.2480    9.8080   18.7400 N   0  0  0  0  0  0  0  0  0  0  0  0
   -2.5560   10.4270   18.8470 C   0  0  0  0  0  0  0  0  0  0  0  0
   -0.6520    9.6100   17.4940 C   0  0  0  0  0  0  0  0  0  0  0  0
   -1.2180    9.9480   16.4480 O   0  0  0  0  0  0  0  0  0  0  0  0
   -0.4782   10.1582   13.3808 H   0  0  0  0  0  0  0  0  0  0  0  0
   -1.1568   11.4853   12.3785 H   0  0  0  0  0  0  0  0  0  0  0  0
    0.6123   11.1744   12.3785 H   0  0  0  0  0  0  0  0  0  0  0  0
    1.8019   12.8890   14.6689 H   0  0  0  0  0  0  0  0  0  0  0  0
    0.9264   12.0096   15.9928 H   0  0  0  0  0  0  0  0  0  0  0  0
    1.3076   10.1311   13.9176 H   0  0  0  0  0  0  0  0  0  0  0  0
    2.8790   11.0400   14.1183 H   0  0  0  0  0  0  0  0  0  0  0  0
    3.2528    9.4242   15.6421 H   0  0  0  0  0  0  0  0  0  0  0  0
    2.2847   10.6028   16.6723 H   0  0  0  0  0  0  0  0  0  0  0  0
    0.4860    8.7872   15.4026 H   0  0  0  0  0  0  0  0  0  0  0  0
    1.8192    7.8579   16.2334 H   0  0  0  0  0  0  0  0  0  0  0  0
   -0.0730    8.9998   22.9924 H   0  0  0  0  0  0  0  0  0  0  0  0
    2.2148    8.0186   22.7030 H   0  0  0  0  0  0  0  0  0  0  0  0
    2.2864    6.9846   21.2359 H   0  0  0  0  0  0  0  0  0  0  0  0
    3.0733    8.5994   21.2359 H   0  0  0  0  0  0  0  0  0  0  0  0
   -2.8174   10.5507   19.9083 H   0  0  0  0  0  0  0  0  0  0  0  0
   -2.5369   11.4116   18.3569 H   0  0  0  0  0  0  0  0  0  0  0  0
   -3.3053    9.7879   18.3569 H   0  0  0  0  0  0  0  0  0  0  0  0
  1  2  1  0
  2  3  2  0
  2  4  1  0
  4  5  1  0
  5  6  1  0
  6  7  1  0
  7  8  1  0
  8  9  1  0
  9 10  2  0
  9 11  1  0
 11 12  2  0
 12 13  1  0
 13 14  2  0
 14 15  1  0
 15 16  1  0
 12 17  1  0
 17 18  1  0
 17 19  1  0
 19 20  2  0
 19  8  1  0
 15 11  1  0
  1 21  1  0
  1 22  1  0
  1 23  1  0
  4 24  1  0
  4 25  1  0
  5 26  1  0
  5 27  1  0
  6 28  1  0
  6 29  1  0
  7 30  1  0
  7 31  1  0
 14 32  1  0
 16 33  1  0
 16 34  1  0
 16 35  1  0
 18 36  1  0
 18 37  1  0
 18 38  1  0
M  END
>  <meeko>  (5) 
{"is_sidechain": [false], "free_energy": -6.411, "intermolecular_energy": -8.093, "internal_energy": -0.522}

$$$$
3aru_ligand
     RDKit          3D

 38 39  0  0  0  0  0  0  0  0999 V2000
    7.9730    3.9570   23.9470 C   0  0  0  0  0  0  0  0  0  0  0  0
    8.3440    4.6590   25.2280 C   0  0  0  0  0  0  0  0  0  0  0  0
    8.1910    5.8740   25.3530 O   0  0  0  0  0  0  0  0  0  0  0  0
    8.9610    3.7960   26.3130 C   0  0  0  0  0  0  0  0  0  0  0  0
    8.8140    2.3060   26.0080 C   0  0  0  0  0  0  0  0  0  0  0  0
    8.1890    1.5080   27.1560 C   0  0  0  0  0  0  0  0  0  0  0  0
    8.7400    1.8280   28.5540 C   0  0  0  0  0  0  0  0  0  0  0  0
    9.7970    0.9150   28.9810 N   0  0  0  0  0  0  0  0  0  0  0  0
   11.1160    1.3660   28.8400 C   0  0  0  0  0  0  0  0  0  0  0  0
   11.4240    2.4600   28.3740 O   0  0  0  0  0  0  0  0  0  0  0  0
   12.0770    0.4240   29.2910 C   0  0  0  0  0  0  0  0  0  0  0  0
   11.7440   -0.7940   29.8020 C   0  0  0  0  0  0  0  0  0  0  0  0
   12.8430   -1.5130   30.1600 N   0  0  0  0  0  0  0  0  0  0  0  0
   13.8600   -0.7250   29.8710 C   0  0  0  0  0  0  0  0  0  0  0  0
   13.4410    0.4650   29.3390 N   0  0  0  0  0  0  0  0  0  0  0  0
   14.2850    1.5520   28.9150 C   0  0  0  0  0  0  0  0  0  0  0  0
   10.4370   -1.1970   29.9170 N   0  0  0  0  0  0  0  0  0  0  0  0
   10.1280   -2.5000   30.4780 C   0  0  0  0  0  0  0  0  0  0  0  0
    9.4160   -0.3390   29.5060 C   0  0  0  0  0  0  0  0  0  0  0  0
    8.2260   -0.6600   29.5990 O   0  0  0  0  0  0  0  0  0  0  0  0
    7.4709    3.0069   24.1817 H   0  0  0  0  0  0  0  0  0  0  0  0
    7.2946    4.5955   23.3622 H   0  0  0  0  0  0  0  0  0  0  0  0
    8.8828    3.7562   23.3622 H   0  0  0  0  0  0  0  0  0  0  0  0
   10.0308    4.0384   26.3949 H   0  0  0  0  0  0  0  0  0  0  0  0
    8.4339    4.0047   27.2557 H   0  0  0  0  0  0  0  0  0  0  0  0
    8.1771    2.1936   25.1182 H   0  0  0  0  0  0  0  0  0  0  0  0
    9.8263    1.9062   25.8486 H   0  0  0  0  0  0  0  0  0  0  0  0
    7.1079    1.7112   27.1621 H   0  0  0  0  0  0  0  0  0  0  0  0
    8.4382    0.4538   26.9647 H   0  0  0  0  0  0  0  0  0  0  0  0
    9.1449    2.8507   28.5441 H   0  0  0  0  0  0  0  0  0  0  0  0
    7.9079    1.7187   29.2651 H   0  0  0  0  0  0  0  0  0  0  0  0
   14.9145   -0.9908   30.0368 H   0  0  0  0  0  0  0  0  0  0  0  0
   14.6872    2.0700   29.7982 H   0  0  0  0  0  0  0  0  0  0  0  0
   15.1157    1.1574   28.3115 H   0  0  0  0  0  0  0  0  0  0  0  0
   13.6969    2.2590   28.3115 H   0  0  0  0  0  0  0  0  0  0  0  0
   10.1424   -2.4392   31.5762 H   0  0  0  0  0  0  0  0  0  0  0  0
    9.1298   -2.8168   30.1414 H   0  0  0  0  0  0  0  0  0  0  0  0
   10.8776   -3.2313   30.1414 H   0  0  0  0  0  0  0  0  0  0  0  0
  1  2  1  0
  2  3  2  0
  2  4  1  0
  4  5  1  0
  5  6  1  0
  6  7  1  0
  7  8  1  0
  8  9  1  0
  9 10  2  0
  9 11  1  0
 11 12  2  0
 12 13  1  0
 13 14  2  0
 14 15  1  0
 15 16  1  0
 12 17  1  0
 17 18  1  0
 17 19  1  0
 19 20  2  0
 19  8  1  0
 15 11  1  0
  1 21  1  0
  1 22  1  0
  1 23  1  0
  4 24  1  0
  4 25  1  0
  5 26  1  0
  5 27  1  0
  6 28  1  0
  6 29  1  0
  7 30  1  0
  7 31  1  0
 14 32  1  0
 16 33  1  0
 16 34  1  0
 16 35  1  0
 18 36  1  0
 18 37  1  0
 18 38  1  0
M  END
>  <meeko>  (6) 
{"is_sidechain": [false], "free_energy": -6.247, "intermolecular_energy": -8.001, "internal_energy": -0.403}

$$$$
3aru_ligand
     RDKit          3D

 38 39  0  0  0  0  0  0  0  0999 V2000
   -1.4950    3.4930   21.7760 C   0  0  0  0  0  0  0  0  0  0  0  0
   -0.2920    3.8240   20.9300 C   0  0  0  0  0  0  0  0  0  0  0  0
    0.5390    2.9610   20.6450 O   0  0  0  0  0  0  0  0  0  0  0  0
   -0.1460    5.2730   20.5050 C   0  0  0  0  0  0  0  0  0  0  0  0
    0.9830    5.4590   19.4920 C   0  0  0  0  0  0  0  0  0  0  0  0
    0.6680    6.4980   18.4110 C   0  0  0  0  0  0  0  0  0  0  0  0
    1.2240    7.9060   18.6740 C   0  0  0  0  0  0  0  0  0  0  0  0
    0.5570    8.9440   17.8920 N   0  0  0  0  0  0  0  0  0  0  0  0
    1.1720    9.3220   16.6920 C   0  0  0  0  0  0  0  0  0  0  0  0
    2.2260    8.8470   16.2770 O   0  0  0  0  0  0  0  0  0  0  0  0
    0.4510   10.3250   15.9900 C   0  0  0  0  0  0  0  0  0  0  0  0
   -0.7140   10.8610   16.4460 C   0  0  0  0  0  0  0  0  0  0  0  0
   -1.2070   11.8030   15.5950 N   0  0  0  0  0  0  0  0  0  0  0  0
   -0.3370   11.8390   14.6050 C   0  0  0  0  0  0  0  0  0  0  0  0
    0.6900   10.9550   14.8030 N   0  0  0  0  0  0  0  0  0  0  0  0
    1.8060   10.7360   13.9190 C   0  0  0  0  0  0  0  0  0  0  0  0
   -1.2790   10.4630   17.6320 N   0  0  0  0  0  0  0  0  0  0  0  0
   -2.5290   11.0550   18.0740 C   0  0  0  0  0  0  0  0  0  0  0  0
   -0.6490    9.4780   18.3940 C   0  0  0  0  0  0  0  0  0  0  0  0
   -1.1270    9.0860   19.4640 O   0  0  0  0  0  0  0  0  0  0  0  0
   -1.2264    3.5669   22.8401 H   0  0  0  0  0  0  0  0  0  0  0  0
   -2.3065    4.2013   21.5526 H   0  0  0  0  0  0  0  0  0  0  0  0
   -1.8299    2.4693   21.5526 H   0  0  0  0  0  0  0  0  0  0  0  0
   -1.0903    5.6071   20.0503 H   0  0  0  0  0  0  0  0  0  0  0  0
    0.0963    5.8674   21.3983 H   0  0  0  0  0  0  0  0  0  0  0  0
    1.8858    5.7807   20.0318 H   0  0  0  0  0  0  0  0  0  0  0  0
    1.1235    4.4941   18.9828 H   0  0  0  0  0  0  0  0  0  0  0  0
    1.0888    6.1382   17.4605 H   0  0  0  0  0  0  0  0  0  0  0  0
   -0.4271    6.6004   18.3964 H   0  0  0  0  0  0  0  0  0  0  0  0
    1.0980    8.1377   19.7419 H   0  0  0  0  0  0  0  0  0  0  0  0
    2.2823    7.9005   18.3742 H   0  0  0  0  0  0  0  0  0  0  0  0
   -0.4252   12.4976   13.7284 H   0  0  0  0  0  0  0  0  0  0  0  0
    2.7146   10.5577   14.5128 H   0  0  0  0  0  0  0  0  0  0  0  0
    1.6049    9.8602   13.2846 H   0  0  0  0  0  0  0  0  0  0  0  0
    1.9508   11.6229   13.2846 H   0  0  0  0  0  0  0  0  0  0  0  0
   -2.5593   11.0694   19.1735 H   0  0  0  0  0  0  0  0  0  0  0  0
   -2.6029   12.0838   17.6917 H   0  0  0  0  0  0  0  0  0  0  0  0
   -3.3717   10.4603   17.6917 H   0  0  0  0  0  0  0  0  0  0  0  0
  1  2  1  0
  2  3  2  0
  2  4  1  0
  4  5  1  0
  5  6  1  0
  6  7  1  0
  7  8  1  0
  8  9  1  0
  9 10  2  0
  9 11  1  0
 11 12  2  0
 12 13  1  0
 13 14  2  0
 14 15  1  0
 15 16  1  0
 12 17  1  0
 17 18  1  0
 17 19  1  0
 19 20  2  0
 19  8  1  0
 15 11  1  0
  1 21  1  0
  1 22  1  0
  1 23  1  0
  4 24  1  0
  4 25  1  0
  5 26  1  0
  5 27  1  0
  6 28  1  0
  6 29  1  0
  7 30  1  0
  7 31  1  0
 14 32  1  0
 16 33  1  0
 16 34  1  0
 16 35  1  0
 18 36  1  0
 18 37  1  0
 18 38  1  0
M  END
>  <meeko>  (7) 
{"is_sidechain": [false], "free_energy": -6.186, "intermolecular_energy": -8.095, "internal_energy": -0.23}

$$$$
3aru_ligand
     RDKit          3D

 38 39  0  0  0  0  0  0  0  0999 V2000
    2.6260   10.3990   14.4260 C   0  0  0  0  0  0  0  0  0  0  0  0
    1.3760   10.8820   13.7380 C   0  0  0  0  0  0  0  0  0  0  0  0
    1.4320   11.6980   12.8180 O   0  0  0  0  0  0  0  0  0  0  0  0
    0.0620   10.3500   14.2800 C   0  0  0  0  0  0  0  0  0  0  0  0
   -0.7720   11.4510   14.9350 C   0  0  0  0  0  0  0  0  0  0  0  0
   -1.0490   11.2030   16.4210 C   0  0  0  0  0  0  0  0  0  0  0  0
   -1.3730    9.7480   16.7940 C   0  0  0  0  0  0  0  0  0  0  0  0
   -0.8570    9.3610   18.1040 N   0  0  0  0  0  0  0  0  0  0  0  0
   -1.6880    9.5990   19.2060 C   0  0  0  0  0  0  0  0  0  0  0  0
   -2.7990   10.1190   19.1320 O   0  0  0  0  0  0  0  0  0  0  0  0
   -1.1160    9.1800   20.4360 C   0  0  0  0  0  0  0  0  0  0  0  0
    0.1170    8.6100   20.5280 C   0  0  0  0  0  0  0  0  0  0  0  0
    0.4400    8.2990   21.8140 N   0  0  0  0  0  0  0  0  0  0  0  0
   -0.6100    8.6780   22.5160 C   0  0  0  0  0  0  0  0  0  0  0  0
   -1.5820    9.2200   21.7190 N   0  0  0  0  0  0  0  0  0  0  0  0
   -2.8550    9.7320   22.1570 C   0  0  0  0  0  0  0  0  0  0  0  0
    0.9010    8.3990   19.4200 N   0  0  0  0  0  0  0  0  0  0  0  0
    2.2050    7.7770   19.5640 C   0  0  0  0  0  0  0  0  0  0  0  0
    0.4250    8.7720   18.1630 C   0  0  0  0  0  0  0  0  0  0  0  0
    1.0950    8.5940   17.1400 O   0  0  0  0  0  0  0  0  0  0  0  0
    2.4884   10.4522   15.5161 H   0  0  0  0  0  0  0  0  0  0  0  0
    2.8275    9.3583   14.1322 H   0  0  0  0  0  0  0  0  0  0  0  0
    3.4749   11.0338   14.1322 H   0  0  0  0  0  0  0  0  0  0  0  0
   -0.5139    9.9133   13.4508 H   0  0  0  0  0  0  0  0  0  0  0  0
    0.2902    9.5940   15.0458 H   0  0  0  0  0  0  0  0  0  0  0  0
   -0.2312   12.4037   14.8356 H   0  0  0  0  0  0  0  0  0  0  0  0
   -1.7451   11.4692   14.4223 H   0  0  0  0  0  0  0  0  0  0  0  0
   -0.1579   11.5091   16.9886 H   0  0  0  0  0  0  0  0  0  0  0  0
   -1.9485   11.7873   16.6647 H   0  0  0  0  0  0  0  0  0  0  0  0
   -2.4659    9.6233   16.7981 H   0  0  0  0  0  0  0  0  0  0  0  0
   -0.8861    9.1032   16.0476 H   0  0  0  0  0  0  0  0  0  0  0  0
   -0.6944    8.5717   23.6076 H   0  0  0  0  0  0  0  0  0  0  0  0
   -2.8865    9.7447   23.2565 H   0  0  0  0  0  0  0  0  0  0  0  0
   -2.9902   10.7545   21.7745 H   0  0  0  0  0  0  0  0  0  0  0  0
   -3.6605    9.0879   21.7745 H   0  0  0  0  0  0  0  0  0  0  0  0
    2.4415    7.6642   20.6323 H   0  0  0  0  0  0  0  0  0  0  0  0
    2.1941    6.7871   19.0844 H   0  0  0  0  0  0  0  0  0  0  0  0
    2.9674    8.4084   19.0844 H   0  0  0  0  0  0  0  0  0  0  0  0
  1  2  1  0
  2  3  2  0
  2  4  1  0
  4  5  1  0
  5  6  1  0
  6  7  1  0
  7  8  1  0
  8  9  1  0
  9 10  2  0
  9 11  1  0
 11 12  2  0
 12 13  1  0
 13 14  2  0
 14 15  1  0
 15 16  1  0
 12 17  1  0
 17 18  1  0
 17 19  1  0
 19 20  2  0
 19  8  1  0
 15 11  1  0
  1 21  1  0
  1 22  1  0
  1 23  1  0
  4 24  1  0
  4 25  1  0
  5 26  1  0
  5 27  1  0
  6 28  1  0
  6 29  1  0
  7 30  1  0
  7 31  1  0
 14 32  1  0
 16 33  1  0
 16 34  1  0
 16 35  1  0
 18 36  1  0
 18 37  1  0
 18 38  1  0
M  END
>  <meeko>  (8) 
{"is_sidechain": [false], "free_energy": -6.101, "intermolecular_energy": -7.771, "internal_energy": -0.445}

$$$$
3aru_ligand
     RDKit          3D

 38 39  0  0  0  0  0  0  0  0999 V2000
    2.3730   10.4450   14.6070 C   0  0  0  0  0  0  0  0  0  0  0  0
    1.3940   11.4330   14.0270 C   0  0  0  0  0  0  0  0  0  0  0  0
    1.3120   11.6060   12.8100 O   0  0  0  0  0  0  0  0  0  0  0  0
    0.5710   12.2290   15.0230 C   0  0  0  0  0  0  0  0  0  0  0  0
   -0.7070   11.4920   15.4220 C   0  0  0  0  0  0  0  0  0  0  0  0
   -0.7330   11.0700   16.8940 C   0  0  0  0  0  0  0  0  0  0  0  0
   -1.0280    9.5830   17.1450 C   0  0  0  0  0  0  0  0  0  0  0  0
   -0.5050    9.0990   18.4200 N   0  0  0  0  0  0  0  0  0  0  0  0
    0.7310    8.4410   18.3860 C   0  0  0  0  0  0  0  0  0  0  0  0
    1.3780    8.2420   17.3610 O   0  0  0  0  0  0  0  0  0  0  0  0
    1.1700    8.0170   19.6680 C   0  0  0  0  0  0  0  0  0  0  0  0
    0.4560    8.2270   20.8070 C   0  0  0  0  0  0  0  0  0  0  0  0
    1.0880    7.7240   21.9040 N   0  0  0  0  0  0  0  0  0  0  0  0
    2.2040    7.2070   21.4310 C   0  0  0  0  0  0  0  0  0  0  0  0
    2.2970    7.3610   20.0740 N   0  0  0  0  0  0  0  0  0  0  0  0
    3.3830    6.9160   19.2390 C   0  0  0  0  0  0  0  0  0  0  0  0
   -0.7560    8.8730   20.7930 N   0  0  0  0  0  0  0  0  0  0  0  0
   -1.4780    9.0850   22.0350 C   0  0  0  0  0  0  0  0  0  0  0  0
   -1.2720    9.3340   19.5810 C   0  0  0  0  0  0  0  0  0  0  0  0
   -2.3550    9.9260   19.5250 O   0  0  0  0  0  0  0  0  0  0  0  0
    2.3303   10.4881   15.7053 H   0  0  0  0  0  0  0  0  0  0  0  0
    2.1137    9.4307   14.2695 H   0  0  0  0  0  0  0  0  0  0  0  0
    3.3897   10.6950   14.2695 H   0  0  0  0  0  0  0  0  0  0  0  0
    1.1763   12.4054   15.9244 H   0  0  0  0  0  0  0  0  0  0  0  0
    0.2835   13.1782   14.5472 H   0  0  0  0  0  0  0  0  0  0  0  0
   -1.5645   12.1549   15.2344 H   0  0  0  0  0  0  0  0  0  0  0  0
   -0.7521   10.5723   14.8203 H   0  0  0  0  0  0  0  0  0  0  0  0
    0.2499   11.3001   17.3310 H   0  0  0  0  0  0  0  0  0  0  0  0
   -1.5616   11.6270   17.3558 H   0  0  0  0  0  0  0  0  0  0  0  0
   -2.1182    9.4367   17.1364 H   0  0  0  0  0  0  0  0  0  0  0  0
   -0.5277    9.0120   16.3490 H   0  0  0  0  0  0  0  0  0  0  0  0
    2.9669    6.7126   22.0503 H   0  0  0  0  0  0  0  0  0  0  0  0
    4.2158    6.5748   19.8715 H   0  0  0  0  0  0  0  0  0  0  0  0
    3.0408    6.0856   18.6039 H   0  0  0  0  0  0  0  0  0  0  0  0
    3.7218    7.7478   18.6039 H   0  0  0  0  0  0  0  0  0  0  0  0
   -0.8092    8.8886   22.8860 H   0  0  0  0  0  0  0  0  0  0  0  0
   -1.8328   10.1252   22.0799 H   0  0  0  0  0  0  0  0  0  0  0  0
   -2.3389    8.4017   22.0799 H   0  0  0  0  0  0  0  0  0  0  0  0
  1  2  1  0
  2  3  2  0
  2  4  1  0
  4  5  1  0
  5  6  1  0
  6  7  1  0
  7  8  1  0
  8  9  1  0
  9 10  2  0
  9 11  1  0
 11 12  2  0
 12 13  1  0
 13 14  2  0
 14 15  1  0
 15 16  1  0
 12 17  1  0
 17 18  1  0
 17 19  1  0
 19 20  2  0
 19  8  1  0
 15 11  1  0
  1 21  1  0
  1 22  1  0
  1 23  1  0
  4 24  1  0
  4 25  1  0
  5 26  1  0
  5 27  1  0
  6 28  1  0
  6 29  1  0
  7 30  1  0
  7 31  1  0
 14 32  1  0
 16 33  1  0
 16 34  1  0
 16 35  1  0
 18 36  1  0
 18 37  1  0
 18 38  1  0
M  END
>  <meeko>  (9) 
{"is_sidechain": [false], "free_energy": -6.062, "intermolecular_energy": -7.799, "internal_energy": -0.366}

$$$$
