3ozt_ligand
     RDKit          3D

 50 52  0  0  0  0  0  0  0  0999 V2000
   26.5120  -10.3160   -1.5200 O   0  0  0  0  0  0  0  0  0  0  0  0
   26.8950   -9.9830   -0.4030 C   0  0  0  0  0  0  0  0  0  0  0  0
   26.1260   -9.2570    0.4810 N   0  0  0  0  0  0  0  0  0  0  0  0
   24.7720   -8.8720    0.1590 C   0  0  0  0  0  0  0  0  0  0  0  0
   24.7130   -7.3770    0.1810 C   0  0  0  0  0  0  0  0  0  0  0  0
   23.9790   -6.6300   -0.6620 C   0  0  0  0  0  0  0  0  0  0  0  0
   23.9460   -5.1270   -0.6380 C   0  0  1  0  0  0  0  0  0  0  0  0
   22.7500   -4.7150   -1.3190 O   0  0  0  0  0  0  0  0  0  0  0  0
   21.8610   -4.1010   -0.3640 C   0  0  1  0  0  0  0  0  0  0  0  0
   20.4610   -4.5640   -0.5360 N   0  0  0  0  0  0  0  0  0  0  0  0
   19.3680   -3.8630   -0.0330 C   0  0  0  0  0  0  0  0  0  0  0  0
   18.0920   -4.2440   -0.1740 C   0  0  0  0  0  0  0  0  0  0  0  0
   17.8150   -5.4960   -0.9160 C   0  0  0  0  0  0  0  0  0  0  0  0
   16.6680   -5.8930   -1.0880 O   0  0  0  0  0  0  0  0  0  0  0  0
   18.9770   -6.2470   -1.4420 C   0  0  0  0  0  0  0  0  0  0  0  0
   20.2010   -5.7480   -1.2240 C   0  0  0  0  0  0  0  0  0  0  0  0
   22.4010   -4.4470    1.0360 C   0  0  2  0  0  0  0  0  0  0  0  0
   22.1190   -3.4630    2.0340 O   0  0  0  0  0  0  0  0  0  0  0  0
   23.8910   -4.5410    0.7730 C   0  0  2  0  0  0  0  0  0  0  0  0
   24.4330   -3.2060    0.8100 O   0  0  0  0  0  0  0  0  0  0  0  0
   28.2420  -10.4220    0.0580 C   0  0  0  0  0  0  0  0  0  0  0  0
   28.4030  -11.1220    1.2620 C   0  0  0  0  0  0  0  0  0  0  0  0
   29.6870  -11.5310    1.6600 C   0  0  0  0  0  0  0  0  0  0  0  0
   29.8490  -12.2720    2.9170 N   0  0  0  0  0  0  0  0  0  0  0  0
   31.0040  -12.5280    3.2850 O   0  0  0  0  0  0  0  0  0  0  0  0
   28.8230  -12.5910    3.5350 O   0  0  0  0  0  0  0  0  0  0  0  0
   30.8130  -11.2430    0.8810 C   0  0  0  0  0  0  0  0  0  0  0  0
   30.6460  -10.5290   -0.3020 C   0  0  0  0  0  0  0  0  0  0  0  0
   31.7310  -10.2240   -1.0770 O   0  0  0  0  0  0  0  0  0  0  0  0
   29.3750  -10.1090   -0.7130 C   0  0  0  0  0  0  0  0  0  0  0  0
   29.2890   -9.3960   -1.8820 O   0  0  0  0  0  0  0  0  0  0  0  0
   26.3820   -9.2130    1.4570 H   0  0  0  0  0  0  0  0  0  0  0  0
   24.5033   -9.2439   -0.8407 H   0  0  0  0  0  0  0  0  0  0  0  0
   24.0645   -9.2987    0.8852 H   0  0  0  0  0  0  0  0  0  0  0  0
   25.3121   -6.8525    0.9400 H   0  0  0  0  0  0  0  0  0  0  0  0
   23.3663   -7.1491   -1.4138 H   0  0  0  0  0  0  0  0  0  0  0  0
   24.8713   -4.7668   -1.1112 H   0  0  0  0  0  0  0  0  0  0  0  0
   21.8337   -3.0114   -0.5123 H   0  0  0  0  0  0  0  0  0  0  0  0
   19.5665   -2.9320    0.5182 H   0  0  0  0  0  0  0  0  0  0  0  0
   17.2727   -3.6443    0.2492 H   0  0  0  0  0  0  0  0  0  0  0  0
   18.8395   -7.1874   -1.9958 H   0  0  0  0  0  0  0  0  0  0  0  0
   21.0607   -6.3119   -1.6152 H   0  0  0  0  0  0  0  0  0  0  0  0
   21.9366   -5.3557    1.4466 H   0  0  0  0  0  0  0  0  0  0  0  0
   21.6850   -3.9530    2.7640 H   0  0  0  0  0  0  0  0  0  0  0  0
   24.4605   -5.1445    1.4951 H   0  0  0  0  0  0  0  0  0  0  0  0
   25.0120   -3.1070    0.0310 H   0  0  0  0  0  0  0  0  0  0  0  0
   27.5298  -11.3496    1.8910 H   0  0  0  0  0  0  0  0  0  0  0  0
   31.8126  -11.5750    1.1979 H   0  0  0  0  0  0  0  0  0  0  0  0
   32.4500  -10.8550   -0.9170 H   0  0  0  0  0  0  0  0  0  0  0  0
   29.4920   -8.4540   -1.6910 H   0  0  0  0  0  0  0  0  0  0  0  0
  1  2  2  0
  2  3  1  0
  3  4  1  0
  4  5  1  0
  5  6  2  0
  6  7  1  0
  7  8  1  0
  8  9  1  0
  9 10  1  0
 10 11  1  0
 11 12  2  0
 12 13  1  0
 13 14  2  0
 13 15  1  0
 15 16  2  0
  9 17  1  0
 17 18  1  0
 17 19  1  0
 19 20  1  0
  2 21  1  0
 21 22  2  0
 22 23  1  0
 23 24  1  0
 24 25  2  0
 24 26  1  0
 23 27  2  0
 27 28  1  0
 28 29  1  0
 28 30  2  0
 30 31  1  0
 19  7  1  0
 30 21  1  0
 16 10  1  0
  3 32  1  0
  4 33  1  0
  4 34  1  0
  5 35  1  0
  6 36  1  0
  7 37  1  6
  9 38  1  6
 11 39  1  0
 12 40  1  0
 15 41  1  0
 16 42  1  0
 17 43  1  1
 18 44  1  0
 19 45  1  1
 20 46  1  0
 22 47  1  0
 27 48  1  0
 29 49  1  0
 31 50  1  0
M  CHG  2  24   1  26  -1
M  END
>  <meeko>  (1) 
{"is_sidechain": [false], "free_energy": -9.531, "intermolecular_energy": -13.988, "internal_energy": -1.056}

$$$$
3ozt_ligand
     RDKit          3D

 50 52  0  0  0  0  0  0  0  0999 V2000
   27.1790  -10.2900   -1.4830 O   0  0  0  0  0  0  0  0  0  0  0  0
   27.3790  -10.0950   -0.2880 C   0  0  0  0  0  0  0  0  0  0  0  0
   26.4720   -9.4750    0.5440 N   0  0  0  0  0  0  0  0  0  0  0  0
   25.1800   -9.0470    0.0610 C   0  0  0  0  0  0  0  0  0  0  0  0
   25.1950   -7.5510    0.0050 C   0  0  0  0  0  0  0  0  0  0  0  0
   24.1550   -6.7920   -0.3790 C   0  0  0  0  0  0  0  0  0  0  0  0
   24.1940   -5.2900   -0.4480 C   0  0  1  0  0  0  0  0  0  0  0  0
   23.0490   -4.8670   -1.2070 O   0  0  0  0  0  0  0  0  0  0  0  0
   22.1500   -4.1550   -0.3320 C   0  0  1  0  0  0  0  0  0  0  0  0
   20.7390   -4.5640   -0.5400 N   0  0  0  0  0  0  0  0  0  0  0  0
   19.6600   -3.8100   -0.0830 C   0  0  0  0  0  0  0  0  0  0  0  0
   18.3750   -4.1410   -0.2590 C   0  0  0  0  0  0  0  0  0  0  0  0
   18.0690   -5.3940   -0.9870 C   0  0  0  0  0  0  0  0  0  0  0  0
   16.9120   -5.7470   -1.1880 O   0  0  0  0  0  0  0  0  0  0  0  0
   19.2150   -6.2020   -1.4630 C   0  0  0  0  0  0  0  0  0  0  0  0
   20.4500   -5.7490   -1.2150 C   0  0  0  0  0  0  0  0  0  0  0  0
   22.6120   -4.4370    1.1090 C   0  0  2  0  0  0  0  0  0  0  0  0
   22.3350   -3.3810    2.0330 O   0  0  0  0  0  0  0  0  0  0  0  0
   24.1060   -4.6150    0.9220 C   0  0  2  0  0  0  0  0  0  0  0  0
   24.7100   -3.3060    0.9030 O   0  0  0  0  0  0  0  0  0  0  0  0
   28.6430  -10.5940    0.3240 C   0  0  0  0  0  0  0  0  0  0  0  0
   29.8780  -10.4080   -0.3130 C   0  0  0  0  0  0  0  0  0  0  0  0
   31.0510  -10.8820    0.2980 C   0  0  0  0  0  0  0  0  0  0  0  0
   32.3430  -10.6770   -0.3680 N   0  0  0  0  0  0  0  0  0  0  0  0
   32.3400  -10.0630   -1.4440 O   0  0  0  0  0  0  0  0  0  0  0  0
   33.3550  -11.1260    0.1880 O   0  0  0  0  0  0  0  0  0  0  0  0
   31.0090  -11.5460    1.5300 C   0  0  0  0  0  0  0  0  0  0  0  0
   29.7760  -11.7440    2.1440 C   0  0  0  0  0  0  0  0  0  0  0  0
   29.7050  -12.4010    3.3410 O   0  0  0  0  0  0  0  0  0  0  0  0
   28.5960  -11.2840    1.5480 C   0  0  0  0  0  0  0  0  0  0  0  0
   27.4150  -11.5290    2.2030 O   0  0  0  0  0  0  0  0  0  0  0  0
   26.5710   -9.5490    1.5460 H   0  0  0  0  0  0  0  0  0  0  0  0
   24.9987   -9.4588   -0.9428 H   0  0  0  0  0  0  0  0  0  0  0  0
   24.3797   -9.4023    0.7268 H   0  0  0  0  0  0  0  0  0  0  0  0
   26.1223   -7.0373    0.2988 H   0  0  0  0  0  0  0  0  0  0  0  0
   23.2199   -7.2989   -0.6594 H   0  0  0  0  0  0  0  0  0  0  0  0
   25.1551   -5.0027   -0.8994 H   0  0  0  0  0  0  0  0  0  0  0  0
   22.1813   -3.0766   -0.5464 H   0  0  0  0  0  0  0  0  0  0  0  0
   19.8793   -2.8787    0.4597 H   0  0  0  0  0  0  0  0  0  0  0  0
   17.5684   -3.5000    0.1265 H   0  0  0  0  0  0  0  0  0  0  0  0
   19.0562   -7.1464   -2.0043 H   0  0  0  0  0  0  0  0  0  0  0  0
   21.2971   -6.3549   -1.5690 H   0  0  0  0  0  0  0  0  0  0  0  0
   22.0866   -5.2965    1.5509 H   0  0  0  0  0  0  0  0  0  0  0  0
   21.3660   -3.4140    2.1800 H   0  0  0  0  0  0  0  0  0  0  0  0
   24.6135   -5.1974    1.7051 H   0  0  0  0  0  0  0  0  0  0  0  0
   24.0610   -2.6940    0.5090 H   0  0  0  0  0  0  0  0  0  0  0  0
   29.9282   -9.8945   -1.2845 H   0  0  0  0  0  0  0  0  0  0  0  0
   31.9344  -11.9048    2.0042 H   0  0  0  0  0  0  0  0  0  0  0  0
   28.9480  -13.0080    3.3510 H   0  0  0  0  0  0  0  0  0  0  0  0
   26.8340  -12.0590    1.6150 H   0  0  0  0  0  0  0  0  0  0  0  0
  1  2  2  0
  2  3  1  0
  3  4  1  0
  4  5  1  0
  5  6  2  0
  6  7  1  0
  7  8  1  0
  8  9  1  0
  9 10  1  0
 10 11  1  0
 11 12  2  0
 12 13  1  0
 13 14  2  0
 13 15  1  0
 15 16  2  0
  9 17  1  0
 17 18  1  0
 17 19  1  0
 19 20  1  0
  2 21  1  0
 21 22  2  0
 22 23  1  0
 23 24  1  0
 24 25  2  0
 24 26  1  0
 23 27  2  0
 27 28  1  0
 28 29  1  0
 28 30  2  0
 30 31  1  0
 19  7  1  0
 30 21  1  0
 16 10  1  0
  3 32  1  0
  4 33  1  0
  4 34  1  0
  5 35  1  0
  6 36  1  0
  7 37  1  6
  9 38  1  6
 11 39  1  0
 12 40  1  0
 15 41  1  0
 16 42  1  0
 17 43  1  1
 18 44  1  0
 19 45  1  1
 20 46  1  0
 22 47  1  0
 27 48  1  0
 29 49  1  0
 31 50  1  0
M  CHG  2  24   1  26  -1
M  END
>  <meeko>  (2) 
{"is_sidechain": [false], "free_energy": -9.179, "intermolecular_energy": -13.56, "internal_energy": -0.967}

$$$$
3ozt_ligand
     RDKit          3D

 50 52  0  0  0  0  0  0  0  0999 V2000
   21.6260   -0.3920   -0.2990 O   0  0  0  0  0  0  0  0  0  0  0  0
   21.1410   -1.5160   -0.3970 C   0  0  0  0  0  0  0  0  0  0  0  0
   19.9180   -1.7680   -0.9810 N   0  0  0  0  0  0  0  0  0  0  0  0
   19.1330   -0.7090   -1.5690 C   0  0  0  0  0  0  0  0  0  0  0  0
   17.8590   -0.6090   -0.7890 C   0  0  0  0  0  0  0  0  0  0  0  0
   16.6680   -0.2760   -1.3140 C   0  0  0  0  0  0  0  0  0  0  0  0
   15.4010   -0.1620   -0.5120 C   0  0  1  0  0  0  0  0  0  0  0  0
   15.1210    1.2390   -0.3530 O   0  0  0  0  0  0  0  0  0  0  0  0
   13.9180    1.5570   -1.0830 C   0  0  1  0  0  0  0  0  0  0  0  0
   14.0580    2.8150   -1.8560 N   0  0  0  0  0  0  0  0  0  0  0  0
   13.0200    3.7340   -1.9970 C   0  0  0  0  0  0  0  0  0  0  0  0
   13.1110    4.8820   -2.6790 C   0  0  0  0  0  0  0  0  0  0  0  0
   14.4000    5.2070   -3.3320 C   0  0  0  0  0  0  0  0  0  0  0  0
   14.5490    6.2480   -3.9620 O   0  0  0  0  0  0  0  0  0  0  0  0
   15.5010    4.2270   -3.1920 C   0  0  0  0  0  0  0  0  0  0  0  0
   15.2680    3.1170   -2.4800 C   0  0  0  0  0  0  0  0  0  0  0  0
   13.6240    0.3590   -2.0050 C   0  0  2  0  0  0  0  0  0  0  0  0
   12.2360    0.1570   -2.2830 O   0  0  0  0  0  0  0  0  0  0  0  0
   14.1880   -0.7930   -1.1960 C   0  0  2  0  0  0  0  0  0  0  0  0
   13.1890   -1.1900   -0.2350 O   0  0  0  0  0  0  0  0  0  0  0  0
   21.9250   -2.6850    0.0900 C   0  0  0  0  0  0  0  0  0  0  0  0
   22.0550   -2.9500    1.4600 C   0  0  0  0  0  0  0  0  0  0  0  0
   22.7920   -4.0690    1.8830 C   0  0  0  0  0  0  0  0  0  0  0  0
   22.9180   -4.3470    3.3190 N   0  0  0  0  0  0  0  0  0  0  0  0
   22.5930   -3.4470    4.1070 O   0  0  0  0  0  0  0  0  0  0  0  0
   23.3350   -5.4640    3.6550 O   0  0  0  0  0  0  0  0  0  0  0  0
   23.4090   -4.9210    0.9600 C   0  0  0  0  0  0  0  0  0  0  0  0
   23.2920   -4.6380   -0.3970 C   0  0  0  0  0  0  0  0  0  0  0  0
   23.8950   -5.4470   -1.3200 O   0  0  0  0  0  0  0  0  0  0  0  0
   22.5660   -3.5250   -0.8380 C   0  0  0  0  0  0  0  0  0  0  0  0
   22.5070   -3.2990   -2.1900 O   0  0  0  0  0  0  0  0  0  0  0  0
   19.6710   -2.7090   -1.2520 H   0  0  0  0  0  0  0  0  0  0  0  0
   19.6832    0.2419   -1.5136 H   0  0  0  0  0  0  0  0  0  0  0  0
   18.9241   -0.9227   -2.6276 H   0  0  0  0  0  0  0  0  0  0  0  0
   17.9010   -0.8231    0.2891 H   0  0  0  0  0  0  0  0  0  0  0  0
   16.6166   -0.0749   -2.3942 H   0  0  0  0  0  0  0  0  0  0  0  0
   15.5601   -0.6928    0.4382 H   0  0  0  0  0  0  0  0  0  0  0  0
   13.0828    1.7270   -0.3877 H   0  0  0  0  0  0  0  0  0  0  0  0
   12.0596    3.4998   -1.5145 H   0  0  0  0  0  0  0  0  0  0  0  0
   12.2521    5.5653   -2.7525 H   0  0  0  0  0  0  0  0  0  0  0  0
   16.4809    4.4053   -3.6588 H   0  0  0  0  0  0  0  0  0  0  0  0
   16.0893    2.3921   -2.3803 H   0  0  0  0  0  0  0  0  0  0  0  0
   14.0596    0.4904   -3.0065 H   0  0  0  0  0  0  0  0  0  0  0  0
   11.8460   -0.1510   -1.4370 H   0  0  0  0  0  0  0  0  0  0  0  0
   14.4588   -1.6881   -1.7752 H   0  0  0  0  0  0  0  0  0  0  0  0
   12.3220   -0.9230   -0.5920 H   0  0  0  0  0  0  0  0  0  0  0  0
   21.5831   -2.2862    2.1994 H   0  0  0  0  0  0  0  0  0  0  0  0
   23.9766   -5.7992    1.3016 H   0  0  0  0  0  0  0  0  0  0  0  0
   24.1180   -6.3050   -0.9260 H   0  0  0  0  0  0  0  0  0  0  0  0
   22.7660   -4.1230   -2.6580 H   0  0  0  0  0  0  0  0  0  0  0  0
  1  2  2  0
  2  3  1  0
  3  4  1  0
  4  5  1  0
  5  6  2  0
  6  7  1  0
  7  8  1  0
  8  9  1  0
  9 10  1  0
 10 11  1  0
 11 12  2  0
 12 13  1  0
 13 14  2  0
 13 15  1  0
 15 16  2  0
  9 17  1  0
 17 18  1  0
 17 19  1  0
 19 20  1  0
  2 21  1  0
 21 22  2  0
 22 23  1  0
 23 24  1  0
 24 25  2  0
 24 26  1  0
 23 27  2  0
 27 28  1  0
 28 29  1  0
 28 30  2  0
 30 31  1  0
 19  7  1  0
 30 21  1  0
 16 10  1  0
  3 32  1  0
  4 33  1  0
  4 34  1  0
  5 35  1  0
  6 36  1  0
  7 37  1  1
  9 38  1  1
 11 39  1  0
 12 40  1  0
 15 41  1  0
 16 42  1  0
 17 43  1  6
 18 44  1  0
 19 45  1  6
 20 46  1  0
 22 47  1  0
 27 48  1  0
 29 49  1  0
 31 50  1  0
M  CHG  2  24   1  26  -1
M  END
>  <meeko>  (3) 
{"is_sidechain": [false], "free_energy": -9.091, "intermolecular_energy": -13.414, "internal_energy": -0.984}

$$$$
3ozt_ligand
     RDKit          3D

 50 52  0  0  0  0  0  0  0  0999 V2000
   23.1950   -8.1570    0.5630 O   0  0  0  0  0  0  0  0  0  0  0  0
   24.3050   -7.7040    0.2980 C   0  0  0  0  0  0  0  0  0  0  0  0
   24.6990   -6.4230    0.6140 N   0  0  0  0  0  0  0  0  0  0  0  0
   23.8290   -5.5250    1.3370 C   0  0  0  0  0  0  0  0  0  0  0  0
   23.2340   -4.5790    0.3410 C   0  0  0  0  0  0  0  0  0  0  0  0
   22.6440   -3.4130    0.6550 C   0  0  0  0  0  0  0  0  0  0  0  0
   22.0340   -2.4830   -0.3580 C   0  0  1  0  0  0  0  0  0  0  0  0
   21.1440   -3.2630   -1.1730 O   0  0  0  0  0  0  0  0  0  0  0  0
   19.7900   -2.8320   -0.9240 C   0  0  1  0  0  0  0  0  0  0  0  0
   18.8630   -3.9810   -0.7750 N   0  0  0  0  0  0  0  0  0  0  0  0
   17.4790   -3.8340   -0.7420 C   0  0  0  0  0  0  0  0  0  0  0  0
   16.6110   -4.8460   -0.6180 C   0  0  0  0  0  0  0  0  0  0  0  0
   17.1520   -6.2200   -0.5060 C   0  0  0  0  0  0  0  0  0  0  0  0
   16.4090   -7.1900   -0.4000 O   0  0  0  0  0  0  0  0  0  0  0  0
   18.6240   -6.3770   -0.5300 C   0  0  0  0  0  0  0  0  0  0  0  0
   19.3720   -5.2740   -0.6590 C   0  0  0  0  0  0  0  0  0  0  0  0
   19.8240   -1.9670    0.3500 C   0  0  2  0  0  0  0  0  0  0  0  0
   18.8200   -0.9480    0.3950 O   0  0  0  0  0  0  0  0  0  0  0  0
   21.2100   -1.3580    0.2680 C   0  0  2  0  0  0  0  0  0  0  0  0
   21.1400   -0.2100   -0.6020 O   0  0  0  0  0  0  0  0  0  0  0  0
   25.3080   -8.5910   -0.3570 C   0  0  0  0  0  0  0  0  0  0  0  0
   26.6670   -8.5200   -0.0190 C   0  0  0  0  0  0  0  0  0  0  0  0
   27.5830   -9.3780   -0.6480 C   0  0  0  0  0  0  0  0  0  0  0  0
   29.0040   -9.3060   -0.2840 N   0  0  0  0  0  0  0  0  0  0  0  0
   29.8310   -9.6580   -1.1370 O   0  0  0  0  0  0  0  0  0  0  0  0
   29.2890   -8.8960    0.8490 O   0  0  0  0  0  0  0  0  0  0  0  0
   27.1660  -10.3000   -1.6150 C   0  0  0  0  0  0  0  0  0  0  0  0
   25.8190  -10.3490   -1.9590 C   0  0  0  0  0  0  0  0  0  0  0  0
   25.3860  -11.2320   -2.9090 O   0  0  0  0  0  0  0  0  0  0  0  0
   24.8910   -9.4980   -1.3460 C   0  0  0  0  0  0  0  0  0  0  0  0
   23.5820   -9.5910   -1.7470 O   0  0  0  0  0  0  0  0  0  0  0  0
   25.6780   -6.1750    0.5950 H   0  0  0  0  0  0  0  0  0  0  0  0
   23.0319   -6.0950    1.8368 H   0  0  0  0  0  0  0  0  0  0  0  0
   24.3911   -4.9756    2.1066 H   0  0  0  0  0  0  0  0  0  0  0  0
   23.2831   -4.8576   -0.7220 H   0  0  0  0  0  0  0  0  0  0  0  0
   22.6048   -3.1216    1.7150 H   0  0  0  0  0  0  0  0  0  0  0  0
   22.8567   -2.0186   -0.9215 H   0  0  0  0  0  0  0  0  0  0  0  0
   19.4098   -2.2530   -1.7785 H   0  0  0  0  0  0  0  0  0  0  0  0
   17.0702   -2.8160   -0.8234 H   0  0  0  0  0  0  0  0  0  0  0  0
   15.5267   -4.6620   -0.5998 H   0  0  0  0  0  0  0  0  0  0  0  0
   19.0892   -7.3701   -0.4444 H   0  0  0  0  0  0  0  0  0  0  0  0
   20.4651   -5.3965   -0.6746 H   0  0  0  0  0  0  0  0  0  0  0  0
   19.6207   -2.5560    1.2565 H   0  0  0  0  0  0  0  0  0  0  0  0
   18.0200   -1.3580    0.0040 H   0  0  0  0  0  0  0  0  0  0  0  0
   21.6327   -1.0171    1.2246 H   0  0  0  0  0  0  0  0  0  0  0  0
   21.7410   -0.3790   -1.3520 H   0  0  0  0  0  0  0  0  0  0  0  0
   27.0131   -7.7968    0.7341 H   0  0  0  0  0  0  0  0  0  0  0  0
   27.8909  -10.9742   -2.0946 H   0  0  0  0  0  0  0  0  0  0  0  0
   24.4370  -11.4030   -2.8070 H   0  0  0  0  0  0  0  0  0  0  0  0
   23.3250  -10.5380   -1.7640 H   0  0  0  0  0  0  0  0  0  0  0  0
  1  2  2  0
  2  3  1  0
  3  4  1  0
  4  5  1  0
  5  6  2  0
  6  7  1  0
  7  8  1  0
  8  9  1  0
  9 10  1  0
 10 11  1  0
 11 12  2  0
 12 13  1  0
 13 14  2  0
 13 15  1  0
 15 16  2  0
  9 17  1  0
 17 18  1  0
 17 19  1  0
 19 20  1  0
  2 21  1  0
 21 22  2  0
 22 23  1  0
 23 24  1  0
 24 25  2  0
 24 26  1  0
 23 27  2  0
 27 28  1  0
 28 29  1  0
 28 30  2  0
 30 31  1  0
 19  7  1  0
 30 21  1  0
 16 10  1  0
  3 32  1  0
  4 33  1  0
  4 34  1  0
  5 35  1  0
  6 36  1  0
  7 37  1  6
  9 38  1  6
 11 39  1  0
 12 40  1  0
 15 41  1  0
 16 42  1  0
 17 43  1  1
 18 44  1  0
 19 45  1  1
 20 46  1  0
 22 47  1  0
 27 48  1  0
 29 49  1  0
 31 50  1  0
M  CHG  2  24   1  26  -1
M  END
>  <meeko>  (4) 
{"is_sidechain": [false], "free_energy": -8.789, "intermolecular_energy": -12.823, "internal_energy": -1.131}

$$$$
3ozt_ligand
     RDKit          3D

 50 52  0  0  0  0  0  0  0  0999 V2000
   23.2860   -4.7200   -0.9040 O   0  0  0  0  0  0  0  0  0  0  0  0
   22.4600   -5.4980   -0.4350 C   0  0  0  0  0  0  0  0  0  0  0  0
   22.7970   -6.6290    0.2750 N   0  0  0  0  0  0  0  0  0  0  0  0
   24.1750   -6.9550    0.5600 C   0  0  0  0  0  0  0  0  0  0  0  0
   24.7480   -7.5910   -0.6670 C   0  0  0  0  0  0  0  0  0  0  0  0
   24.0330   -8.2730   -1.5780 C   0  0  0  0  0  0  0  0  0  0  0  0
   24.6290   -8.9220   -2.7970 C   0  0  1  0  0  0  0  0  0  0  0  0
   26.0560   -8.9270   -2.6240 O   0  0  0  0  0  0  0  0  0  0  0  0
   26.5020  -10.2910   -2.4800 C   0  0  1  0  0  0  0  0  0  0  0  0
   27.4900  -10.4350   -1.3830 N   0  0  0  0  0  0  0  0  0  0  0  0
   27.6190  -11.6020   -0.6330 C   0  0  0  0  0  0  0  0  0  0  0  0
   28.5030  -11.7730    0.3580 C   0  0  0  0  0  0  0  0  0  0  0  0
   29.4110  -10.6490    0.6860 C   0  0  0  0  0  0  0  0  0  0  0  0
   30.2490  -10.7470    1.5750 O   0  0  0  0  0  0  0  0  0  0  0  0
   29.2680   -9.4050   -0.1040 C   0  0  0  0  0  0  0  0  0  0  0  0
   28.3370   -9.3740   -1.0660 C   0  0  0  0  0  0  0  0  0  0  0  0
   25.2470  -11.1460   -2.2240 C   0  0  2  0  0  0  0  0  0  0  0  0
   25.3440  -12.4900   -2.7020 O   0  0  0  0  0  0  0  0  0  0  0  0
   24.1900  -10.3740   -2.9900 C   0  0  2  0  0  0  0  0  0  0  0  0
   24.2700  -10.7680   -4.3750 O   0  0  0  0  0  0  0  0  0  0  0  0
   21.0100   -5.1900   -0.5900 C   0  0  0  0  0  0  0  0  0  0  0  0
   20.1380   -6.0990   -1.2060 C   0  0  0  0  0  0  0  0  0  0  0  0
   18.7750   -5.7810   -1.3240 C   0  0  0  0  0  0  0  0  0  0  0  0
   17.8650   -6.7400   -1.9620 N   0  0  0  0  0  0  0  0  0  0  0  0
   16.9750   -7.2390   -1.2580 O   0  0  0  0  0  0  0  0  0  0  0  0
   18.0380   -6.9880   -3.1640 O   0  0  0  0  0  0  0  0  0  0  0  0
   18.2700   -4.5660   -0.8460 C   0  0  0  0  0  0  0  0  0  0  0  0
   19.1470   -3.6610   -0.2550 C   0  0  0  0  0  0  0  0  0  0  0  0
   18.6830   -2.4620    0.2100 O   0  0  0  0  0  0  0  0  0  0  0  0
   20.5100   -3.9590   -0.1320 C   0  0  0  0  0  0  0  0  0  0  0  0
   21.3180   -3.0120    0.4470 O   0  0  0  0  0  0  0  0  0  0  0  0
   22.1030   -7.1010    0.8370 H   0  0  0  0  0  0  0  0  0  0  0  0
   24.7346   -6.0403    0.8055 H   0  0  0  0  0  0  0  0  0  0  0  0
   24.2424   -7.6387    1.4191 H   0  0  0  0  0  0  0  0  0  0  0  0
   25.8307   -7.4936   -0.8354 H   0  0  0  0  0  0  0  0  0  0  0  0
   22.9476   -8.3618   -1.4230 H   0  0  0  0  0  0  0  0  0  0  0  0
   24.2912   -8.3526   -3.6754 H   0  0  0  0  0  0  0  0  0  0  0  0
   27.0202  -10.6230   -3.3917 H   0  0  0  0  0  0  0  0  0  0  0  0
   26.9484  -12.4407   -0.8714 H   0  0  0  0  0  0  0  0  0  0  0  0
   28.5537  -12.7213    0.9131 H   0  0  0  0  0  0  0  0  0  0  0  0
   29.9076   -8.5321    0.0934 H   0  0  0  0  0  0  0  0  0  0  0  0
   28.2332   -8.4458   -1.6472 H   0  0  0  0  0  0  0  0  0  0  0  0
   25.0486  -11.2786   -1.1502 H   0  0  0  0  0  0  0  0  0  0  0  0
   25.1090  -13.0540   -1.9350 H   0  0  0  0  0  0  0  0  0  0  0  0
   23.1534  -10.5408   -2.6619 H   0  0  0  0  0  0  0  0  0  0  0  0
   25.0910  -11.2830   -4.4820 H   0  0  0  0  0  0  0  0  0  0  0  0
   20.5189   -7.0551   -1.5944 H   0  0  0  0  0  0  0  0  0  0  0  0
   17.1992   -4.3307   -0.9359 H   0  0  0  0  0  0  0  0  0  0  0  0
   18.8370   -1.7620   -0.4440 H   0  0  0  0  0  0  0  0  0  0  0  0
   21.0390   -2.1250    0.1300 H   0  0  0  0  0  0  0  0  0  0  0  0
  1  2  2  0
  2  3  1  0
  3  4  1  0
  4  5  1  0
  5  6  2  0
  6  7  1  0
  7  8  1  0
  8  9  1  0
  9 10  1  0
 10 11  1  0
 11 12  2  0
 12 13  1  0
 13 14  2  0
 13 15  1  0
 15 16  2  0
  9 17  1  0
 17 18  1  0
 17 19  1  0
 19 20  1  0
  2 21  1  0
 21 22  2  0
 22 23  1  0
 23 24  1  0
 24 25  2  0
 24 26  1  0
 23 27  2  0
 27 28  1  0
 28 29  1  0
 28 30  2  0
 30 31  1  0
 19  7  1  0
 30 21  1  0
 16 10  1  0
  3 32  1  0
  4 33  1  0
  4 34  1  0
  5 35  1  0
  6 36  1  0
  7 37  1  6
  9 38  1  6
 11 39  1  0
 12 40  1  0
 15 41  1  0
 16 42  1  0
 17 43  1  1
 18 44  1  0
 19 45  1  1
 20 46  1  0
 22 47  1  0
 27 48  1  0
 29 49  1  0
 31 50  1  0
M  CHG  2  24   1  26  -1
M  END
>  <meeko>  (5) 
{"is_sidechain": [false], "free_energy": -8.643, "intermolecular_energy": -12.766, "internal_energy": -0.975}

$$$$
3ozt_ligand
     RDKit          3D

 50 52  0  0  0  0  0  0  0  0999 V2000
   17.2580   -5.3790    0.3450 O   0  0  0  0  0  0  0  0  0  0  0  0
   17.4000   -5.0810   -0.8370 C   0  0  0  0  0  0  0  0  0  0  0  0
   18.3120   -5.6910   -1.6710 N   0  0  0  0  0  0  0  0  0  0  0  0
   19.1470   -6.7750   -1.2080 C   0  0  0  0  0  0  0  0  0  0  0  0
   20.5710   -6.3330   -1.3400 C   0  0  0  0  0  0  0  0  0  0  0  0
   21.6370   -7.0970   -1.0480 C   0  0  0  0  0  0  0  0  0  0  0  0
   23.0610   -6.6300   -1.1690 C   0  0  1  0  0  0  0  0  0  0  0  0
   23.0270   -5.2730   -1.6400 O   0  0  0  0  0  0  0  0  0  0  0  0
   23.5160   -4.4070   -0.5960 C   0  0  1  0  0  0  0  0  0  0  0  0
   22.6730   -3.1950   -0.4430 N   0  0  0  0  0  0  0  0  0  0  0  0
   22.6040   -2.1980   -1.4130 C   0  0  0  0  0  0  0  0  0  0  0  0
   21.8490   -1.0960   -1.3160 C   0  0  0  0  0  0  0  0  0  0  0  0
   21.0280   -0.9180   -0.0950 C   0  0  0  0  0  0  0  0  0  0  0  0
   20.3090    0.0650    0.0490 O   0  0  0  0  0  0  0  0  0  0  0  0
   21.1090   -1.9720    0.9410 C   0  0  0  0  0  0  0  0  0  0  0  0
   21.9090   -3.0210    0.7100 C   0  0  0  0  0  0  0  0  0  0  0  0
   23.5450   -5.2400    0.6990 C   0  0  2  0  0  0  0  0  0  0  0  0
   24.5560   -4.8450    1.6300 O   0  0  0  0  0  0  0  0  0  0  0  0
   23.8170   -6.6310    0.1600 C   0  0  2  0  0  0  0  0  0  0  0  0
   25.2390   -6.7570   -0.0430 O   0  0  0  0  0  0  0  0  0  0  0  0
   16.5110   -4.0440   -1.4320 C   0  0  0  0  0  0  0  0  0  0  0  0
   15.1490   -4.2950   -1.6510 C   0  0  0  0  0  0  0  0  0  0  0  0
   14.3390   -3.2900   -2.2030 C   0  0  0  0  0  0  0  0  0  0  0  0
   12.9110   -3.5540   -2.4210 N   0  0  0  0  0  0  0  0  0  0  0  0
   12.3330   -2.8880   -3.2910 O   0  0  0  0  0  0  0  0  0  0  0  0
   12.3750   -4.4280   -1.7260 O   0  0  0  0  0  0  0  0  0  0  0  0
   14.8680   -2.0410   -2.5500 C   0  0  0  0  0  0  0  0  0  0  0  0
   16.2260   -1.8080   -2.3500 C   0  0  0  0  0  0  0  0  0  0  0  0
   16.7720   -0.6020   -2.6910 O   0  0  0  0  0  0  0  0  0  0  0  0
   17.0500   -2.8000   -1.8050 C   0  0  0  0  0  0  0  0  0  0  0  0
   18.3820   -2.5060   -1.6500 O   0  0  0  0  0  0  0  0  0  0  0  0
   18.2320   -5.5870   -2.6720 H   0  0  0  0  0  0  0  0  0  0  0  0
   18.9198   -7.0012   -0.1558 H   0  0  0  0  0  0  0  0  0  0  0  0
   18.9666   -7.6839   -1.8008 H   0  0  0  0  0  0  0  0  0  0  0  0
   20.7579   -5.3110   -1.7014 H   0  0  0  0  0  0  0  0  0  0  0  0
   21.4573   -8.1249   -0.6999 H   0  0  0  0  0  0  0  0  0  0  0  0
   23.5812   -7.3215   -1.8481 H   0  0  0  0  0  0  0  0  0  0  0  0
   24.5222   -4.0389   -0.8451 H   0  0  0  0  0  0  0  0  0  0  0  0
   23.2114   -2.3243   -2.3213 H   0  0  0  0  0  0  0  0  0  0  0  0
   21.8386   -0.3447   -2.1194 H   0  0  0  0  0  0  0  0  0  0  0  0
   20.5294   -1.8960    1.8728 H   0  0  0  0  0  0  0  0  0  0  0  0
   21.9673   -3.8000    1.4845 H   0  0  0  0  0  0  0  0  0  0  0  0
   22.6181   -5.1329    1.2816 H   0  0  0  0  0  0  0  0  0  0  0  0
   24.9270   -5.6840    1.9790 H   0  0  0  0  0  0  0  0  0  0  0  0
   23.5054   -7.4596    0.8130 H   0  0  0  0  0  0  0  0  0  0  0  0
   25.3900   -6.8120   -1.0050 H   0  0  0  0  0  0  0  0  0  0  0  0
   14.7179   -5.2733   -1.3919 H   0  0  0  0  0  0  0  0  0  0  0  0
   14.2221   -1.2576   -2.9732 H   0  0  0  0  0  0  0  0  0  0  0  0
   16.6520    0.0400   -1.9730 H   0  0  0  0  0  0  0  0  0  0  0  0
   18.8370   -3.2930   -1.2800 H   0  0  0  0  0  0  0  0  0  0  0  0
  1  2  2  0
  2  3  1  0
  3  4  1  0
  4  5  1  0
  5  6  2  0
  6  7  1  0
  7  8  1  0
  8  9  1  0
  9 10  1  0
 10 11  1  0
 11 12  2  0
 12 13  1  0
 13 14  2  0
 13 15  1  0
 15 16  2  0
  9 17  1  0
 17 18  1  0
 17 19  1  0
 19 20  1  0
  2 21  1  0
 21 22  2  0
 22 23  1  0
 23 24  1  0
 24 25  2  0
 24 26  1  0
 23 27  2  0
 27 28  1  0
 28 29  1  0
 28 30  2  0
 30 31  1  0
 19  7  1  0
 30 21  1  0
 16 10  1  0
  3 32  1  0
  4 33  1  0
  4 34  1  0
  5 35  1  0
  6 36  1  0
  7 37  1  6
  9 38  1  6
 11 39  1  0
 12 40  1  0
 15 41  1  0
 16 42  1  0
 17 43  1  1
 18 44  1  0
 19 45  1  1
 20 46  1  0
 22 47  1  0
 27 48  1  0
 29 49  1  0
 31 50  1  0
M  CHG  2  24   1  26  -1
M  END
>  <meeko>  (6) 
{"is_sidechain": [false], "free_energy": -8.581, "intermolecular_energy": -12.225, "internal_energy": -1.425}

$$$$
3ozt_ligand
     RDKit          3D

 50 52  0  0  0  0  0  0  0  0999 V2000
   21.7080   -0.3770   -0.7430 O   0  0  0  0  0  0  0  0  0  0  0  0
   21.1080   -1.3610   -0.3200 C   0  0  0  0  0  0  0  0  0  0  0  0
   19.7340   -1.4520   -0.2770 N   0  0  0  0  0  0  0  0  0  0  0  0
   18.8930   -0.3920   -0.7810 C   0  0  0  0  0  0  0  0  0  0  0  0
   17.7330   -1.0320   -1.4780 C   0  0  0  0  0  0  0  0  0  0  0  0
   16.4460   -0.7040   -1.2760 C   0  0  0  0  0  0  0  0  0  0  0  0
   15.2920   -1.3710   -1.9720 C   0  0  1  0  0  0  0  0  0  0  0  0
   15.8260   -2.4680   -2.7310 O   0  0  0  0  0  0  0  0  0  0  0  0
   15.3510   -3.7030   -2.1580 C   0  0  1  0  0  0  0  0  0  0  0  0
   16.4320   -4.7120   -2.0460 N   0  0  0  0  0  0  0  0  0  0  0  0
   16.2850   -6.0270   -2.4810 C   0  0  0  0  0  0  0  0  0  0  0  0
   17.2400   -6.9630   -2.4040 C   0  0  0  0  0  0  0  0  0  0  0  0
   18.5460   -6.5820   -1.8170 C   0  0  0  0  0  0  0  0  0  0  0  0
   19.4630   -7.3910   -1.7280 O   0  0  0  0  0  0  0  0  0  0  0  0
   18.7000   -5.1880   -1.3450 C   0  0  0  0  0  0  0  0  0  0  0  0
   17.6580   -4.3580   -1.4840 C   0  0  0  0  0  0  0  0  0  0  0  0
   14.7570   -3.3570   -0.7800 C   0  0  2  0  0  0  0  0  0  0  0  0
   13.6940   -4.2190   -0.3650 O   0  0  0  0  0  0  0  0  0  0  0  0
   14.2510   -1.9470   -1.0110 C   0  0  2  0  0  0  0  0  0  0  0  0
   12.9540   -2.0370   -1.6320 O   0  0  0  0  0  0  0  0  0  0  0  0
   21.8900   -2.5470    0.1270 C   0  0  0  0  0  0  0  0  0  0  0  0
   22.0150   -2.8610    1.4880 C   0  0  0  0  0  0  0  0  0  0  0  0
   22.7520   -3.9940    1.8730 C   0  0  0  0  0  0  0  0  0  0  0  0
   22.8720   -4.3250    3.2980 N   0  0  0  0  0  0  0  0  0  0  0  0
   22.5660   -3.4460    4.1170 O   0  0  0  0  0  0  0  0  0  0  0  0
   23.2670   -5.4610    3.5950 O   0  0  0  0  0  0  0  0  0  0  0  0
   23.3730   -4.8120    0.9220 C   0  0  0  0  0  0  0  0  0  0  0  0
   23.2610   -4.4800   -0.4250 C   0  0  0  0  0  0  0  0  0  0  0  0
   23.8680   -5.2550   -1.3740 O   0  0  0  0  0  0  0  0  0  0  0  0
   22.5350   -3.3520   -0.8280 C   0  0  0  0  0  0  0  0  0  0  0  0
   22.4820   -3.0770   -2.1710 O   0  0  0  0  0  0  0  0  0  0  0  0
   19.2900   -2.3510   -0.1500 H   0  0  0  0  0  0  0  0  0  0  0  0
   18.5340    0.2308    0.0516 H   0  0  0  0  0  0  0  0  0  0  0  0
   19.4543    0.2522   -1.4738 H   0  0  0  0  0  0  0  0  0  0  0  0
   17.9497   -1.8268   -2.2069 H   0  0  0  0  0  0  0  0  0  0  0  0
   16.2232    0.1000   -0.5591 H   0  0  0  0  0  0  0  0  0  0  0  0
   14.7908   -0.6095   -2.5876 H   0  0  0  0  0  0  0  0  0  0  0  0
   14.5884   -4.1574   -2.8076 H   0  0  0  0  0  0  0  0  0  0  0  0
   15.3180   -6.3168   -2.9179 H   0  0  0  0  0  0  0  0  0  0  0  0
   17.0598   -7.9858   -2.7664 H   0  0  0  0  0  0  0  0  0  0  0  0
   19.6421   -4.8437   -0.8935 H   0  0  0  0  0  0  0  0  0  0  0  0
   17.7779   -3.3236   -1.1296 H   0  0  0  0  0  0  0  0  0  0  0  0
   15.4951   -3.4667    0.0282 H   0  0  0  0  0  0  0  0  0  0  0  0
   13.4190   -3.8840    0.5150 H   0  0  0  0  0  0  0  0  0  0  0  0
   14.1369   -1.3322   -0.1060 H   0  0  0  0  0  0  0  0  0  0  0  0
   12.3430   -2.4140   -0.9720 H   0  0  0  0  0  0  0  0  0  0  0  0
   21.5394   -2.2248    2.2490 H   0  0  0  0  0  0  0  0  0  0  0  0
   23.9397   -5.7018    1.2338 H   0  0  0  0  0  0  0  0  0  0  0  0
   23.8490   -6.1890   -1.1130 H   0  0  0  0  0  0  0  0  0  0  0  0
   23.0540   -2.3000   -2.3560 H   0  0  0  0  0  0  0  0  0  0  0  0
  1  2  2  0
  2  3  1  0
  3  4  1  0
  4  5  1  0
  5  6  2  0
  6  7  1  0
  7  8  1  0
  8  9  1  0
  9 10  1  0
 10 11  1  0
 11 12  2  0
 12 13  1  0
 13 14  2  0
 13 15  1  0
 15 16  2  0
  9 17  1  0
 17 18  1  0
 17 19  1  0
 19 20  1  0
  2 21  1  0
 21 22  2  0
 22 23  1  0
 23 24  1  0
 24 25  2  0
 24 26  1  0
 23 27  2  0
 27 28  1  0
 28 29  1  0
 28 30  2  0
 30 31  1  0
 19  7  1  0
 30 21  1  0
 16 10  1  0
  3 32  1  0
  4 33  1  0
  4 34  1  0
  5 35  1  0
  6 36  1  0
  7 37  1  6
  9 38  1  6
 11 39  1  0
 12 40  1  0
 15 41  1  0
 16 42  1  0
 17 43  1  1
 18 44  1  0
 19 45  1  1
 20 46  1  0
 22 47  1  0
 27 48  1  0
 29 49  1  0
 31 50  1  0
M  CHG  2  24   1  26  -1
M  END
>  <meeko>  (7) 
{"is_sidechain": [false], "free_energy": -8.543, "intermolecular_energy": -12.152, "internal_energy": -1.443}

$$$$
3ozt_ligand
     RDKit          3D

 50 52  0  0  0  0  0  0  0  0999 V2000
   21.0120   -0.5650   -0.1660 O   0  0  0  0  0  0  0  0  0  0  0  0
   20.7450   -1.7490   -0.3490 C   0  0  0  0  0  0  0  0  0  0  0  0
   19.6380   -2.1800   -1.0470 N   0  0  0  0  0  0  0  0  0  0  0  0
   18.7250   -1.2450   -1.6610 C   0  0  0  0  0  0  0  0  0  0  0  0
   17.3380   -1.6500   -1.2700 C   0  0  0  0  0  0  0  0  0  0  0  0
   16.7020   -2.7400   -1.7340 C   0  0  0  0  0  0  0  0  0  0  0  0
   15.3010   -3.1220   -1.3440 C   0  0  1  0  0  0  0  0  0  0  0  0
   14.7170   -1.9880   -0.6820 O   0  0  0  0  0  0  0  0  0  0  0  0
   13.6520   -1.4690   -1.5030 C   0  0  1  0  0  0  0  0  0  0  0  0
   13.6910    0.0120   -1.5870 N   0  0  0  0  0  0  0  0  0  0  0  0
   14.8810    0.7320   -1.6610 C   0  0  0  0  0  0  0  0  0  0  0  0
   14.9570    2.0660   -1.7460 C   0  0  0  0  0  0  0  0  0  0  0  0
   13.6920    2.8380   -1.7640 C   0  0  0  0  0  0  0  0  0  0  0  0
   13.6950    4.0610   -1.8510 O   0  0  0  0  0  0  0  0  0  0  0  0
   12.4270    2.0750   -1.6750 C   0  0  0  0  0  0  0  0  0  0  0  0
   12.5020    0.7400   -1.5930 C   0  0  0  0  0  0  0  0  0  0  0  0
   13.8020   -2.1160   -2.8920 C   0  0  2  0  0  0  0  0  0  0  0  0
   12.5710   -2.2810   -3.6010 O   0  0  0  0  0  0  0  0  0  0  0  0
   14.4080   -3.4600   -2.5380 C   0  0  2  0  0  0  0  0  0  0  0  0
   13.3340   -4.3440   -2.1580 O   0  0  0  0  0  0  0  0  0  0  0  0
   21.6850   -2.7870    0.1590 C   0  0  0  0  0  0  0  0  0  0  0  0
   21.8300   -3.0220    1.5330 C   0  0  0  0  0  0  0  0  0  0  0  0
   22.7170   -4.0170    1.9760 C   0  0  0  0  0  0  0  0  0  0  0  0
   22.8590   -4.2660    3.4160 N   0  0  0  0  0  0  0  0  0  0  0  0
   22.5450   -3.3490    4.1880 O   0  0  0  0  0  0  0  0  0  0  0  0
   23.2800   -5.3760    3.7710 O   0  0  0  0  0  0  0  0  0  0  0  0
   23.4680   -4.7750    1.0700 C   0  0  0  0  0  0  0  0  0  0  0  0
   23.3330   -4.5200   -0.2910 C   0  0  0  0  0  0  0  0  0  0  0  0
   24.0630   -5.2370   -1.1980 O   0  0  0  0  0  0  0  0  0  0  0  0
   22.4570   -3.5290   -0.7520 C   0  0  0  0  0  0  0  0  0  0  0  0
   22.3870   -3.3220   -2.1070 O   0  0  0  0  0  0  0  0  0  0  0  0
   19.5860   -3.1340   -1.3750 H   0  0  0  0  0  0  0  0  0  0  0  0
   18.9338   -0.2259   -1.3034 H   0  0  0  0  0  0  0  0  0  0  0  0
   18.8380   -1.2540   -2.7551 H   0  0  0  0  0  0  0  0  0  0  0  0
   16.8016   -1.0112   -0.5529 H   0  0  0  0  0  0  0  0  0  0  0  0
   17.2382   -3.3906   -2.4405 H   0  0  0  0  0  0  0  0  0  0  0  0
   15.3651   -4.0194   -0.7111 H   0  0  0  0  0  0  0  0  0  0  0  0
   12.6749   -1.7157   -1.0621 H   0  0  0  0  0  0  0  0  0  0  0  0
   15.8237    0.1653   -1.6488 H   0  0  0  0  0  0  0  0  0  0  0  0
   15.9308    2.5746   -1.8009 H   0  0  0  0  0  0  0  0  0  0  0  0
   11.4543    2.5887   -1.6761 H   0  0  0  0  0  0  0  0  0  0  0  0
   11.5586    0.1784   -1.5256 H   0  0  0  0  0  0  0  0  0  0  0  0
   14.3988   -1.4945   -3.5758 H   0  0  0  0  0  0  0  0  0  0  0  0
   11.9340   -2.6170   -2.9350 H   0  0  0  0  0  0  0  0  0  0  0  0
   14.9669   -3.9532   -3.3469 H   0  0  0  0  0  0  0  0  0  0  0  0
   13.5240   -4.6580   -1.2550 H   0  0  0  0  0  0  0  0  0  0  0  0
   21.2530   -2.4312    2.2597 H   0  0  0  0  0  0  0  0  0  0  0  0
   24.1526   -5.5582    1.4277 H   0  0  0  0  0  0  0  0  0  0  0  0
   24.9470   -4.8520   -1.3020 H   0  0  0  0  0  0  0  0  0  0  0  0
   22.4000   -4.1940   -2.5590 H   0  0  0  0  0  0  0  0  0  0  0  0
  1  2  2  0
  2  3  1  0
  3  4  1  0
  4  5  1  0
  5  6  2  0
  6  7  1  0
  7  8  1  0
  8  9  1  0
  9 10  1  0
 10 11  1  0
 11 12  2  0
 12 13  1  0
 13 14  2  0
 13 15  1  0
 15 16  2  0
  9 17  1  0
 17 18  1  0
 17 19  1  0
 19 20  1  0
  2 21  1  0
 21 22  2  0
 22 23  1  0
 23 24  1  0
 24 25  2  0
 24 26  1  0
 23 27  2  0
 27 28  1  0
 28 29  1  0
 28 30  2  0
 30 31  1  0
 19  7  1  0
 30 21  1  0
 16 10  1  0
  3 32  1  0
  4 33  1  0
  4 34  1  0
  5 35  1  0
  6 36  1  0
  7 37  1  1
  9 38  1  1
 11 39  1  0
 12 40  1  0
 15 41  1  0
 16 42  1  0
 17 43  1  6
 18 44  1  0
 19 45  1  6
 20 46  1  0
 22 47  1  0
 27 48  1  0
 29 49  1  0
 31 50  1  0
M  CHG  2  24   1  26  -1
M  END
>  <meeko>  (8) 
{"is_sidechain": [false], "free_energy": -8.461, "intermolecular_energy": -12.378, "internal_energy": -1.096}

$$$$
3ozt_ligand
     RDKit          3D

 50 52  0  0  0  0  0  0  0  0999 V2000
   17.5430   -1.4470   -2.5490 O   0  0  0  0  0  0  0  0  0  0  0  0
   17.0140   -1.1010   -1.4970 C   0  0  0  0  0  0  0  0  0  0  0  0
   17.6990   -0.5070   -0.4600 N   0  0  0  0  0  0  0  0  0  0  0  0
   19.1070   -0.2040   -0.5650 C   0  0  0  0  0  0  0  0  0  0  0  0
   19.8600   -1.3910   -0.0510 C   0  0  0  0  0  0  0  0  0  0  0  0
   21.1890   -1.4240    0.1470 C   0  0  0  0  0  0  0  0  0  0  0  0
   21.9330   -2.6320    0.6460 C   0  0  1  0  0  0  0  0  0  0  0  0
   20.9590   -3.6570    0.9030 O   0  0  0  0  0  0  0  0  0  0  0  0
   21.1560   -4.7310   -0.0390 C   0  0  1  0  0  0  0  0  0  0  0  0
   19.8710   -5.2140   -0.6020 N   0  0  0  0  0  0  0  0  0  0  0  0
   19.7950   -6.2580   -1.5210 C   0  0  0  0  0  0  0  0  0  0  0  0
   18.6560   -6.7260   -2.0450 C   0  0  0  0  0  0  0  0  0  0  0  0
   17.3830   -6.0950   -1.6250 C   0  0  0  0  0  0  0  0  0  0  0  0
   16.3050   -6.4860   -2.0610 O   0  0  0  0  0  0  0  0  0  0  0  0
   17.4630   -4.9790   -0.6570 C   0  0  0  0  0  0  0  0  0  0  0  0
   18.6740   -4.6130   -0.2160 C   0  0  0  0  0  0  0  0  0  0  0  0
   22.0880   -4.1940   -1.1400 C   0  0  2  0  0  0  0  0  0  0  0  0
   22.9120   -5.1910   -1.7510 O   0  0  0  0  0  0  0  0  0  0  0  0
   22.9290   -3.1960   -0.3680 C   0  0  2  0  0  0  0  0  0  0  0  0
   23.9910   -3.9200    0.2840 O   0  0  0  0  0  0  0  0  0  0  0  0
   15.5430   -1.2790   -1.3370 C   0  0  0  0  0  0  0  0  0  0  0  0
   14.9130   -2.4740   -1.7130 C   0  0  0  0  0  0  0  0  0  0  0  0
   13.5260   -2.6110   -1.5370 C   0  0  0  0  0  0  0  0  0  0  0  0
   12.8730   -3.8680   -1.9230 N   0  0  0  0  0  0  0  0  0  0  0  0
   12.9550   -4.8210   -1.1360 O   0  0  0  0  0  0  0  0  0  0  0  0
   12.2760   -3.8970   -3.0080 O   0  0  0  0  0  0  0  0  0  0  0  0
   12.7570   -1.5720   -1.0010 C   0  0  0  0  0  0  0  0  0  0  0  0
   13.3880   -0.3820   -0.6510 C   0  0  0  0  0  0  0  0  0  0  0  0
   12.6590    0.6550   -0.1370 O   0  0  0  0  0  0  0  0  0  0  0  0
   14.7690   -0.2240   -0.8230 C   0  0  0  0  0  0  0  0  0  0  0  0
   15.3200    0.9820   -0.4710 O   0  0  0  0  0  0  0  0  0  0  0  0
   17.1940   -0.0290    0.2720 H   0  0  0  0  0  0  0  0  0  0  0  0
   19.3737   -0.0156   -1.6154 H   0  0  0  0  0  0  0  0  0  0  0  0
   19.3552    0.6954    0.0177 H   0  0  0  0  0  0  0  0  0  0  0  0
   19.2856   -2.3000    0.1809 H   0  0  0  0  0  0  0  0  0  0  0  0
   21.7669   -0.5132   -0.0688 H   0  0  0  0  0  0  0  0  0  0  0  0
   22.5019   -2.3276    1.5369 H   0  0  0  0  0  0  0  0  0  0  0  0
   21.6060   -5.6012    0.4612 H   0  0  0  0  0  0  0  0  0  0  0  0
   20.7364   -6.7305   -1.8380 H   0  0  0  0  0  0  0  0  0  0  0  0
   18.6647   -7.5557   -2.7671 H   0  0  0  0  0  0  0  0  0  0  0  0
   16.5548   -4.4648   -0.3095 H   0  0  0  0  0  0  0  0  0  0  0  0
   18.7274   -3.7802    0.5006 H   0  0  0  0  0  0  0  0  0  0  0  0
   21.5274   -3.7801   -1.9911 H   0  0  0  0  0  0  0  0  0  0  0  0
   22.2920   -5.8860   -2.0580 H   0  0  0  0  0  0  0  0  0  0  0  0
   23.3972   -2.4058   -0.9733 H   0  0  0  0  0  0  0  0  0  0  0  0
   23.7320   -4.0350    1.2170 H   0  0  0  0  0  0  0  0  0  0  0  0
   15.5008   -3.2985   -2.1428 H   0  0  0  0  0  0  0  0  0  0  0  0
   11.6730   -1.6937   -0.8588 H   0  0  0  0  0  0  0  0  0  0  0  0
   12.9960    1.5030   -0.4660 H   0  0  0  0  0  0  0  0  0  0  0  0
   14.7690    1.7020   -0.8490 H   0  0  0  0  0  0  0  0  0  0  0  0
  1  2  2  0
  2  3  1  0
  3  4  1  0
  4  5  1  0
  5  6  2  0
  6  7  1  0
  7  8  1  0
  8  9  1  0
  9 10  1  0
 10 11  1  0
 11 12  2  0
 12 13  1  0
 13 14  2  0
 13 15  1  0
 15 16  2  0
  9 17  1  0
 17 18  1  0
 17 19  1  0
 19 20  1  0
  2 21  1  0
 21 22  2  0
 22 23  1  0
 23 24  1  0
 24 25  2  0
 24 26  1  0
 23 27  2  0
 27 28  1  0
 28 29  1  0
 28 30  2  0
 30 31  1  0
 19  7  1  0
 30 21  1  0
 16 10  1  0
  3 32  1  0
  4 33  1  0
  4 34  1  0
  5 35  1  0
  6 36  1  0
  7 37  1  1
  9 38  1  1
 11 39  1  0
 12 40  1  0
 15 41  1  0
 16 42  1  0
 17 43  1  6
 18 44  1  0
 19 45  1  6
 20 46  1  0
 22 47  1  0
 27 48  1  0
 29 49  1  0
 31 50  1  0
M  CHG  2  24   1  26  -1
M  END
>  <meeko>  (9) 
{"is_sidechain": [false], "free_energy": -8.429, "intermolecular_energy": -11.971, "internal_energy": -1.455}

$$$$
