2xii_ligand
     RDKit          3D

 51 54  0  0  0  0  0  0  0  0999 V2000
  -24.4510    5.0480   27.0200 C   0  0  0  0  0  0  0  0  0  0  0  0
  -24.9990    3.6300   27.1120 C   0  0  2  0  0  0  0  0  0  0  0  0
  -26.5060    3.7030   27.0880 N   0  0  0  0  0  0  0  0  0  0  0  0
  -27.1390    2.3350   26.8340 C   0  0  2  0  0  0  0  0  0  0  0  0
  -28.6520    2.4160   27.1350 C   0  0  0  0  0  0  0  0  0  0  0  0
  -29.3640    1.1670   27.3670 N   0  0  0  0  0  0  0  0  0  0  0  0
  -30.4390    0.7180   26.6350 C   0  0  0  0  0  0  0  0  0  0  0  0
  -30.7310    1.2500   25.5640 O   0  0  0  0  0  0  0  0  0  0  0  0
  -31.2310   -0.4560   27.1160 C   0  0  0  0  0  0  0  0  0  0  0  0
  -32.6290   -0.2800   27.1850 C   0  0  0  0  0  0  0  0  0  0  0  0
  -33.4890   -1.3040   27.6240 C   0  0  0  0  0  0  0  0  0  0  0  0
  -32.9820   -2.5400   28.0150 C   0  0  0  0  0  0  0  0  0  0  0  0
  -31.6120   -2.7340   27.9610 C   0  0  0  0  0  0  0  0  0  0  0  0
  -30.7510   -1.7000   27.5140 C   0  0  0  0  0  0  0  0  0  0  0  0
  -29.3760   -2.2550   27.6020 C   0  0  0  0  0  0  0  0  0  0  0  0
  -28.3440   -1.6880   27.3040 O   0  0  0  0  0  0  0  0  0  0  0  0
  -29.4790   -3.6360   28.1090 C   0  0  0  0  0  0  0  0  0  0  0  0
  -28.4740   -4.5500   28.3560 C   0  0  0  0  0  0  0  0  0  0  0  0
  -28.8610   -5.8010   28.8380 C   0  0  0  0  0  0  0  0  0  0  0  0
  -30.2210   -6.0950   29.0560 C   0  0  0  0  0  0  0  0  0  0  0  0
  -31.2190   -5.1450   28.7960 C   0  0  0  0  0  0  0  0  0  0  0  0
  -30.8360   -3.9040   28.3170 C   0  0  0  0  0  0  0  0  0  0  0  0
  -26.3940    1.2520   27.6670 C   0  0  1  0  0  0  0  0  0  0  0  0
  -25.4160    0.6080   26.8380 O   0  0  0  0  0  0  0  0  0  0  0  0
  -25.6660    1.8860   28.8560 C   0  0  2  0  0  0  0  0  0  0  0  0
  -26.6280    2.6210   29.6400 O   0  0  0  0  0  0  0  0  0  0  0  0
  -24.5610    2.8590   28.3890 C   0  0  2  0  0  0  0  0  0  0  0  0
  -24.3000    3.7580   29.4780 O   0  0  0  0  0  0  0  0  0  0  0  0
  -24.2965    5.4478   28.0330 H   0  0  0  0  0  0  0  0  0  0  0  0
  -23.4926    5.0364   26.4803 H   0  0  0  0  0  0  0  0  0  0  0  0
  -25.1681    5.6839   26.4803 H   0  0  0  0  0  0  0  0  0  0  0  0
  -24.5886    3.0744   26.2559 H   0  0  0  0  0  0  0  0  0  0  0  0
  -26.8380    4.3840   26.3940 H   0  0  0  0  0  0  0  0  0  0  0  0
  -26.8130    4.0320   28.0210 H   0  0  0  0  0  0  0  0  0  0  0  0
  -27.0371    2.0391   25.7794 H   0  0  0  0  0  0  0  0  0  0  0  0
  -28.7751    3.0364   28.0350 H   0  0  0  0  0  0  0  0  0  0  0  0
  -29.0970    2.8229   26.2150 H   0  0  0  0  0  0  0  0  0  0  0  0
  -29.2120    0.7610   28.2930 H   0  0  0  0  0  0  0  0  0  0  0  0
  -33.0601    0.6870   26.8866 H   0  0  0  0  0  0  0  0  0  0  0  0
  -34.5739   -1.1256   27.6585 H   0  0  0  0  0  0  0  0  0  0  0  0
  -33.6523   -3.3419   28.3580 H   0  0  0  0  0  0  0  0  0  0  0  0
  -27.4165   -4.3032   28.1808 H   0  0  0  0  0  0  0  0  0  0  0  0
  -28.0974   -6.5640   29.0495 H   0  0  0  0  0  0  0  0  0  0  0  0
  -30.5052   -7.0871   29.4368 H   0  0  0  0  0  0  0  0  0  0  0  0
  -32.2797   -5.3800   28.9683 H   0  0  0  0  0  0  0  0  0  0  0  0
  -27.1362    0.5286   28.0355 H   0  0  0  0  0  0  0  0  0  0  0  0
  -24.8050    0.1410   27.4510 H   0  0  0  0  0  0  0  0  0  0  0  0
  -25.1952    1.0859   29.4461 H   0  0  0  0  0  0  0  0  0  0  0  0
  -27.2650    2.9950   28.9930 H   0  0  0  0  0  0  0  0  0  0  0  0
  -23.6476    2.3078   28.1209 H   0  0  0  0  0  0  0  0  0  0  0  0
  -23.3690    4.0510   29.4070 H   0  0  0  0  0  0  0  0  0  0  0  0
  1  2  1  0
  2  3  1  0
  3  4  1  0
  4  5  1  0
  5  6  1  0
  6  7  1  0
  7  8  2  0
  7  9  1  0
  9 10  2  0
 10 11  1  0
 11 12  2  0
 12 13  1  0
 13 14  2  0
 14 15  1  0
 15 16  2  0
 15 17  1  0
 17 18  2  0
 18 19  1  0
 19 20  2  0
 20 21  1  0
 21 22  2  0
  4 23  1  0
 23 24  1  0
 23 25  1  0
 25 26  1  0
 25 27  1  0
 27 28  1  0
 27  2  1  0
 14  9  1  0
 22 17  1  0
 22 13  1  0
  1 29  1  0
  1 30  1  0
  1 31  1  0
  2 32  1  6
  3 33  1  0
  3 34  1  0
  4 35  1  6
  5 36  1  0
  5 37  1  0
  6 38  1  0
 10 39  1  0
 11 40  1  0
 12 41  1  0
 18 42  1  0
 19 43  1  0
 20 44  1  0
 21 45  1  0
 23 46  1  1
 24 47  1  0
 25 48  1  1
 26 49  1  0
 27 50  1  6
 28 51  1  0
M  CHG  1   3   1
M  END
>  <meeko>  (1) 
{"is_sidechain": [false], "free_energy": -9.127, "intermolecular_energy": -11.528, "internal_energy": -0.847}

$$$$
2xii_ligand
     RDKit          3D

 51 54  0  0  0  0  0  0  0  0999 V2000
  -24.4210    4.7800   26.8180 C   0  0  0  0  0  0  0  0  0  0  0  0
  -24.7680    3.3430   27.1860 C   0  0  2  0  0  0  0  0  0  0  0  0
  -26.2530    3.1540   27.0030 N   0  0  0  0  0  0  0  0  0  0  0  0
  -26.6460    1.6760   27.0160 C   0  0  2  0  0  0  0  0  0  0  0  0
  -28.1810    1.5640   27.1470 C   0  0  0  0  0  0  0  0  0  0  0  0
  -28.9910    2.0210   26.0260 N   0  0  0  0  0  0  0  0  0  0  0  0
  -29.2830    1.2830   24.9040 C   0  0  0  0  0  0  0  0  0  0  0  0
  -29.0620    0.0720   24.8770 O   0  0  0  0  0  0  0  0  0  0  0  0
  -29.9210    1.9430   23.7220 C   0  0  0  0  0  0  0  0  0  0  0  0
  -29.4860    1.5050   22.4530 C   0  0  0  0  0  0  0  0  0  0  0  0
  -30.0020    2.0450   21.2600 C   0  0  0  0  0  0  0  0  0  0  0  0
  -30.9690    3.0470   21.2930 C   0  0  0  0  0  0  0  0  0  0  0  0
  -31.4060    3.4960   22.5280 C   0  0  0  0  0  0  0  0  0  0  0  0
  -30.8850    2.9450   23.7260 C   0  0  0  0  0  0  0  0  0  0  0  0
  -31.5660    3.6670   24.8300 C   0  0  0  0  0  0  0  0  0  0  0  0
  -31.4060    3.4890   26.0210 O   0  0  0  0  0  0  0  0  0  0  0  0
  -32.4920    4.6440   24.2270 C   0  0  0  0  0  0  0  0  0  0  0  0
  -33.3410    5.5390   24.8490 C   0  0  0  0  0  0  0  0  0  0  0  0
  -34.1150    6.3540   24.0230 C   0  0  0  0  0  0  0  0  0  0  0  0
  -34.0210    6.2510   22.6220 C   0  0  0  0  0  0  0  0  0  0  0  0
  -33.1500    5.3310   22.0200 C   0  0  0  0  0  0  0  0  0  0  0  0
  -32.3800    4.5220   22.8380 C   0  0  0  0  0  0  0  0  0  0  0  0
  -25.8690    0.9390   28.1450 C   0  0  1  0  0  0  0  0  0  0  0  0
  -24.7100    0.3070   27.5850 O   0  0  0  0  0  0  0  0  0  0  0  0
  -25.4000    1.9280   29.2170 C   0  0  2  0  0  0  0  0  0  0  0  0
  -26.5500    2.6410   29.7130 O   0  0  0  0  0  0  0  0  0  0  0  0
  -24.3940    2.9500   28.6420 C   0  0  2  0  0  0  0  0  0  0  0  0
  -24.4080    4.0930   29.5120 O   0  0  0  0  0  0  0  0  0  0  0  0
  -24.2787    5.3694   27.7358 H   0  0  0  0  0  0  0  0  0  0  0  0
  -23.4938    4.7933   26.2262 H   0  0  0  0  0  0  0  0  0  0  0  0
  -25.2399    5.2149   26.2262 H   0  0  0  0  0  0  0  0  0  0  0  0
  -24.1745    2.6934   26.5259 H   0  0  0  0  0  0  0  0  0  0  0  0
  -26.5870    3.6030   26.1420 H   0  0  0  0  0  0  0  0  0  0  0  0
  -26.7230    3.6200   27.8010 H   0  0  0  0  0  0  0  0  0  0  0  0
  -26.3669    1.1821   26.0736 H   0  0  0  0  0  0  0  0  0  0  0  0
  -28.4200    0.5034   27.3143 H   0  0  0  0  0  0  0  0  0  0  0  0
  -28.4400    2.2433   27.9725 H   0  0  0  0  0  0  0  0  0  0  0  0
  -29.1030    3.0360   25.9750 H   0  0  0  0  0  0  0  0  0  0  0  0
  -28.7202    0.7175   22.3944 H   0  0  0  0  0  0  0  0  0  0  0  0
  -29.6378    1.6718   20.2915 H   0  0  0  0  0  0  0  0  0  0  0  0
  -31.3749    3.4705   20.3625 H   0  0  0  0  0  0  0  0  0  0  0  0
  -33.4037    5.6058   25.9452 H   0  0  0  0  0  0  0  0  0  0  0  0
  -34.8054    7.0842   24.4705 H   0  0  0  0  0  0  0  0  0  0  0  0
  -34.6409    6.9029   21.9890 H   0  0  0  0  0  0  0  0  0  0  0  0
  -33.0805    5.2542   20.9249 H   0  0  0  0  0  0  0  0  0  0  0  0
  -26.5416    0.1971   28.6003 H   0  0  0  0  0  0  0  0  0  0  0  0
  -24.7920   -0.6500   27.7990 H   0  0  0  0  0  0  0  0  0  0  0  0
  -24.9006    1.3650   30.0193 H   0  0  0  0  0  0  0  0  0  0  0  0
  -26.6560    3.4170   29.1210 H   0  0  0  0  0  0  0  0  0  0  0  0
  -23.3841    2.5163   28.5964 H   0  0  0  0  0  0  0  0  0  0  0  0
  -23.5910    4.0690   30.0490 H   0  0  0  0  0  0  0  0  0  0  0  0
  1  2  1  0
  2  3  1  0
  3  4  1  0
  4  5  1  0
  5  6  1  0
  6  7  1  0
  7  8  2  0
  7  9  1  0
  9 10  2  0
 10 11  1  0
 11 12  2  0
 12 13  1  0
 13 14  2  0
 14 15  1  0
 15 16  2  0
 15 17  1  0
 17 18  2  0
 18 19  1  0
 19 20  2  0
 20 21  1  0
 21 22  2  0
  4 23  1  0
 23 24  1  0
 23 25  1  0
 25 26  1  0
 25 27  1  0
 27 28  1  0
 27  2  1  0
 14  9  1  0
 22 17  1  0
 22 13  1  0
  1 29  1  0
  1 30  1  0
  1 31  1  0
  2 32  1  6
  3 33  1  0
  3 34  1  0
  4 35  1  6
  5 36  1  0
  5 37  1  0
  6 38  1  0
 10 39  1  0
 11 40  1  0
 12 41  1  0
 18 42  1  0
 19 43  1  0
 20 44  1  0
 21 45  1  0
 23 46  1  1
 24 47  1  0
 25 48  1  1
 26 49  1  0
 27 50  1  6
 28 51  1  0
M  CHG  1   3   1
M  END
>  <meeko>  (2) 
{"is_sidechain": [false], "free_energy": -9.014, "intermolecular_energy": -11.653, "internal_energy": -0.58}

$$$$
2xii_ligand
     RDKit          3D

 51 54  0  0  0  0  0  0  0  0999 V2000
  -24.8540    4.9880   26.8790 C   0  0  0  0  0  0  0  0  0  0  0  0
  -25.0230    3.4990   27.1470 C   0  0  2  0  0  0  0  0  0  0  0  0
  -26.5000    3.1910   27.1910 N   0  0  0  0  0  0  0  0  0  0  0  0
  -26.7720    1.6880   27.1140 C   0  0  2  0  0  0  0  0  0  0  0  0
  -28.2490    1.4240   27.4810 C   0  0  0  0  0  0  0  0  0  0  0  0
  -28.6070    0.0840   27.9260 N   0  0  0  0  0  0  0  0  0  0  0  0
  -28.5900   -1.0440   27.1400 C   0  0  0  0  0  0  0  0  0  0  0  0
  -28.0350   -1.0320   26.0410 O   0  0  0  0  0  0  0  0  0  0  0  0
  -29.2040   -2.3120   27.6420 C   0  0  0  0  0  0  0  0  0  0  0  0
  -28.3280   -3.4050   27.8120 C   0  0  0  0  0  0  0  0  0  0  0  0
  -28.7770   -4.6570   28.2730 C   0  0  0  0  0  0  0  0  0  0  0  0
  -30.1210   -4.8630   28.5780 C   0  0  0  0  0  0  0  0  0  0  0  0
  -30.9990   -3.8050   28.4150 C   0  0  0  0  0  0  0  0  0  0  0  0
  -30.5400   -2.5450   27.9530 C   0  0  0  0  0  0  0  0  0  0  0  0
  -31.7430   -1.6770   27.8910 C   0  0  0  0  0  0  0  0  0  0  0  0
  -31.7800   -0.5120   27.5480 O   0  0  0  0  0  0  0  0  0  0  0  0
  -32.9000   -2.4760   28.3330 C   0  0  0  0  0  0  0  0  0  0  0  0
  -34.2250   -2.1030   28.4450 C   0  0  0  0  0  0  0  0  0  0  0  0
  -35.1190   -3.0740   28.8960 C   0  0  0  0  0  0  0  0  0  0  0  0
  -34.6700   -4.3690   29.2170 C   0  0  0  0  0  0  0  0  0  0  0  0
  -33.3170   -4.7180   29.0930 C   0  0  0  0  0  0  0  0  0  0  0  0
  -32.4280   -3.7550   28.6450 C   0  0  0  0  0  0  0  0  0  0  0  0
  -25.7590    0.9270   28.0170 C   0  0  1  0  0  0  0  0  0  0  0  0
  -24.6690    0.4570   27.2130 O   0  0  0  0  0  0  0  0  0  0  0  0
  -25.1890    1.8540   29.0960 C   0  0  2  0  0  0  0  0  0  0  0  0
  -26.2870    2.4120   29.8450 O   0  0  0  0  0  0  0  0  0  0  0  0
  -24.3770    3.0120   28.4740 C   0  0  2  0  0  0  0  0  0  0  0  0
  -24.3270    4.0660   29.4480 O   0  0  0  0  0  0  0  0  0  0  0  0
  -24.7927    5.5280   27.8353 H   0  0  0  0  0  0  0  0  0  0  0  0
  -23.9312    5.1546   26.3040 H   0  0  0  0  0  0  0  0  0  0  0  0
  -25.7160    5.3572   26.3040 H   0  0  0  0  0  0  0  0  0  0  0  0
  -24.5037    2.9696   26.3346 H   0  0  0  0  0  0  0  0  0  0  0  0
  -27.0090    3.6840   26.4470 H   0  0  0  0  0  0  0  0  0  0  0  0
  -26.8590    3.5380   28.0990 H   0  0  0  0  0  0  0  0  0  0  0  0
  -26.6223    1.3083   26.0925 H   0  0  0  0  0  0  0  0  0  0  0  0
  -28.5164    2.1209   28.2890 H   0  0  0  0  0  0  0  0  0  0  0  0
  -28.7984    1.5598   26.5377 H   0  0  0  0  0  0  0  0  0  0  0  0
  -29.1570    0.0610   28.7870 H   0  0  0  0  0  0  0  0  0  0  0  0
  -27.2613   -3.2747   27.5770 H   0  0  0  0  0  0  0  0  0  0  0  0
  -28.0591   -5.4817   28.3938 H   0  0  0  0  0  0  0  0  0  0  0  0
  -30.4749   -5.8401   28.9386 H   0  0  0  0  0  0  0  0  0  0  0  0
  -34.5600   -1.0867   28.1902 H   0  0  0  0  0  0  0  0  0  0  0  0
  -36.1853   -2.8254   29.0019 H   0  0  0  0  0  0  0  0  0  0  0  0
  -35.3920   -5.1196   29.5709 H   0  0  0  0  0  0  0  0  0  0  0  0
  -32.9707   -5.7311   29.3453 H   0  0  0  0  0  0  0  0  0  0  0  0
  -26.2857    0.0882   28.4955 H   0  0  0  0  0  0  0  0  0  0  0  0
  -24.9990    0.4480   26.2860 H   0  0  0  0  0  0  0  0  0  0  0  0
  -24.5191    1.2683   29.7427 H   0  0  0  0  0  0  0  0  0  0  0  0
  -26.9770    1.7130   29.8630 H   0  0  0  0  0  0  0  0  0  0  0  0
  -23.3604    2.6779   28.2194 H   0  0  0  0  0  0  0  0  0  0  0  0
  -24.4370    4.9150   28.9760 H   0  0  0  0  0  0  0  0  0  0  0  0
  1  2  1  0
  2  3  1  0
  3  4  1  0
  4  5  1  0
  5  6  1  0
  6  7  1  0
  7  8  2  0
  7  9  1  0
  9 10  2  0
 10 11  1  0
 11 12  2  0
 12 13  1  0
 13 14  2  0
 14 15  1  0
 15 16  2  0
 15 17  1  0
 17 18  2  0
 18 19  1  0
 19 20  2  0
 20 21  1  0
 21 22  2  0
  4 23  1  0
 23 24  1  0
 23 25  1  0
 25 26  1  0
 25 27  1  0
 27 28  1  0
 27  2  1  0
 14  9  1  0
 22 17  1  0
 22 13  1  0
  1 29  1  0
  1 30  1  0
  1 31  1  0
  2 32  1  6
  3 33  1  0
  3 34  1  0
  4 35  1  6
  5 36  1  0
  5 37  1  0
  6 38  1  0
 10 39  1  0
 11 40  1  0
 12 41  1  0
 18 42  1  0
 19 43  1  0
 20 44  1  0
 21 45  1  0
 23 46  1  1
 24 47  1  0
 25 48  1  1
 26 49  1  0
 27 50  1  6
 28 51  1  0
M  CHG  1   3   1
M  END
>  <meeko>  (3) 
{"is_sidechain": [false], "free_energy": -8.967, "intermolecular_energy": -11.558, "internal_energy": -0.615}

$$$$
2xii_ligand
     RDKit          3D

 51 54  0  0  0  0  0  0  0  0999 V2000
  -25.4970   -3.9060   27.2550 C   0  0  0  0  0  0  0  0  0  0  0  0
  -26.2860   -2.6570   26.8830 C   0  0  2  0  0  0  0  0  0  0  0  0
  -26.9030   -2.8770   25.5240 N   0  0  0  0  0  0  0  0  0  0  0  0
  -27.9800   -1.8360   25.2120 C   0  0  2  0  0  0  0  0  0  0  0  0
  -28.3390   -1.9160   23.7120 C   0  0  0  0  0  0  0  0  0  0  0  0
  -29.0930   -0.8120   23.1360 N   0  0  0  0  0  0  0  0  0  0  0  0
  -28.5450    0.3280   22.5970 C   0  0  0  0  0  0  0  0  0  0  0  0
  -27.3400    0.3870   22.3520 O   0  0  0  0  0  0  0  0  0  0  0  0
  -29.4240    1.4900   22.2560 C   0  0  0  0  0  0  0  0  0  0  0  0
  -29.4210    1.8990   20.9060 C   0  0  0  0  0  0  0  0  0  0  0  0
  -30.1990    2.9810   20.4520 C   0  0  0  0  0  0  0  0  0  0  0  0
  -31.0060    3.6960   21.3330 C   0  0  0  0  0  0  0  0  0  0  0  0
  -31.0210    3.3140   22.6650 C   0  0  0  0  0  0  0  0  0  0  0  0
  -30.2380    2.2210   23.1140 C   0  0  0  0  0  0  0  0  0  0  0  0
  -30.4940    2.1170   24.5740 C   0  0  0  0  0  0  0  0  0  0  0  0
  -30.0170    1.3010   25.3370 O   0  0  0  0  0  0  0  0  0  0  0  0
  -31.4480    3.1790   24.9420 C   0  0  0  0  0  0  0  0  0  0  0  0
  -31.9840    3.4790   26.1790 C   0  0  0  0  0  0  0  0  0  0  0  0
  -32.8750    4.5510   26.2390 C   0  0  0  0  0  0  0  0  0  0  0  0
  -33.1980    5.2800   25.0790 C   0  0  0  0  0  0  0  0  0  0  0  0
  -32.6380    4.9520   23.8370 C   0  0  0  0  0  0  0  0  0  0  0  0
  -31.7530    3.8880   23.7750 C   0  0  0  0  0  0  0  0  0  0  0  0
  -27.4910   -0.4290   25.6620 C   0  0  1  0  0  0  0  0  0  0  0  0
  -28.0240   -0.1370   26.9610 O   0  0  0  0  0  0  0  0  0  0  0  0
  -25.9620   -0.3880   25.7540 C   0  0  2  0  0  0  0  0  0  0  0  0
  -25.4180   -0.7800   24.4790 O   0  0  0  0  0  0  0  0  0  0  0  0
  -25.4360   -1.3570   26.8360 C   0  0  2  0  0  0  0  0  0  0  0  0
  -24.0640   -1.6400   26.5190 O   0  0  0  0  0  0  0  0  0  0  0  0
  -25.4424   -3.9925   28.3502 H   0  0  0  0  0  0  0  0  0  0  0  0
  -25.9988   -4.7933   26.8417 H   0  0  0  0  0  0  0  0  0  0  0  0
  -24.4801   -3.8340   26.8417 H   0  0  0  0  0  0  0  0  0  0  0  0
  -27.0388   -2.5089   27.6713 H   0  0  0  0  0  0  0  0  0  0  0  0
  -27.2880   -3.8250   25.4340 H   0  0  0  0  0  0  0  0  0  0  0  0
  -26.1470   -2.7780   24.8220 H   0  0  0  0  0  0  0  0  0  0  0  0
  -28.9037   -2.0382   25.7741 H   0  0  0  0  0  0  0  0  0  0  0  0
  -27.3954   -1.9965   23.1524 H   0  0  0  0  0  0  0  0  0  0  0  0
  -29.0119   -2.7826   23.6334 H   0  0  0  0  0  0  0  0  0  0  0  0
  -30.0780   -0.7870   23.4100 H   0  0  0  0  0  0  0  0  0  0  0  0
  -28.7914    1.3559   20.1858 H   0  0  0  0  0  0  0  0  0  0  0  0
  -30.1690    3.2646   19.3896 H   0  0  0  0  0  0  0  0  0  0  0  0
  -31.6154    4.5415   20.9811 H   0  0  0  0  0  0  0  0  0  0  0  0
  -31.7205    2.8993   27.0759 H   0  0  0  0  0  0  0  0  0  0  0  0
  -33.3292    4.8290   27.2015 H   0  0  0  0  0  0  0  0  0  0  0  0
  -33.9024    6.1220   25.1487 H   0  0  0  0  0  0  0  0  0  0  0  0
  -32.8947    5.5251   22.9339 H   0  0  0  0  0  0  0  0  0  0  0  0
  -27.8326    0.3089   24.9211 H   0  0  0  0  0  0  0  0  0  0  0  0
  -28.9960   -0.0380   26.8410 H   0  0  0  0  0  0  0  0  0  0  0  0
  -25.6537    0.6329   26.0237 H   0  0  0  0  0  0  0  0  0  0  0  0
  -26.1920   -1.0090   23.9200 H   0  0  0  0  0  0  0  0  0  0  0  0
  -25.5119   -0.9016   27.8344 H   0  0  0  0  0  0  0  0  0  0  0  0
  -23.5770   -1.7360   27.3620 H   0  0  0  0  0  0  0  0  0  0  0  0
  1  2  1  0
  2  3  1  0
  3  4  1  0
  4  5  1  0
  5  6  1  0
  6  7  1  0
  7  8  2  0
  7  9  1  0
  9 10  2  0
 10 11  1  0
 11 12  2  0
 12 13  1  0
 13 14  2  0
 14 15  1  0
 15 16  2  0
 15 17  1  0
 17 18  2  0
 18 19  1  0
 19 20  2  0
 20 21  1  0
 21 22  2  0
  4 23  1  0
 23 24  1  0
 23 25  1  0
 25 26  1  0
 25 27  1  0
 27 28  1  0
 27  2  1  0
 14  9  1  0
 22 17  1  0
 22 13  1  0
  1 29  1  0
  1 30  1  0
  1 31  1  0
  2 32  1  1
  3 33  1  0
  3 34  1  0
  4 35  1  1
  5 36  1  0
  5 37  1  0
  6 38  1  0
 10 39  1  0
 11 40  1  0
 12 41  1  0
 18 42  1  0
 19 43  1  0
 20 44  1  0
 21 45  1  0
 23 46  1  6
 24 47  1  0
 25 48  1  1
 26 49  1  0
 27 50  1  1
 28 51  1  0
M  CHG  1   3   1
M  END
>  <meeko>  (4) 
{"is_sidechain": [false], "free_energy": -8.331, "intermolecular_energy": -10.332, "internal_energy": -1.039}

$$$$
2xii_ligand
     RDKit          3D

 51 54  0  0  0  0  0  0  0  0999 V2000
  -24.7460    4.9850   26.8250 C   0  0  0  0  0  0  0  0  0  0  0  0
  -25.0420    3.5180   27.1110 C   0  0  2  0  0  0  0  0  0  0  0  0
  -26.5390    3.3420   27.1730 N   0  0  0  0  0  0  0  0  0  0  0  0
  -26.9430    1.8680   27.1150 C   0  0  2  0  0  0  0  0  0  0  0  0
  -28.4330    1.7380   27.5000 C   0  0  0  0  0  0  0  0  0  0  0  0
  -29.4170    2.3420   26.6130 N   0  0  0  0  0  0  0  0  0  0  0  0
  -29.8600    1.7960   25.4310 C   0  0  0  0  0  0  0  0  0  0  0  0
  -29.6170    0.6210   25.1550 O   0  0  0  0  0  0  0  0  0  0  0  0
  -30.6890    2.6170   24.4940 C   0  0  0  0  0  0  0  0  0  0  0  0
  -29.9940    3.2670   23.4530 C   0  0  0  0  0  0  0  0  0  0  0  0
  -30.6520    4.0740   22.5060 C   0  0  0  0  0  0  0  0  0  0  0  0
  -32.0310    4.2630   22.5680 C   0  0  0  0  0  0  0  0  0  0  0  0
  -32.7330    3.6390   23.5860 C   0  0  0  0  0  0  0  0  0  0  0  0
  -32.0640    2.8250   24.5350 C   0  0  0  0  0  0  0  0  0  0  0  0
  -33.1170    2.3430   25.4640 C   0  0  0  0  0  0  0  0  0  0  0  0
  -32.9610    1.6100   26.4210 O   0  0  0  0  0  0  0  0  0  0  0  0
  -34.4050    2.9030   25.0170 C   0  0  0  0  0  0  0  0  0  0  0  0
  -35.6640    2.7370   25.5600 C   0  0  0  0  0  0  0  0  0  0  0  0
  -36.7190    3.3900   24.9230 C   0  0  0  0  0  0  0  0  0  0  0  0
  -36.4880    4.1790   23.7800 C   0  0  0  0  0  0  0  0  0  0  0  0
  -35.1990    4.3280   23.2510 C   0  0  0  0  0  0  0  0  0  0  0  0
  -34.1500    3.6800   23.8820 C   0  0  0  0  0  0  0  0  0  0  0  0
  -25.9900    1.0300   28.0150 C   0  0  1  0  0  0  0  0  0  0  0  0
  -24.9550    0.4580   27.2040 O   0  0  0  0  0  0  0  0  0  0  0  0
  -25.3290    1.9130   29.0780 C   0  0  2  0  0  0  0  0  0  0  0  0
  -26.3650    2.5720   29.8330 O   0  0  0  0  0  0  0  0  0  0  0  0
  -24.4250    2.9890   28.4360 C   0  0  2  0  0  0  0  0  0  0  0  0
  -24.2720    4.0430   29.3990 O   0  0  0  0  0  0  0  0  0  0  0  0
  -24.6363    5.5289   27.7748 H   0  0  0  0  0  0  0  0  0  0  0  0
  -23.8136    5.0650   26.2468 H   0  0  0  0  0  0  0  0  0  0  0  0
  -25.5744    5.4203   26.2468 H   0  0  0  0  0  0  0  0  0  0  0  0
  -24.5807    2.9363   26.2993 H   0  0  0  0  0  0  0  0  0  0  0  0
  -27.0110    3.8710   26.4300 H   0  0  0  0  0  0  0  0  0  0  0  0
  -26.8560    3.7280   28.0820 H   0  0  0  0  0  0  0  0  0  0  0  0
  -26.8393    1.4667   26.0961 H   0  0  0  0  0  0  0  0  0  0  0  0
  -28.6633    0.6643   27.5634 H   0  0  0  0  0  0  0  0  0  0  0  0
  -28.5265    2.2989   28.4416 H   0  0  0  0  0  0  0  0  0  0  0  0
  -29.5590    3.3430   26.7610 H   0  0  0  0  0  0  0  0  0  0  0  0
  -28.9040    3.1393   23.3789 H   0  0  0  0  0  0  0  0  0  0  0  0
  -30.0714    4.5606   21.7085 H   0  0  0  0  0  0  0  0  0  0  0  0
  -32.5485    4.8912   21.8280 H   0  0  0  0  0  0  0  0  0  0  0  0
  -35.8273    2.1178   26.4544 H   0  0  0  0  0  0  0  0  0  0  0  0
  -37.7408    3.2877   25.3172 H   0  0  0  0  0  0  0  0  0  0  0  0
  -37.3339    4.6872   23.2939 H   0  0  0  0  0  0  0  0  0  0  0  0
  -35.0245    4.9443   22.3567 H   0  0  0  0  0  0  0  0  0  0  0  0
  -26.5825    0.2453   28.5082 H   0  0  0  0  0  0  0  0  0  0  0  0
  -25.1640   -0.5010   27.1320 H   0  0  0  0  0  0  0  0  0  0  0  0
  -24.7059    1.2767   29.7237 H   0  0  0  0  0  0  0  0  0  0  0  0
  -26.0210    3.4710   30.0260 H   0  0  0  0  0  0  0  0  0  0  0  0
  -23.4441    2.5655   28.1741 H   0  0  0  0  0  0  0  0  0  0  0  0
  -24.4870    3.6760   30.2800 H   0  0  0  0  0  0  0  0  0  0  0  0
  1  2  1  0
  2  3  1  0
  3  4  1  0
  4  5  1  0
  5  6  1  0
  6  7  1  0
  7  8  2  0
  7  9  1  0
  9 10  2  0
 10 11  1  0
 11 12  2  0
 12 13  1  0
 13 14  2  0
 14 15  1  0
 15 16  2  0
 15 17  1  0
 17 18  2  0
 18 19  1  0
 19 20  2  0
 20 21  1  0
 21 22  2  0
  4 23  1  0
 23 24  1  0
 23 25  1  0
 25 26  1  0
 25 27  1  0
 27 28  1  0
 27  2  1  0
 14  9  1  0
 22 17  1  0
 22 13  1  0
  1 29  1  0
  1 30  1  0
  1 31  1  0
  2 32  1  6
  3 33  1  0
  3 34  1  0
  4 35  1  6
  5 36  1  0
  5 37  1  0
  6 38  1  0
 10 39  1  0
 11 40  1  0
 12 41  1  0
 18 42  1  0
 19 43  1  0
 20 44  1  0
 21 45  1  0
 23 46  1  1
 24 47  1  0
 25 48  1  1
 26 49  1  0
 27 50  1  6
 28 51  1  0
M  CHG  1   3   1
M  END
>  <meeko>  (5) 
{"is_sidechain": [false], "free_energy": -8.262, "intermolecular_energy": -10.724, "internal_energy": -0.558}

$$$$
2xii_ligand
     RDKit          3D

 51 54  0  0  0  0  0  0  0  0999 V2000
  -25.0940    2.1570   27.8030 C   0  0  0  0  0  0  0  0  0  0  0  0
  -25.6440    0.7620   27.5360 C   0  0  2  0  0  0  0  0  0  0  0  0
  -25.9770    0.6590   26.0680 N   0  0  0  0  0  0  0  0  0  0  0  0
  -26.2100   -0.7900   25.6370 C   0  0  2  0  0  0  0  0  0  0  0  0
  -26.8490   -0.8010   24.2310 C   0  0  0  0  0  0  0  0  0  0  0  0
  -27.6620    0.3450   23.8470 N   0  0  0  0  0  0  0  0  0  0  0  0
  -29.0210    0.3210   23.6420 C   0  0  0  0  0  0  0  0  0  0  0  0
  -29.6910   -0.6470   24.0030 O   0  0  0  0  0  0  0  0  0  0  0  0
  -29.7030    1.5000   23.0220 C   0  0  0  0  0  0  0  0  0  0  0  0
  -29.3850    1.7670   21.6740 C   0  0  0  0  0  0  0  0  0  0  0  0
  -29.9520    2.8480   20.9730 C   0  0  0  0  0  0  0  0  0  0  0  0
  -30.8560    3.7040   21.5970 C   0  0  0  0  0  0  0  0  0  0  0  0
  -31.1790    3.4640   22.9220 C   0  0  0  0  0  0  0  0  0  0  0  0
  -30.6070    2.3710   23.6210 C   0  0  0  0  0  0  0  0  0  0  0  0
  -31.1660    2.4360   24.9950 C   0  0  0  0  0  0  0  0  0  0  0  0
  -30.9330    1.6720   25.9100 O   0  0  0  0  0  0  0  0  0  0  0  0
  -32.0760    3.5940   25.0590 C   0  0  0  0  0  0  0  0  0  0  0  0
  -32.8270    4.0560   26.1220 C   0  0  0  0  0  0  0  0  0  0  0  0
  -33.6110    5.1880   25.8980 C   0  0  0  0  0  0  0  0  0  0  0  0
  -33.6210    5.8150   24.6370 C   0  0  0  0  0  0  0  0  0  0  0  0
  -32.8480    5.3220   23.5760 C   0  0  0  0  0  0  0  0  0  0  0  0
  -32.0700    4.1990   23.7970 C   0  0  0  0  0  0  0  0  0  0  0  0
  -27.0600   -1.5250   26.7140 C   0  0  1  0  0  0  0  0  0  0  0  0
  -26.1860   -2.2520   27.5890 O   0  0  0  0  0  0  0  0  0  0  0  0
  -27.8530   -0.5220   27.5580 C   0  0  2  0  0  0  0  0  0  0  0  0
  -28.6580    0.2820   26.6740 O   0  0  0  0  0  0  0  0  0  0  0  0
  -26.9150    0.4100   28.3580 C   0  0  2  0  0  0  0  0  0  0  0  0
  -27.6680    1.5870   28.6870 O   0  0  0  0  0  0  0  0  0  0  0  0
  -25.0283    2.3237   28.8883 H   0  0  0  0  0  0  0  0  0  0  0  0
  -24.0927    2.2480   27.3568 H   0  0  0  0  0  0  0  0  0  0  0  0
  -25.7638    2.9068   27.3568 H   0  0  0  0  0  0  0  0  0  0  0  0
  -24.8658    0.0485   27.8447 H   0  0  0  0  0  0  0  0  0  0  0  0
  -25.2490    1.0900   25.4860 H   0  0  0  0  0  0  0  0  0  0  0  0
  -26.8550    1.1860   25.9130 H   0  0  0  0  0  0  0  0  0  0  0  0
  -25.2605   -1.3403   25.5625 H   0  0  0  0  0  0  0  0  0  0  0  0
  -26.0317   -0.8837   23.4995 H   0  0  0  0  0  0  0  0  0  0  0  0
  -27.5529   -1.6461   24.2525 H   0  0  0  0  0  0  0  0  0  0  0  0
  -27.1310    1.1230   23.4500 H   0  0  0  0  0  0  0  0  0  0  0  0
  -28.6718    1.1101   21.1545 H   0  0  0  0  0  0  0  0  0  0  0  0
  -29.6782    3.0184   19.9213 H   0  0  0  0  0  0  0  0  0  0  0  0
  -31.3019    4.5488   21.0516 H   0  0  0  0  0  0  0  0  0  0  0  0
  -32.8078    3.5542   27.1007 H   0  0  0  0  0  0  0  0  0  0  0  0
  -34.2269    5.5945   26.7137 H   0  0  0  0  0  0  0  0  0  0  0  0
  -34.2459    6.7068   24.4817 H   0  0  0  0  0  0  0  0  0  0  0  0
  -32.8597    5.8154   22.5929 H   0  0  0  0  0  0  0  0  0  0  0  0
  -27.7576   -2.2034   26.2011 H   0  0  0  0  0  0  0  0  0  0  0  0
  -25.5130   -1.6050   27.9000 H   0  0  0  0  0  0  0  0  0  0  0  0
  -28.4770   -1.0805   28.2713 H   0  0  0  0  0  0  0  0  0  0  0  0
  -29.5790   -0.0350   26.7930 H   0  0  0  0  0  0  0  0  0  0  0  0
  -26.5635   -0.0870   29.2742 H   0  0  0  0  0  0  0  0  0  0  0  0
  -27.5340    1.7710   29.6380 H   0  0  0  0  0  0  0  0  0  0  0  0
  1  2  1  0
  2  3  1  0
  3  4  1  0
  4  5  1  0
  5  6  1  0
  6  7  1  0
  7  8  2  0
  7  9  1  0
  9 10  2  0
 10 11  1  0
 11 12  2  0
 12 13  1  0
 13 14  2  0
 14 15  1  0
 15 16  2  0
 15 17  1  0
 17 18  2  0
 18 19  1  0
 19 20  2  0
 20 21  1  0
 21 22  2  0
  4 23  1  0
 23 24  1  0
 23 25  1  0
 25 26  1  0
 25 27  1  0
 27 28  1  0
 27  2  1  0
 14  9  1  0
 22 17  1  0
 22 13  1  0
  1 29  1  0
  1 30  1  0
  1 31  1  0
  2 32  1  1
  3 33  1  0
  3 34  1  0
  4 35  1  6
  5 36  1  0
  5 37  1  0
  6 38  1  0
 10 39  1  0
 11 40  1  0
 12 41  1  0
 18 42  1  0
 19 43  1  0
 20 44  1  0
 21 45  1  0
 23 46  1  6
 24 47  1  0
 25 48  1  1
 26 49  1  0
 27 50  1  1
 28 51  1  0
M  CHG  1   3   1
M  END
>  <meeko>  (6) 
{"is_sidechain": [false], "free_energy": -8.149, "intermolecular_energy": -9.846, "internal_energy": -1.293}

$$$$
2xii_ligand
     RDKit          3D

 51 54  0  0  0  0  0  0  0  0999 V2000
  -27.9750   -3.3550   27.2600 C   0  0  0  0  0  0  0  0  0  0  0  0
  -27.0820   -2.1210   27.2470 C   0  0  2  0  0  0  0  0  0  0  0  0
  -27.9650   -0.8980   27.2900 N   0  0  0  0  0  0  0  0  0  0  0  0
  -27.1720    0.3660   27.6220 C   0  0  2  0  0  0  0  0  0  0  0  0
  -28.0530    1.6030   27.3390 C   0  0  0  0  0  0  0  0  0  0  0  0
  -29.4800    1.3870   27.1380 N   0  0  0  0  0  0  0  0  0  0  0  0
  -30.1380    1.4960   25.9360 C   0  0  0  0  0  0  0  0  0  0  0  0
  -29.5070    1.5610   24.8820 O   0  0  0  0  0  0  0  0  0  0  0  0
  -31.6340    1.4850   25.9010 C   0  0  0  0  0  0  0  0  0  0  0  0
  -32.2490    2.5470   25.2060 C   0  0  0  0  0  0  0  0  0  0  0  0
  -33.6480    2.6580   25.1000 C   0  0  0  0  0  0  0  0  0  0  0  0
  -34.4840    1.7130   25.6900 C   0  0  0  0  0  0  0  0  0  0  0  0
  -33.9010    0.6640   26.3820 C   0  0  0  0  0  0  0  0  0  0  0  0
  -32.4910    0.5560   26.4820 C   0  0  0  0  0  0  0  0  0  0  0  0
  -32.2370   -0.6620   27.2920 C   0  0  0  0  0  0  0  0  0  0  0  0
  -31.1530   -1.1130   27.6050 O   0  0  0  0  0  0  0  0  0  0  0  0
  -33.5430   -1.2470   27.6490 C   0  0  0  0  0  0  0  0  0  0  0  0
  -33.8170   -2.3800   28.3890 C   0  0  0  0  0  0  0  0  0  0  0  0
  -35.1620   -2.7050   28.5730 C   0  0  0  0  0  0  0  0  0  0  0  0
  -36.1760   -1.9010   28.0190 C   0  0  0  0  0  0  0  0  0  0  0  0
  -35.8660   -0.7560   27.2720 C   0  0  0  0  0  0  0  0  0  0  0  0
  -34.5320   -0.4320   27.0890 C   0  0  0  0  0  0  0  0  0  0  0  0
  -25.8300    0.3630   26.8340 C   0  0  1  0  0  0  0  0  0  0  0  0
  -24.7870   -0.1400   27.6800 O   0  0  0  0  0  0  0  0  0  0  0  0
  -25.9240   -0.5440   25.6030 C   0  0  2  0  0  0  0  0  0  0  0  0
  -27.0370   -0.1070   24.7980 O   0  0  0  0  0  0  0  0  0  0  0  0
  -26.1540   -2.0190   26.0050 C   0  0  2  0  0  0  0  0  0  0  0  0
  -26.7270   -2.6830   24.8680 O   0  0  0  0  0  0  0  0  0  0  0  0
  -28.1848   -3.6449   28.3002 H   0  0  0  0  0  0  0  0  0  0  0  0
  -28.9202   -3.1291   26.7446 H   0  0  0  0  0  0  0  0  0  0  0  0
  -27.4649   -4.1822   26.7446 H   0  0  0  0  0  0  0  0  0  0  0  0
  -26.4218   -2.1969   28.1236 H   0  0  0  0  0  0  0  0  0  0  0  0
  -28.7400   -1.0170   27.9530 H   0  0  0  0  0  0  0  0  0  0  0  0
  -28.3760   -0.7820   26.3450 H   0  0  0  0  0  0  0  0  0  0  0  0
  -26.9053    0.3990   28.6887 H   0  0  0  0  0  0  0  0  0  0  0  0
  -27.9415    2.2879   28.1925 H   0  0  0  0  0  0  0  0  0  0  0  0
  -27.6914    1.9867   26.3736 H   0  0  0  0  0  0  0  0  0  0  0  0
  -30.0360    1.4290   27.9950 H   0  0  0  0  0  0  0  0  0  0  0  0
  -31.6160    3.3118   24.7324 H   0  0  0  0  0  0  0  0  0  0  0  0
  -34.0861    3.5006   24.5449 H   0  0  0  0  0  0  0  0  0  0  0  0
  -35.5777    1.7974   25.6087 H   0  0  0  0  0  0  0  0  0  0  0  0
  -33.0124   -2.9981   28.8140 H   0  0  0  0  0  0  0  0  0  0  0  0
  -35.4320   -3.5977   29.1563 H   0  0  0  0  0  0  0  0  0  0  0  0
  -37.2296   -2.1759   28.1749 H   0  0  0  0  0  0  0  0  0  0  0  0
  -36.6623   -0.1306   26.8420 H   0  0  0  0  0  0  0  0  0  0  0  0
  -25.6150    1.3931   26.5135 H   0  0  0  0  0  0  0  0  0  0  0  0
  -25.0030    0.1660   28.5900 H   0  0  0  0  0  0  0  0  0  0  0  0
  -24.9773   -0.4792   25.0467 H   0  0  0  0  0  0  0  0  0  0  0  0
  -27.2310    0.8100   25.0910 H   0  0  0  0  0  0  0  0  0  0  0  0
  -25.2042   -2.4964   26.2879 H   0  0  0  0  0  0  0  0  0  0  0  0
  -27.7000   -2.6220   24.9460 H   0  0  0  0  0  0  0  0  0  0  0  0
  1  2  1  0
  2  3  1  0
  3  4  1  0
  4  5  1  0
  5  6  1  0
  6  7  1  0
  7  8  2  0
  7  9  1  0
  9 10  2  0
 10 11  1  0
 11 12  2  0
 12 13  1  0
 13 14  2  0
 14 15  1  0
 15 16  2  0
 15 17  1  0
 17 18  2  0
 18 19  1  0
 19 20  2  0
 20 21  1  0
 21 22  2  0
  4 23  1  0
 23 24  1  0
 23 25  1  0
 25 26  1  0
 25 27  1  0
 27 28  1  0
 27  2  1  0
 14  9  1  0
 22 17  1  0
 22 13  1  0
  1 29  1  0
  1 30  1  0
  1 31  1  0
  2 32  1  1
  3 33  1  0
  3 34  1  0
  4 35  1  1
  5 36  1  0
  5 37  1  0
  6 38  1  0
 10 39  1  0
 11 40  1  0
 12 41  1  0
 18 42  1  0
 19 43  1  0
 20 44  1  0
 21 45  1  0
 23 46  1  6
 24 47  1  0
 25 48  1  6
 26 49  1  0
 27 50  1  1
 28 51  1  0
M  CHG  1   3   1
M  END
>  <meeko>  (7) 
{"is_sidechain": [false], "free_energy": -8.149, "intermolecular_energy": -9.792, "internal_energy": -1.348}

$$$$
2xii_ligand
     RDKit          3D

 51 54  0  0  0  0  0  0  0  0999 V2000
  -28.1050   -3.3520   27.1230 C   0  0  0  0  0  0  0  0  0  0  0  0
  -27.2390   -2.1040   27.2260 C   0  0  2  0  0  0  0  0  0  0  0  0
  -28.1370   -0.8960   27.1340 N   0  0  0  0  0  0  0  0  0  0  0  0
  -27.4180    0.3840   27.5640 C   0  0  2  0  0  0  0  0  0  0  0  0
  -28.2700    1.6040   27.1500 C   0  0  0  0  0  0  0  0  0  0  0  0
  -29.6480    1.3620   26.7460 N   0  0  0  0  0  0  0  0  0  0  0  0
  -30.1150    1.3990   25.4530 C   0  0  0  0  0  0  0  0  0  0  0  0
  -29.3290    1.4120   24.5050 O   0  0  0  0  0  0  0  0  0  0  0  0
  -31.5870    1.3700   25.1900 C   0  0  0  0  0  0  0  0  0  0  0  0
  -32.0680    0.2650   24.4570 C   0  0  0  0  0  0  0  0  0  0  0  0
  -33.4310    0.1180   24.1370 C   0  0  0  0  0  0  0  0  0  0  0  0
  -34.3630    1.0740   24.5350 C   0  0  0  0  0  0  0  0  0  0  0  0
  -33.9120    2.1700   25.2520 C   0  0  0  0  0  0  0  0  0  0  0  0
  -32.5380    2.3100   25.5740 C   0  0  0  0  0  0  0  0  0  0  0  0
  -32.4290    3.5880   26.3220 C   0  0  0  0  0  0  0  0  0  0  0  0
  -31.4170    4.0740   26.7850 O   0  0  0  0  0  0  0  0  0  0  0  0
  -33.7800    4.1710   26.4200 C   0  0  0  0  0  0  0  0  0  0  0  0
  -34.1810    5.3470   27.0230 C   0  0  0  0  0  0  0  0  0  0  0  0
  -35.5400    5.6560   26.9650 C   0  0  0  0  0  0  0  0  0  0  0  0
  -36.4440    4.7950   26.3150 C   0  0  0  0  0  0  0  0  0  0  0  0
  -36.0070    3.6070   25.7120 C   0  0  0  0  0  0  0  0  0  0  0  0
  -34.6590    3.2980   25.7690 C   0  0  0  0  0  0  0  0  0  0  0  0
  -25.9790    0.3980   26.9740 C   0  0  1  0  0  0  0  0  0  0  0  0
  -25.0580   -0.0830   27.9620 O   0  0  0  0  0  0  0  0  0  0  0  0
  -25.8840   -0.5180   25.7490 C   0  0  2  0  0  0  0  0  0  0  0  0
  -26.8790   -0.1040   24.7920 O   0  0  0  0  0  0  0  0  0  0  0  0
  -26.1460   -1.9940   26.1260 C   0  0  2  0  0  0  0  0  0  0  0  0
  -26.5420   -2.6740   24.9250 O   0  0  0  0  0  0  0  0  0  0  0  0
  -28.3536   -3.7102   28.1329 H   0  0  0  0  0  0  0  0  0  0  0  0
  -29.0315   -3.1117   26.5808 H   0  0  0  0  0  0  0  0  0  0  0  0
  -27.5557   -4.1358   26.5808 H   0  0  0  0  0  0  0  0  0  0  0  0
  -26.7086   -2.1639   28.1878 H   0  0  0  0  0  0  0  0  0  0  0  0
  -28.9960   -1.0230   27.6820 H   0  0  0  0  0  0  0  0  0  0  0  0
  -28.4130   -0.7920   26.1400 H   0  0  0  0  0  0  0  0  0  0  0  0
  -27.3045    0.4286   28.6572 H   0  0  0  0  0  0  0  0  0  0  0  0
  -28.2952    2.2931   28.0071 H   0  0  0  0  0  0  0  0  0  0  0  0
  -27.7791    1.9915   26.2451 H   0  0  0  0  0  0  0  0  0  0  0  0
  -30.3290    1.4470   27.5040 H   0  0  0  0  0  0  0  0  0  0  0  0
  -31.3563   -0.5054   24.1253 H   0  0  0  0  0  0  0  0  0  0  0  0
  -33.7639   -0.7615   23.5663 H   0  0  0  0  0  0  0  0  0  0  0  0
  -35.4286    0.9615   24.2865 H   0  0  0  0  0  0  0  0  0  0  0  0
  -33.4615    6.0098   27.5261 H   0  0  0  0  0  0  0  0  0  0  0  0
  -35.9087    6.5814   27.4317 H   0  0  0  0  0  0  0  0  0  0  0  0
  -37.5114    5.0586   26.2795 H   0  0  0  0  0  0  0  0  0  0  0  0
  -36.7179    2.9371   25.2061 H   0  0  0  0  0  0  0  0  0  0  0  0
  -25.7371    1.4298   26.6793 H   0  0  0  0  0  0  0  0  0  0  0  0
  -24.8090   -0.9930   27.6820 H   0  0  0  0  0  0  0  0  0  0  0  0
  -24.8692   -0.4410   25.3315 H   0  0  0  0  0  0  0  0  0  0  0  0
  -27.3700   -0.9190   24.5510 H   0  0  0  0  0  0  0  0  0  0  0  0
  -25.2385   -2.4543   26.5439 H   0  0  0  0  0  0  0  0  0  0  0  0
  -26.0940   -2.2370   24.1730 H   0  0  0  0  0  0  0  0  0  0  0  0
  1  2  1  0
  2  3  1  0
  3  4  1  0
  4  5  1  0
  5  6  1  0
  6  7  1  0
  7  8  2  0
  7  9  1  0
  9 10  2  0
 10 11  1  0
 11 12  2  0
 12 13  1  0
 13 14  2  0
 14 15  1  0
 15 16  2  0
 15 17  1  0
 17 18  2  0
 18 19  1  0
 19 20  2  0
 20 21  1  0
 21 22  2  0
  4 23  1  0
 23 24  1  0
 23 25  1  0
 25 26  1  0
 25 27  1  0
 27 28  1  0
 27  2  1  0
 14  9  1  0
 22 17  1  0
 22 13  1  0
  1 29  1  0
  1 30  1  0
  1 31  1  0
  2 32  1  1
  3 33  1  0
  3 34  1  0
  4 35  1  1
  5 36  1  0
  5 37  1  0
  6 38  1  0
 10 39  1  0
 11 40  1  0
 12 41  1  0
 18 42  1  0
 19 43  1  0
 20 44  1  0
 21 45  1  0
 23 46  1  6
 24 47  1  0
 25 48  1  6
 26 49  1  0
 27 50  1  1
 28 51  1  0
M  CHG  1   3   1
M  END
>  <meeko>  (8) 
{"is_sidechain": [false], "free_energy": -7.934, "intermolecular_energy": -9.82, "internal_energy": -1.048}

$$$$
2xii_ligand
     RDKit          3D

 51 54  0  0  0  0  0  0  0  0999 V2000
  -28.7790    1.0490   21.3170 C   0  0  0  0  0  0  0  0  0  0  0  0
  -29.5690    2.2420   21.8380 C   0  0  2  0  0  0  0  0  0  0  0  0
  -29.8230    2.0330   23.3110 N   0  0  0  0  0  0  0  0  0  0  0  0
  -30.3030    3.3140   23.9940 C   0  0  2  0  0  0  0  0  0  0  0  0
  -30.8430    2.9650   25.3990 C   0  0  0  0  0  0  0  0  0  0  0  0
  -30.5620    1.6340   25.9200 N   0  0  0  0  0  0  0  0  0  0  0  0
  -31.4840    0.6240   26.0570 C   0  0  0  0  0  0  0  0  0  0  0  0
  -32.5870    0.7080   25.5170 O   0  0  0  0  0  0  0  0  0  0  0  0
  -31.1290   -0.6110   26.8230 C   0  0  0  0  0  0  0  0  0  0  0  0
  -32.1550   -1.1710   27.6130 C   0  0  0  0  0  0  0  0  0  0  0  0
  -31.9540   -2.3290   28.3870 C   0  0  0  0  0  0  0  0  0  0  0  0
  -30.7170   -2.9690   28.4010 C   0  0  0  0  0  0  0  0  0  0  0  0
  -29.6930   -2.4340   27.6360 C   0  0  0  0  0  0  0  0  0  0  0  0
  -29.9040   -1.2690   26.8560 C   0  0  0  0  0  0  0  0  0  0  0  0
  -28.6050   -0.9880   26.1940 C   0  0  0  0  0  0  0  0  0  0  0  0
  -28.3620   -0.0740   25.4310 O   0  0  0  0  0  0  0  0  0  0  0  0
  -27.6490   -2.0280   26.6150 C   0  0  0  0  0  0  0  0  0  0  0  0
  -26.3230   -2.1880   26.2630 C   0  0  0  0  0  0  0  0  0  0  0  0
  -25.6480   -3.2760   26.8170 C   0  0  0  0  0  0  0  0  0  0  0  0
  -26.3080   -4.1580   27.6940 C   0  0  0  0  0  0  0  0  0  0  0  0
  -27.6560   -3.9700   28.0330 C   0  0  0  0  0  0  0  0  0  0  0  0
  -28.3270   -2.8900   27.4830 C   0  0  0  0  0  0  0  0  0  0  0  0
  -31.3450    4.0310   23.0860 C   0  0  1  0  0  0  0  0  0  0  0  0
  -30.6850    5.0520   22.3260 O   0  0  0  0  0  0  0  0  0  0  0  0
  -31.9810    3.0430   22.1040 C   0  0  2  0  0  0  0  0  0  0  0  0
  -32.5590    1.9580   22.8580 O   0  0  0  0  0  0  0  0  0  0  0  0
  -30.9340    2.4630   21.1270 C   0  0  2  0  0  0  0  0  0  0  0  0
  -31.4650    1.2290   20.6200 O   0  0  0  0  0  0  0  0  0  0  0  0
  -28.3929    0.4659   22.1660 H   0  0  0  0  0  0  0  0  0  0  0  0
  -29.4356    0.4138   20.7043 H   0  0  0  0  0  0  0  0  0  0  0  0
  -27.9379    1.4055   20.7043 H   0  0  0  0  0  0  0  0  0  0  0  0
  -28.9633    3.1376   21.6352 H   0  0  0  0  0  0  0  0  0  0  0  0
  -28.9900    1.6660   23.7880 H   0  0  0  0  0  0  0  0  0  0  0  0
  -30.5710    1.3220   23.3960 H   0  0  0  0  0  0  0  0  0  0  0  0
  -29.4742    4.0233   24.1358 H   0  0  0  0  0  0  0  0  0  0  0  0
  -30.4152    3.6916   26.1054 H   0  0  0  0  0  0  0  0  0  0  0  0
  -31.9374    2.9971   25.2926 H   0  0  0  0  0  0  0  0  0  0  0  0
  -29.6950    1.5690   26.4590 H   0  0  0  0  0  0  0  0  0  0  0  0
  -33.1429   -0.6874   27.6243 H   0  0  0  0  0  0  0  0  0  0  0  0
  -32.7826   -2.7330   28.9873 H   0  0  0  0  0  0  0  0  0  0  0  0
  -30.5572   -3.8753   29.0035 H   0  0  0  0  0  0  0  0  0  0  0  0
  -25.8219   -1.4892   25.5770 H   0  0  0  0  0  0  0  0  0  0  0  0
  -24.5906   -3.4464   26.5664 H   0  0  0  0  0  0  0  0  0  0  0  0
  -25.7570   -5.0091   28.1206 H   0  0  0  0  0  0  0  0  0  0  0  0
  -28.1673   -4.6624   28.7180 H   0  0  0  0  0  0  0  0  0  0  0  0
  -32.1264    4.4616   23.7295 H   0  0  0  0  0  0  0  0  0  0  0  0
  -31.3990    5.6060   21.9370 H   0  0  0  0  0  0  0  0  0  0  0  0
  -32.7444    3.5752   21.5175 H   0  0  0  0  0  0  0  0  0  0  0  0
  -31.9130    1.2210   22.7980 H   0  0  0  0  0  0  0  0  0  0  0  0
  -30.7440    3.1648   20.3015 H   0  0  0  0  0  0  0  0  0  0  0  0
  -32.0380    1.4420   19.8570 H   0  0  0  0  0  0  0  0  0  0  0  0
  1  2  1  0
  2  3  1  0
  3  4  1  0
  4  5  1  0
  5  6  1  0
  6  7  1  0
  7  8  2  0
  7  9  1  0
  9 10  2  0
 10 11  1  0
 11 12  2  0
 12 13  1  0
 13 14  2  0
 14 15  1  0
 15 16  2  0
 15 17  1  0
 17 18  2  0
 18 19  1  0
 19 20  2  0
 20 21  1  0
 21 22  2  0
  4 23  1  0
 23 24  1  0
 23 25  1  0
 25 26  1  0
 25 27  1  0
 27 28  1  0
 27  2  1  0
 14  9  1  0
 22 17  1  0
 22 13  1  0
  1 29  1  0
  1 30  1  0
  1 31  1  0
  2 32  1  1
  3 33  1  0
  3 34  1  0
  4 35  1  1
  5 36  1  0
  5 37  1  0
  6 38  1  0
 10 39  1  0
 11 40  1  0
 12 41  1  0
 18 42  1  0
 19 43  1  0
 20 44  1  0
 21 45  1  0
 23 46  1  1
 24 47  1  0
 25 48  1  6
 26 49  1  0
 27 50  1  6
 28 51  1  0
M  CHG  1   3   1
M  END
>  <meeko>  (9) 
{"is_sidechain": [false], "free_energy": -7.74, "intermolecular_energy": -9.47, "internal_energy": -1.154}

$$$$
