2j7h_ligand
     RDKit          3D

 24 24  0  0  0  0  0  0  0  0999 V2000
    0.6860   12.5920   10.4370 O   0  0  0  0  0  0  0  0  0  0  0  0
    0.8260   11.8640    9.2070 C   0  0  0  0  0  0  0  0  0  0  0  0
   -0.1700   10.7060    9.3010 C   0  0  1  0  0  0  0  0  0  0  0  0
   -0.6390   10.6680   10.7480 N   0  0  0  0  0  0  0  0  0  0  0  0
   -1.5930    9.4140   10.9790 N   0  0  0  0  0  0  0  0  0  0  0  0
   -2.7860    9.5280   10.0650 C   0  0  0  0  0  0  0  0  0  0  0  0
   -2.3510    9.6420    8.5970 C   0  0  1  0  0  0  0  0  0  0  0  0
   -3.5200    9.8690    7.8170 O   0  0  0  0  0  0  0  0  0  0  0  0
   -1.3730   10.8090    8.3640 C   0  0  2  0  0  0  0  0  0  0  0  0
   -0.9020   10.7590    7.0220 O   0  0  0  0  0  0  0  0  0  0  0  0
   -0.0220   13.2610   10.2910 H   0  0  0  0  0  0  0  0  0  0  0  0
    0.5855   12.5091    8.3491 H   0  0  0  0  0  0  0  0  0  0  0  0
    1.8555   11.5056    9.0601 H   0  0  0  0  0  0  0  0  0  0  0  0
    0.3418    9.7858    8.9827 H   0  0  0  0  0  0  0  0  0  0  0  0
   -1.0630   11.5800   11.0160 H   0  0  0  0  0  0  0  0  0  0  0  0
    0.2490   10.6510   11.3110 H   0  0  0  0  0  0  0  0  0  0  0  0
   -1.1010    8.5070   10.8250 H   0  0  0  0  0  0  0  0  0  0  0  0
   -1.9290    9.3670   11.9650 H   0  0  0  0  0  0  0  0  0  0  0  0
   -3.4162    8.6343   10.1842 H   0  0  0  0  0  0  0  0  0  0  0  0
   -3.3459   10.4358   10.3342 H   0  0  0  0  0  0  0  0  0  0  0  0
   -1.8336    8.7134    8.3139 H   0  0  0  0  0  0  0  0  0  0  0  0
   -4.0650   10.5700    8.2300 H   0  0  0  0  0  0  0  0  0  0  0  0
   -1.9031   11.7527    8.5600 H   0  0  0  0  0  0  0  0  0  0  0  0
   -1.4660   11.3260    6.4550 H   0  0  0  0  0  0  0  0  0  0  0  0
  1  2  1  0
  2  3  1  0
  3  4  1  0
  4  5  1  0
  5  6  1  0
  6  7  1  0
  7  8  1  0
  7  9  1  0
  9 10  1  0
  9  3  1  0
  1 11  1  0
  2 12  1  0
  2 13  1  0
  3 14  1  6
  4 15  1  0
  4 16  1  0
  5 17  1  0
  5 18  1  0
  6 19  1  0
  6 20  1  0
  7 21  1  6
  8 22  1  0
  9 23  1  6
 10 24  1  0
M  CHG  2   4   1   5   1
M  END
>  <meeko>  (1) 
{"is_sidechain": [false], "free_energy": -6.198, "intermolecular_energy": -7.104, "internal_energy": -0.031}

$$$$
2j7h_ligand
     RDKit          3D

 24 24  0  0  0  0  0  0  0  0999 V2000
   -1.3710    8.9920   12.3980 O   0  0  0  0  0  0  0  0  0  0  0  0
   -1.9770    8.7600   11.1170 C   0  0  0  0  0  0  0  0  0  0  0  0
   -1.6660   10.0060   10.2850 C   0  0  1  0  0  0  0  0  0  0  0  0
   -0.3420   10.5440   10.8090 N   0  0  0  0  0  0  0  0  0  0  0  0
    0.0120   11.9170   10.0840 N   0  0  0  0  0  0  0  0  0  0  0  0
    0.1160   11.6790    8.5990 C   0  0  0  0  0  0  0  0  0  0  0  0
   -1.1790   11.0670    8.0440 C   0  0  1  0  0  0  0  0  0  0  0  0
   -0.9580   10.7590    6.6720 O   0  0  0  0  0  0  0  0  0  0  0  0
   -1.5770    9.7720    8.7770 C   0  0  2  0  0  0  0  0  0  0  0  0
   -2.8540    9.3500    8.3130 O   0  0  0  0  0  0  0  0  0  0  0  0
   -1.7870    9.8070   12.7640 H   0  0  0  0  0  0  0  0  0  0  0  0
   -1.5461    7.8650   10.6445 H   0  0  0  0  0  0  0  0  0  0  0  0
   -3.0599    8.5873   11.2035 H   0  0  0  0  0  0  0  0  0  0  0  0
   -2.5009   10.7132   10.3985 H   0  0  0  0  0  0  0  0  0  0  0  0
    0.4010    9.8180   10.7300 H   0  0  0  0  0  0  0  0  0  0  0  0
   -0.4830   10.6220   11.8480 H   0  0  0  0  0  0  0  0  0  0  0  0
   -0.6870   12.6640   10.2850 H   0  0  0  0  0  0  0  0  0  0  0  0
    0.9180   12.3060   10.4250 H   0  0  0  0  0  0  0  0  0  0  0  0
    0.3052   12.6378    8.0941 H   0  0  0  0  0  0  0  0  0  0  0  0
    0.9412   10.9753    8.4153 H   0  0  0  0  0  0  0  0  0  0  0  0
   -1.9940   11.7925    8.1836 H   0  0  0  0  0  0  0  0  0  0  0  0
   -1.3020    9.8640    6.4720 H   0  0  0  0  0  0  0  0  0  0  0  0
   -0.8123    9.0076    8.5747 H   0  0  0  0  0  0  0  0  0  0  0  0
   -3.3170   10.1070    7.8950 H   0  0  0  0  0  0  0  0  0  0  0  0
  1  2  1  0
  2  3  1  0
  3  4  1  0
  4  5  1  0
  5  6  1  0
  6  7  1  0
  7  8  1  0
  7  9  1  0
  9 10  1  0
  9  3  1  0
  1 11  1  0
  2 12  1  0
  2 13  1  0
  3 14  1  6
  4 15  1  0
  4 16  1  0
  5 17  1  0
  5 18  1  0
  6 19  1  0
  6 20  1  0
  7 21  1  6
  8 22  1  0
  9 23  1  1
 10 24  1  0
M  CHG  2   4   1   5   1
M  END
>  <meeko>  (2) 
{"is_sidechain": [false], "free_energy": -6.04, "intermolecular_energy": -6.926, "internal_energy": -0.028}

$$$$
2j7h_ligand
     RDKit          3D

 24 24  0  0  0  0  0  0  0  0999 V2000
    0.7510   12.6850   10.5000 O   0  0  0  0  0  0  0  0  0  0  0  0
    0.7430   11.6270    9.5290 C   0  0  0  0  0  0  0  0  0  0  0  0
   -0.5530   10.8530    9.7790 C   0  0  1  0  0  0  0  0  0  0  0  0
   -1.5830   11.4320    8.8200 N   0  0  0  0  0  0  0  0  0  0  0  0
   -3.0070   10.7720    9.0870 N   0  0  0  0  0  0  0  0  0  0  0  0
   -2.9070    9.2820    8.8790 C   0  0  0  0  0  0  0  0  0  0  0  0
   -1.8240    8.6690    9.7800 C   0  0  1  0  0  0  0  0  0  0  0  0
   -1.7060    7.2930    9.4380 O   0  0  0  0  0  0  0  0  0  0  0  0
   -0.4510    9.3400    9.5860 C   0  0  2  0  0  0  0  0  0  0  0  0
    0.4570    8.8250   10.5540 O   0  0  0  0  0  0  0  0  0  0  0  0
    1.4640   13.3110   10.2300 H   0  0  0  0  0  0  0  0  0  0  0  0
    0.7534   12.0405    8.5097 H   0  0  0  0  0  0  0  0  0  0  0  0
    1.6286   10.9811    9.6217 H   0  0  0  0  0  0  0  0  0  0  0  0
   -0.8257   10.9721   10.8380 H   0  0  0  0  0  0  0  0  0  0  0  0
   -1.2520   11.3460    7.8370 H   0  0  0  0  0  0  0  0  0  0  0  0
   -1.5440   12.4690    8.9880 H   0  0  0  0  0  0  0  0  0  0  0  0
   -3.3700   10.9830   10.0420 H   0  0  0  0  0  0  0  0  0  0  0  0
   -3.7310   11.1520    8.4410 H   0  0  0  0  0  0  0  0  0  0  0  0
   -3.8764    8.8201    9.1175 H   0  0  0  0  0  0  0  0  0  0  0  0
   -2.6364    9.0932    7.8297 H   0  0  0  0  0  0  0  0  0  0  0  0
   -2.1206    8.8150   10.8292 H   0  0  0  0  0  0  0  0  0  0  0  0
   -1.7680    7.1840    8.4660 H   0  0  0  0  0  0  0  0  0  0  0  0
   -0.1002    9.1292    8.5649 H   0  0  0  0  0  0  0  0  0  0  0  0
    0.6570    7.8870   10.3480 H   0  0  0  0  0  0  0  0  0  0  0  0
  1  2  1  0
  2  3  1  0
  3  4  1  0
  4  5  1  0
  5  6  1  0
  6  7  1  0
  7  8  1  0
  7  9  1  0
  9 10  1  0
  9  3  1  0
  1 11  1  0
  2 12  1  0
  2 13  1  0
  3 14  1  1
  4 15  1  0
  4 16  1  0
  5 17  1  0
  5 18  1  0
  6 19  1  0
  6 20  1  0
  7 21  1  1
  8 22  1  0
  9 23  1  6
 10 24  1  0
M  CHG  2   4   1   5   1
M  END
>  <meeko>  (3) 
{"is_sidechain": [false], "free_energy": -5.796, "intermolecular_energy": -6.645, "internal_energy": -0.029}

$$$$
2j7h_ligand
     RDKit          3D

 24 24  0  0  0  0  0  0  0  0999 V2000
    1.1570   11.6460    8.2120 O   0  0  0  0  0  0  0  0  0  0  0  0
   -0.1520   11.9830    7.7270 C   0  0  0  0  0  0  0  0  0  0  0  0
   -1.1290   11.2050    8.6130 C   0  0  1  0  0  0  0  0  0  0  0  0
   -1.6140   10.0290    7.7780 N   0  0  0  0  0  0  0  0  0  0  0  0
   -2.7320    9.2210    8.5730 N   0  0  0  0  0  0  0  0  0  0  0  0
   -2.1480    8.7140    9.8670 C   0  0  0  0  0  0  0  0  0  0  0  0
   -1.5810    9.8670   10.7090 C   0  0  1  0  0  0  0  0  0  0  0  0
   -0.9430    9.2980   11.8460 O   0  0  0  0  0  0  0  0  0  0  0  0
   -0.5450   10.7040    9.9340 C   0  0  2  0  0  0  0  0  0  0  0  0
   -0.1800   11.8330   10.7200 O   0  0  0  0  0  0  0  0  0  0  0  0
    1.7660   12.3520    7.8960 H   0  0  0  0  0  0  0  0  0  0  0  0
   -0.3288   13.0649    7.8175 H   0  0  0  0  0  0  0  0  0  0  0  0
   -0.2720   11.7267    6.6640 H   0  0  0  0  0  0  0  0  0  0  0  0
   -1.9367   11.8874    8.9162 H   0  0  0  0  0  0  0  0  0  0  0  0
   -0.8080    9.4470    7.4690 H   0  0  0  0  0  0  0  0  0  0  0  0
   -1.9440   10.4640    6.8790 H   0  0  0  0  0  0  0  0  0  0  0  0
   -3.5820    9.7970    8.7580 H   0  0  0  0  0  0  0  0  0  0  0  0
   -3.0810    8.4080    8.0210 H   0  0  0  0  0  0  0  0  0  0  0  0
   -2.9358    8.2040   10.4409 H   0  0  0  0  0  0  0  0  0  0  0  0
   -1.3288    8.0188    9.6311 H   0  0  0  0  0  0  0  0  0  0  0  0
   -2.4090   10.5360   10.9863 H   0  0  0  0  0  0  0  0  0  0  0  0
   -0.7520    9.9960   12.5060 H   0  0  0  0  0  0  0  0  0  0  0  0
    0.3296   10.0706    9.7245 H   0  0  0  0  0  0  0  0  0  0  0  0
    0.0330   12.5870   10.1300 H   0  0  0  0  0  0  0  0  0  0  0  0
  1  2  1  0
  2  3  1  0
  3  4  1  0
  4  5  1  0
  5  6  1  0
  6  7  1  0
  7  8  1  0
  7  9  1  0
  9 10  1  0
  9  3  1  0
  1 11  1  0
  2 12  1  0
  2 13  1  0
  3 14  1  1
  4 15  1  0
  4 16  1  0
  5 17  1  0
  5 18  1  0
  6 19  1  0
  6 20  1  0
  7 21  1  1
  8 22  1  0
  9 23  1  6
 10 24  1  0
M  CHG  2   4   1   5   1
M  END
>  <meeko>  (4) 
{"is_sidechain": [false], "free_energy": -5.795, "intermolecular_energy": -6.433, "internal_energy": -0.239}

$$$$
2j7h_ligand
     RDKit          3D

 24 24  0  0  0  0  0  0  0  0999 V2000
   -3.9920    9.8100    8.9060 O   0  0  0  0  0  0  0  0  0  0  0  0
   -2.9340    8.9690    9.3920 C   0  0  0  0  0  0  0  0  0  0  0  0
   -1.6360    9.7020    9.0430 C   0  0  1  0  0  0  0  0  0  0  0  0
   -1.9230   10.4880    7.7730 N   0  0  0  0  0  0  0  0  0  0  0  0
   -0.5920   11.1950    7.2570 N   0  0  0  0  0  0  0  0  0  0  0  0
   -0.0850   12.1300    8.3260 C   0  0  0  0  0  0  0  0  0  0  0  0
    0.1480   11.3850    9.6490 C   0  0  1  0  0  0  0  0  0  0  0  0
    0.5030   12.3510   10.6310 O   0  0  0  0  0  0  0  0  0  0  0  0
   -1.1100   10.6380   10.1310 C   0  0  2  0  0  0  0  0  0  0  0  0
   -0.7760    9.8560   11.2720 O   0  0  0  0  0  0  0  0  0  0  0  0
   -3.9570   10.6420    9.4350 H   0  0  0  0  0  0  0  0  0  0  0  0
   -3.0189    8.8346   10.4805 H   0  0  0  0  0  0  0  0  0  0  0  0
   -2.9702    7.9661    8.9416 H   0  0  0  0  0  0  0  0  0  0  0  0
   -0.8390    8.9534    8.9225 H   0  0  0  0  0  0  0  0  0  0  0  0
   -2.7200   11.1410    7.9220 H   0  0  0  0  0  0  0  0  0  0  0  0
   -2.3260    9.7780    7.1090 H   0  0  0  0  0  0  0  0  0  0  0  0
    0.1460   10.5060    6.9950 H   0  0  0  0  0  0  0  0  0  0  0  0
   -0.7630   11.7420    6.3870 H   0  0  0  0  0  0  0  0  0  0  0  0
    0.8640   12.5754    7.9928 H   0  0  0  0  0  0  0  0  0  0  0  0
   -0.8414   12.9108    8.4939 H   0  0  0  0  0  0  0  0  0  0  0  0
    0.9394   10.6372    9.4927 H   0  0  0  0  0  0  0  0  0  0  0  0
    0.9000   11.9060   11.4090 H   0  0  0  0  0  0  0  0  0  0  0  0
   -1.8848   11.3796   10.3752 H   0  0  0  0  0  0  0  0  0  0  0  0
   -0.8070   10.4180   12.0750 H   0  0  0  0  0  0  0  0  0  0  0  0
  1  2  1  0
  2  3  1  0
  3  4  1  0
  4  5  1  0
  5  6  1  0
  6  7  1  0
  7  8  1  0
  7  9  1  0
  9 10  1  0
  9  3  1  0
  1 11  1  0
  2 12  1  0
  2 13  1  0
  3 14  1  6
  4 15  1  0
  4 16  1  0
  5 17  1  0
  5 18  1  0
  6 19  1  0
  6 20  1  0
  7 21  1  6
  8 22  1  0
  9 23  1  1
 10 24  1  0
M  CHG  2   4   1   5   1
M  END
>  <meeko>  (5) 
{"is_sidechain": [false], "free_energy": -5.69, "intermolecular_energy": -6.52, "internal_energy": -0.033}

$$$$
2j7h_ligand
     RDKit          3D

 24 24  0  0  0  0  0  0  0  0999 V2000
   -1.0580   10.5390    6.8840 O   0  0  0  0  0  0  0  0  0  0  0  0
   -0.7080   10.8980    8.2300 C   0  0  0  0  0  0  0  0  0  0  0  0
   -1.0910    9.6890    9.0870 C   0  0  1  0  0  0  0  0  0  0  0  0
   -0.2770    8.5190    8.5560 N   0  0  0  0  0  0  0  0  0  0  0  0
   -0.6950    7.1790    9.3080 N   0  0  0  0  0  0  0  0  0  0  0  0
   -0.4380    7.3420   10.7850 C   0  0  0  0  0  0  0  0  0  0  0  0
   -1.1870    8.5600   11.3460 C   0  0  1  0  0  0  0  0  0  0  0  0
   -0.7970    8.7170   12.7060 O   0  0  0  0  0  0  0  0  0  0  0  0
   -0.8480    9.8570   10.5880 C   0  0  2  0  0  0  0  0  0  0  0  0
   -1.6860   10.9050   11.0620 O   0  0  0  0  0  0  0  0  0  0  0  0
   -1.8400    9.9430    6.9440 H   0  0  0  0  0  0  0  0  0  0  0  0
    0.3710   11.0975    8.3067 H   0  0  0  0  0  0  0  0  0  0  0  0
   -1.2263   11.8114    8.5572 H   0  0  0  0  0  0  0  0  0  0  0  0
   -2.1775    9.5389    9.0040 H   0  0  0  0  0  0  0  0  0  0  0  0
    0.7410    8.7330    8.6030 H   0  0  0  0  0  0  0  0  0  0  0  0
   -0.4660    8.5160    7.5210 H   0  0  0  0  0  0  0  0  0  0  0  0
   -1.6920    6.9220    9.1380 H   0  0  0  0  0  0  0  0  0  0  0  0
   -0.1500    6.3600    8.9620 H   0  0  0  0  0  0  0  0  0  0  0  0
   -0.7783    6.4377   11.3107 H   0  0  0  0  0  0  0  0  0  0  0  0
    0.6407    7.4950   10.9369 H   0  0  0  0  0  0  0  0  0  0  0  0
   -2.2675    8.3844   11.2382 H   0  0  0  0  0  0  0  0  0  0  0  0
    0.0100    8.1920   12.8840 H   0  0  0  0  0  0  0  0  0  0  0  0
    0.2127   10.0933   10.7589 H   0  0  0  0  0  0  0  0  0  0  0  0
   -1.8500   10.7830   12.0220 H   0  0  0  0  0  0  0  0  0  0  0  0
  1  2  1  0
  2  3  1  0
  3  4  1  0
  4  5  1  0
  5  6  1  0
  6  7  1  0
  7  8  1  0
  7  9  1  0
  9 10  1  0
  9  3  1  0
  1 11  1  0
  2 12  1  0
  2 13  1  0
  3 14  1  1
  4 15  1  0
  4 16  1  0
  5 17  1  0
  5 18  1  0
  6 19  1  0
  6 20  1  0
  7 21  1  1
  8 22  1  0
  9 23  1  6
 10 24  1  0
M  CHG  2   4   1   5   1
M  END
>  <meeko>  (6) 
{"is_sidechain": [false], "free_energy": -5.477, "intermolecular_energy": -6.287, "internal_energy": -0.022}

$$$$
2j7h_ligand
     RDKit          3D

 24 24  0  0  0  0  0  0  0  0999 V2000
   -4.7460    6.5520   17.2810 O   0  0  0  0  0  0  0  0  0  0  0  0
   -3.5310    6.4080   16.5290 C   0  0  0  0  0  0  0  0  0  0  0  0
   -2.6700    5.4280   17.3280 C   0  0  1  0  0  0  0  0  0  0  0  0
   -2.7400    4.1010   16.5870 N   0  0  0  0  0  0  0  0  0  0  0  0
   -1.9690    2.9760   17.4090 N   0  0  0  0  0  0  0  0  0  0  0  0
   -0.5270    3.3860   17.5720 C   0  0  0  0  0  0  0  0  0  0  0  0
   -0.4150    4.7580   18.2530 C   0  0  1  0  0  0  0  0  0  0  0  0
    0.9590    5.1270   18.2580 O   0  0  0  0  0  0  0  0  0  0  0  0
   -1.2110    5.8490   17.5110 C   0  0  2  0  0  0  0  0  0  0  0  0
   -1.1830    7.0470   18.2770 O   0  0  0  0  0  0  0  0  0  0  0  0
   -4.9300    7.5190   17.3390 H   0  0  0  0  0  0  0  0  0  0  0  0
   -3.7439    6.0049   15.5279 H   0  0  0  0  0  0  0  0  0  0  0  0
   -3.0236    7.3732   16.3844 H   0  0  0  0  0  0  0  0  0  0  0  0
   -3.0673    5.3777   18.3525 H   0  0  0  0  0  0  0  0  0  0  0  0
   -2.4080    4.2150   15.6070 H   0  0  0  0  0  0  0  0  0  0  0  0
   -3.7700    3.9240   16.4640 H   0  0  0  0  0  0  0  0  0  0  0  0
   -2.4040    2.7960   18.3390 H   0  0  0  0  0  0  0  0  0  0  0  0
   -2.0020    2.0560   16.9200 H   0  0  0  0  0  0  0  0  0  0  0  0
   -0.0078    2.6363   18.1872 H   0  0  0  0  0  0  0  0  0  0  0  0
   -0.0683    3.4530   16.5745 H   0  0  0  0  0  0  0  0  0  0  0  0
   -0.8297    4.6764   19.2686 H   0  0  0  0  0  0  0  0  0  0  0  0
    1.3480    4.9550   19.1400 H   0  0  0  0  0  0  0  0  0  0  0  0
   -0.7528    6.0036   16.5230 H   0  0  0  0  0  0  0  0  0  0  0  0
   -2.0970    7.3860   18.3880 H   0  0  0  0  0  0  0  0  0  0  0  0
  1  2  1  0
  2  3  1  0
  3  4  1  0
  4  5  1  0
  5  6  1  0
  6  7  1  0
  7  8  1  0
  7  9  1  0
  9 10  1  0
  9  3  1  0
  1 11  1  0
  2 12  1  0
  2 13  1  0
  3 14  1  1
  4 15  1  0
  4 16  1  0
  5 17  1  0
  5 18  1  0
  6 19  1  0
  6 20  1  0
  7 21  1  1
  8 22  1  0
  9 23  1  6
 10 24  1  0
M  CHG  2   4   1   5   1
M  END
>  <meeko>  (7) 
{"is_sidechain": [false], "free_energy": -5.378, "intermolecular_energy": -6.158, "internal_energy": -0.037}

$$$$
2j7h_ligand
     RDKit          3D

 24 24  0  0  0  0  0  0  0  0999 V2000
    0.4330   11.8330    7.9420 O   0  0  0  0  0  0  0  0  0  0  0  0
   -0.7750   11.7520    8.7150 C   0  0  0  0  0  0  0  0  0  0  0  0
   -0.5970   10.5340    9.6250 C   0  0  1  0  0  0  0  0  0  0  0  0
   -1.4740   10.7860   10.8430 N   0  0  0  0  0  0  0  0  0  0  0  0
   -1.2650    9.6240   11.9120 N   0  0  0  0  0  0  0  0  0  0  0  0
   -1.6380    8.3040   11.2860 C   0  0  0  0  0  0  0  0  0  0  0  0
   -0.8230    8.0470   10.0090 C   0  0  1  0  0  0  0  0  0  0  0  0
   -1.3180    6.8520    9.4150 O   0  0  0  0  0  0  0  0  0  0  0  0
   -0.9580    9.1920    8.9880 C   0  0  2  0  0  0  0  0  0  0  0  0
   -0.0650    8.9560    7.9050 O   0  0  0  0  0  0  0  0  0  0  0  0
    0.3680   11.1410    7.2430 H   0  0  0  0  0  0  0  0  0  0  0  0
   -0.9093   12.6640    9.3152 H   0  0  0  0  0  0  0  0  0  0  0  0
   -1.6640   11.6564    8.0743 H   0  0  0  0  0  0  0  0  0  0  0  0
    0.4716   10.4380    9.8676 H   0  0  0  0  0  0  0  0  0  0  0  0
   -2.4640   10.9250   10.5550 H   0  0  0  0  0  0  0  0  0  0  0  0
   -1.1920   11.7420   11.1760 H   0  0  0  0  0  0  0  0  0  0  0  0
   -0.2880    9.5910   12.2770 H   0  0  0  0  0  0  0  0  0  0  0  0
   -1.8560    9.7730   12.7580 H   0  0  0  0  0  0  0  0  0  0  0  0
   -1.4410    7.4964   12.0064 H   0  0  0  0  0  0  0  0  0  0  0  0
   -2.7048    8.3330   11.0195 H   0  0  0  0  0  0  0  0  0  0  0  0
    0.2394    7.9687   10.2831 H   0  0  0  0  0  0  0  0  0  0  0  0
   -0.6770    6.5190    8.7530 H   0  0  0  0  0  0  0  0  0  0  0  0
   -2.0005    9.2265    8.6386 H   0  0  0  0  0  0  0  0  0  0  0  0
    0.2260    9.8130    7.5280 H   0  0  0  0  0  0  0  0  0  0  0  0
  1  2  1  0
  2  3  1  0
  3  4  1  0
  4  5  1  0
  5  6  1  0
  6  7  1  0
  7  8  1  0
  7  9  1  0
  9 10  1  0
  9  3  1  0
  1 11  1  0
  2 12  1  0
  2 13  1  0
  3 14  1  1
  4 15  1  0
  4 16  1  0
  5 17  1  0
  5 18  1  0
  6 19  1  0
  6 20  1  0
  7 21  1  1
  8 22  1  0
  9 23  1  6
 10 24  1  0
M  CHG  2   4   1   5   1
M  END
>  <meeko>  (8) 
{"is_sidechain": [false], "free_energy": -5.308, "intermolecular_energy": -5.878, "internal_energy": -0.237}

$$$$
2j7h_ligand
     RDKit          3D

 24 24  0  0  0  0  0  0  0  0999 V2000
   -1.2350    9.2200   12.5390 O   0  0  0  0  0  0  0  0  0  0  0  0
   -1.9560    8.2660   11.7430 C   0  0  0  0  0  0  0  0  0  0  0  0
   -1.7030    8.6720   10.2890 C   0  0  1  0  0  0  0  0  0  0  0  0
   -3.0000    9.2960    9.7930 N   0  0  0  0  0  0  0  0  0  0  0  0
   -2.8780    9.6440    8.2440 N   0  0  0  0  0  0  0  0  0  0  0  0
   -1.7420   10.6160    8.0450 C   0  0  0  0  0  0  0  0  0  0  0  0
   -0.4260   10.0520    8.6000 C   0  0  1  0  0  0  0  0  0  0  0  0
    0.5610   11.0700    8.4880 O   0  0  0  0  0  0  0  0  0  0  0  0
   -0.5420    9.6450   10.0820 C   0  0  2  0  0  0  0  0  0  0  0  0
    0.6610    8.9970   10.4800 O   0  0  0  0  0  0  0  0  0  0  0  0
   -0.9730    9.9520   11.9330 H   0  0  0  0  0  0  0  0  0  0  0  0
   -1.5811    7.2487   11.9289 H   0  0  0  0  0  0  0  0  0  0  0  0
   -3.0292    8.2612   11.9845 H   0  0  0  0  0  0  0  0  0  0  0  0
   -1.4065    7.7740    9.7271 H   0  0  0  0  0  0  0  0  0  0  0  0
   -3.2650   10.1050   10.3910 H   0  0  0  0  0  0  0  0  0  0  0  0
   -3.7380    8.5840   10.0240 H   0  0  0  0  0  0  0  0  0  0  0  0
   -2.7370    8.7940    7.6560 H   0  0  0  0  0  0  0  0  0  0  0  0
   -3.7550   10.0740    7.8790 H   0  0  0  0  0  0  0  0  0  0  0  0
   -1.6227   10.8133    6.9694 H   0  0  0  0  0  0  0  0  0  0  0  0
   -1.9788   11.5444    8.5853 H   0  0  0  0  0  0  0  0  0  0  0  0
   -0.1637    9.1509    8.0263 H   0  0  0  0  0  0  0  0  0  0  0  0
    1.3680   10.7070    8.0670 H   0  0  0  0  0  0  0  0  0  0  0  0
   -0.7184   10.5510   10.6803 H   0  0  0  0  0  0  0  0  0  0  0  0
    0.5310    8.5760   11.3560 H   0  0  0  0  0  0  0  0  0  0  0  0
  1  2  1  0
  2  3  1  0
  3  4  1  0
  4  5  1  0
  5  6  1  0
  6  7  1  0
  7  8  1  0
  7  9  1  0
  9 10  1  0
  9  3  1  0
  1 11  1  0
  2 12  1  0
  2 13  1  0
  3 14  1  6
  4 15  1  0
  4 16  1  0
  5 17  1  0
  5 18  1  0
  6 19  1  0
  6 20  1  0
  7 21  1  6
  8 22  1  0
  9 23  1  1
 10 24  1  0
M  CHG  2   4   1   5   1
M  END
>  <meeko>  (9) 
{"is_sidechain": [false], "free_energy": -5.14, "intermolecular_energy": -5.69, "internal_energy": -0.233}

$$$$
