2zcr_ligand
     RDKit          3D

 53 54  0  0  0  0  0  0  0  0999 V2000
    9.6360   61.7010   38.1830 C   0  0  0  0  0  0  0  0  0  0  0  0
    9.6450   60.1870   38.0380 C   0  0  0  0  0  0  0  0  0  0  0  0
   10.6900   59.4930   38.9180 C   0  0  0  0  0  0  0  0  0  0  0  0
   12.1420   59.9140   38.6640 C   0  0  0  0  0  0  0  0  0  0  0  0
   13.0840   58.7570   38.4510 C   0  0  0  0  0  0  0  0  0  0  0  0
   14.1400   58.5220   39.3390 C   0  0  0  0  0  0  0  0  0  0  0  0
   15.0160   57.4510   39.1370 C   0  0  0  0  0  0  0  0  0  0  0  0
   14.8620   56.5840   38.0440 C   0  0  0  0  0  0  0  0  0  0  0  0
   15.7840   55.4560   37.8300 C   0  0  0  0  0  0  0  0  0  0  0  0
   15.8300   54.7810   36.6000 C   0  0  0  0  0  0  0  0  0  0  0  0
   16.6940   53.6970   36.4030 C   0  0  0  0  0  0  0  0  0  0  0  0
   17.5410   53.2640   37.4290 C   0  0  0  0  0  0  0  0  0  0  0  0
   18.4550   52.0780   37.2190 C   0  0  0  0  0  0  0  0  0  0  0  0
   18.3560   51.4810   35.8120 C   0  0  0  0  0  0  0  0  0  0  0  0
   19.2860   50.2960   35.5220 C   0  0  0  0  0  0  0  0  0  0  0  0
   20.5790   50.5780   34.7260 C   0  0  2  0  0  0  0  0  0  0  0  0
   21.0780   49.2750   33.5740 P   0  0  2  0  0  5  0  0  0  0  0  0
   21.9940   49.7450   32.4720 O   0  0  0  0  0  0  0  0  0  0  0  0
   19.8270   48.5200   33.1560 O   0  0  0  0  0  0  0  0  0  0  0  0
   21.9230   48.2530   34.5140 O   0  0  0  0  0  0  0  0  0  0  0  0
   21.9480   50.8650   35.8530 S   0  0  0  0  0  0  0  0  0  0  0  0
   23.1720   50.6030   35.1000 O   0  0  0  0  0  0  0  0  0  0  0  0
   21.7100   49.9840   37.0020 O   0  0  0  0  0  0  0  0  0  0  0  0
   21.8310   52.2870   36.2080 O   0  0  0  0  0  0  0  0  0  0  0  0
   17.5020   53.9310   38.6570 C   0  0  0  0  0  0  0  0  0  0  0  0
   16.6350   55.0100   38.8540 C   0  0  0  0  0  0  0  0  0  0  0  0
   13.7980   56.8250   37.1610 C   0  0  0  0  0  0  0  0  0  0  0  0
   12.9210   57.8960   37.3600 C   0  0  0  0  0  0  0  0  0  0  0  0
    9.6344   61.9671   39.2503 H   0  0  0  0  0  0  0  0  0  0  0  0
   10.5317   62.1208   37.7018 H   0  0  0  0  0  0  0  0  0  0  0  0
    8.7354   62.1101   37.7018 H   0  0  0  0  0  0  0  0  0  0  0  0
    8.6505   59.8054   38.3124 H   0  0  0  0  0  0  0  0  0  0  0  0
    9.9045   59.9645   36.9925 H   0  0  0  0  0  0  0  0  0  0  0  0
   10.4507   59.7139   39.9687 H   0  0  0  0  0  0  0  0  0  0  0  0
   10.6351   58.4227   38.6699 H   0  0  0  0  0  0  0  0  0  0  0  0
   12.1664   60.5504   37.7671 H   0  0  0  0  0  0  0  0  0  0  0  0
   12.4840   60.4428   39.5659 H   0  0  0  0  0  0  0  0  0  0  0  0
   14.2822   59.1863   40.2042 H   0  0  0  0  0  0  0  0  0  0  0  0
   15.8398   57.2851   39.8468 H   0  0  0  0  0  0  0  0  0  0  0  0
   15.1769   55.1089   35.7779 H   0  0  0  0  0  0  0  0  0  0  0  0
   16.7070   53.1806   35.4318 H   0  0  0  0  0  0  0  0  0  0  0  0
   19.4924   52.4018   37.3891 H   0  0  0  0  0  0  0  0  0  0  0  0
   18.1443   51.2965   37.9280 H   0  0  0  0  0  0  0  0  0  0  0  0
   17.3205   51.1419   35.6615 H   0  0  0  0  0  0  0  0  0  0  0  0
   18.6693   52.2813   35.1255 H   0  0  0  0  0  0  0  0  0  0  0  0
   19.5830   49.8665   36.4902 H   0  0  0  0  0  0  0  0  0  0  0  0
   18.6974   49.6326   34.8713 H   0  0  0  0  0  0  0  0  0  0  0  0
   20.3394   51.4652   34.1215 H   0  0  0  0  0  0  0  0  0  0  0  0
   21.7760   48.5330   35.4580 H   0  0  0  0  0  0  0  0  0  0  0  0
   18.1596   53.6038   39.4759 H   0  0  0  0  0  0  0  0  0  0  0  0
   16.6192   55.5189   39.8291 H   0  0  0  0  0  0  0  0  0  0  0  0
   13.6513   56.1598   36.2973 H   0  0  0  0  0  0  0  0  0  0  0  0
   12.0955   58.0631   36.6524 H   0  0  0  0  0  0  0  0  0  0  0  0
  1  2  1  0
  2  3  1  0
  3  4  1  0
  4  5  1  0
  5  6  2  0
  6  7  1  0
  7  8  2  0
  8  9  1  0
  9 10  2  0
 10 11  1  0
 11 12  2  0
 12 13  1  0
 13 14  1  0
 14 15  1  0
 15 16  1  0
 16 17  1  0
 17 18  2  0
 17 19  1  6
 17 20  1  0
 16 21  1  0
 21 22  2  0
 21 23  2  0
 21 24  1  0
 12 25  1  0
 25 26  2  0
  8 27  1  0
 27 28  2  0
 28  5  1  0
 26  9  1  0
  1 29  1  0
  1 30  1  0
  1 31  1  0
  2 32  1  0
  2 33  1  0
  3 34  1  0
  3 35  1  0
  4 36  1  0
  4 37  1  0
  6 38  1  0
  7 39  1  0
 10 40  1  0
 11 41  1  0
 13 42  1  0
 13 43  1  0
 14 44  1  0
 14 45  1  0
 15 46  1  0
 15 47  1  0
 16 48  1  6
 20 49  1  0
 25 50  1  0
 26 51  1  0
 27 52  1  0
 28 53  1  0
M  CHG  2  19  -1  24  -1
M  END
>  <meeko>  (1) 
{"is_sidechain": [false], "free_energy": -9.96, "intermolecular_energy": -16.074, "internal_energy": -1.379}

$$$$
2zcr_ligand
     RDKit          3D

 53 54  0  0  0  0  0  0  0  0999 V2000
    9.8530   61.4880   38.1840 C   0  0  0  0  0  0  0  0  0  0  0  0
   10.9700   61.4820   39.2150 C   0  0  0  0  0  0  0  0  0  0  0  0
   12.1440   60.5700   38.8410 C   0  0  0  0  0  0  0  0  0  0  0  0
   11.7830   59.0960   38.6210 C   0  0  0  0  0  0  0  0  0  0  0  0
   12.9760   58.2020   38.4020 C   0  0  0  0  0  0  0  0  0  0  0  0
   13.9630   58.0730   39.3860 C   0  0  0  0  0  0  0  0  0  0  0  0
   15.0720   57.2470   39.1790 C   0  0  0  0  0  0  0  0  0  0  0  0
   15.2260   56.5240   37.9860 C   0  0  0  0  0  0  0  0  0  0  0  0
   16.3930   55.6530   37.7670 C   0  0  0  0  0  0  0  0  0  0  0  0
   16.7070   54.6210   38.6660 C   0  0  0  0  0  0  0  0  0  0  0  0
   17.8270   53.8060   38.4660 C   0  0  0  0  0  0  0  0  0  0  0  0
   18.6600   53.9960   37.3590 C   0  0  0  0  0  0  0  0  0  0  0  0
   19.8830   53.1280   37.1600 C   0  0  0  0  0  0  0  0  0  0  0  0
   19.6380   51.9500   36.2120 C   0  0  0  0  0  0  0  0  0  0  0  0
   20.6970   50.8400   36.2390 C   0  0  0  0  0  0  0  0  0  0  0  0
   21.6240   50.7040   35.0110 C   0  0  2  0  0  0  0  0  0  0  0  0
   21.1080   49.4760   33.7860 P   0  0  2  0  0  5  0  0  0  0  0  0
   21.6670   49.7110   32.4060 O   0  0  0  0  0  0  0  0  0  0  0  0
   19.6010   49.3090   33.9010 O   0  0  0  0  0  0  0  0  0  0  0  0
   21.7540   48.0960   34.3500 O   0  0  0  0  0  0  0  0  0  0  0  0
   23.2890   50.2850   35.5370 S   0  0  0  0  0  0  0  0  0  0  0  0
   24.0540   50.0100   34.3240 O   0  0  0  0  0  0  0  0  0  0  0  0
   23.1420   49.1550   36.4640 O   0  0  0  0  0  0  0  0  0  0  0  0
   23.7700   51.4990   36.2110 O   0  0  0  0  0  0  0  0  0  0  0  0
   18.3550   55.0210   36.4580 C   0  0  0  0  0  0  0  0  0  0  0  0
   17.2380   55.8380   36.6620 C   0  0  0  0  0  0  0  0  0  0  0  0
   14.2290   56.6560   37.0070 C   0  0  0  0  0  0  0  0  0  0  0  0
   13.1200   57.4830   37.2100 C   0  0  0  0  0  0  0  0  0  0  0  0
    8.8802   61.4932   38.6974 H   0  0  0  0  0  0  0  0  0  0  0  0
    9.9401   62.3857   37.5543 H   0  0  0  0  0  0  0  0  0  0  0  0
    9.9304   60.5894   37.5543 H   0  0  0  0  0  0  0  0  0  0  0  0
   11.3483   62.5091   39.3241 H   0  0  0  0  0  0  0  0  0  0  0  0
   10.5436   61.0922   40.1510 H   0  0  0  0  0  0  0  0  0  0  0  0
   12.5897   60.9534   37.9113 H   0  0  0  0  0  0  0  0  0  0  0  0
   12.8313   60.5905   39.6996 H   0  0  0  0  0  0  0  0  0  0  0  0
   11.2387   58.7367   39.5068 H   0  0  0  0  0  0  0  0  0  0  0  0
   11.1759   59.0490   37.7049 H   0  0  0  0  0  0  0  0  0  0  0  0
   13.8653   58.6268   40.3314 H   0  0  0  0  0  0  0  0  0  0  0  0
   15.8370   57.1624   39.9648 H   0  0  0  0  0  0  0  0  0  0  0  0
   16.0626   54.4505   39.5411 H   0  0  0  0  0  0  0  0  0  0  0  0
   18.0545   53.0073   39.1874 H   0  0  0  0  0  0  0  0  0  0  0  0
   20.6894   53.7499   36.7440 H   0  0  0  0  0  0  0  0  0  0  0  0
   20.1497   52.7084   38.1412 H   0  0  0  0  0  0  0  0  0  0  0  0
   18.6700   51.4995   36.4766 H   0  0  0  0  0  0  0  0  0  0  0  0
   19.6726   52.3714   35.1965 H   0  0  0  0  0  0  0  0  0  0  0  0
   21.3369   51.0173   37.1160 H   0  0  0  0  0  0  0  0  0  0  0  0
   20.1193   49.9041   36.2570 H   0  0  0  0  0  0  0  0  0  0  0  0
   21.5740   51.6873   34.5204 H   0  0  0  0  0  0  0  0  0  0  0  0
   21.1080   47.7150   35.0050 H   0  0  0  0  0  0  0  0  0  0  0  0
   18.9988   55.1862   35.5815 H   0  0  0  0  0  0  0  0  0  0  0  0
   17.0179   56.6406   35.9427 H   0  0  0  0  0  0  0  0  0  0  0  0
   14.3217   56.0988   36.0631 H   0  0  0  0  0  0  0  0  0  0  0  0
   12.3537   57.5693   36.4256 H   0  0  0  0  0  0  0  0  0  0  0  0
  1  2  1  0
  2  3  1  0
  3  4  1  0
  4  5  1  0
  5  6  2  0
  6  7  1  0
  7  8  2  0
  8  9  1  0
  9 10  2  0
 10 11  1  0
 11 12  2  0
 12 13  1  0
 13 14  1  0
 14 15  1  0
 15 16  1  0
 16 17  1  0
 17 18  2  0
 17 19  1  6
 17 20  1  0
 16 21  1  0
 21 22  2  0
 21 23  2  0
 21 24  1  0
 12 25  1  0
 25 26  2  0
  8 27  1  0
 27 28  2  0
 28  5  1  0
 26  9  1  0
  1 29  1  0
  1 30  1  0
  1 31  1  0
  2 32  1  0
  2 33  1  0
  3 34  1  0
  3 35  1  0
  4 36  1  0
  4 37  1  0
  6 38  1  0
  7 39  1  0
 10 40  1  0
 11 41  1  0
 13 42  1  0
 13 43  1  0
 14 44  1  0
 14 45  1  0
 15 46  1  0
 15 47  1  0
 16 48  1  6
 20 49  1  0
 25 50  1  0
 26 51  1  0
 27 52  1  0
 28 53  1  0
M  CHG  2  19  -1  24  -1
M  END
>  <meeko>  (2) 
{"is_sidechain": [false], "free_energy": -9.853, "intermolecular_energy": -16.046, "internal_energy": -1.234}

$$$$
2zcr_ligand
     RDKit          3D

 53 54  0  0  0  0  0  0  0  0999 V2000
    9.7590   61.6610   38.1650 C   0  0  0  0  0  0  0  0  0  0  0  0
   10.1860   60.4660   37.3280 C   0  0  0  0  0  0  0  0  0  0  0  0
   10.7110   59.2910   38.1600 C   0  0  0  0  0  0  0  0  0  0  0  0
   12.0360   59.5450   38.8880 C   0  0  0  0  0  0  0  0  0  0  0  0
   13.0860   58.4950   38.6300 C   0  0  0  0  0  0  0  0  0  0  0  0
   13.0470   57.7160   37.4680 C   0  0  0  0  0  0  0  0  0  0  0  0
   14.0190   56.7400   37.2330 C   0  0  0  0  0  0  0  0  0  0  0  0
   15.0590   56.5150   38.1480 C   0  0  0  0  0  0  0  0  0  0  0  0
   16.0830   55.4860   37.9010 C   0  0  0  0  0  0  0  0  0  0  0  0
   16.1310   54.3100   38.6680 C   0  0  0  0  0  0  0  0  0  0  0  0
   17.1160   53.3420   38.4450 C   0  0  0  0  0  0  0  0  0  0  0  0
   18.0770   53.5190   37.4440 C   0  0  0  0  0  0  0  0  0  0  0  0
   19.1540   52.4810   37.2220 C   0  0  0  0  0  0  0  0  0  0  0  0
   20.5170   53.0890   36.8780 C   0  0  0  0  0  0  0  0  0  0  0  0
   21.2940   52.3930   35.7520 C   0  0  0  0  0  0  0  0  0  0  0  0
   21.6580   50.9050   35.9480 C   0  0  2  0  0  0  0  0  0  0  0  0
   23.2820   50.5970   36.6830 P   0  0  2  0  0  5  0  0  0  0  0  0
   23.3220   49.4110   37.6120 O   0  0  0  0  0  0  0  0  0  0  0  0
   23.8040   51.9170   37.2260 O   0  0  0  0  0  0  0  0  0  0  0  0
   24.2110   50.2450   35.3960 O   0  0  0  0  0  0  0  0  0  0  0  0
   21.5970   50.0420   34.3730 S   0  0  0  0  0  0  0  0  0  0  0  0
   20.2080   50.0890   33.9250 O   0  0  0  0  0  0  0  0  0  0  0  0
   22.1360   48.7020   34.6320 O   0  0  0  0  0  0  0  0  0  0  0  0
   22.4710   50.8330   33.4950 O   0  0  0  0  0  0  0  0  0  0  0  0
   18.0370   54.6860   36.6750 C   0  0  0  0  0  0  0  0  0  0  0  0
   17.0560   55.6550   36.9030 C   0  0  0  0  0  0  0  0  0  0  0  0
   15.0920   57.3030   39.3080 C   0  0  0  0  0  0  0  0  0  0  0  0
   14.1200   58.2800   39.5480 C   0  0  0  0  0  0  0  0  0  0  0  0
    9.8481   61.4115   39.2326 H   0  0  0  0  0  0  0  0  0  0  0  0
   10.4057   62.5203   37.9340 H   0  0  0  0  0  0  0  0  0  0  0  0
    8.7142   61.9159   37.9340 H   0  0  0  0  0  0  0  0  0  0  0  0
    9.3183   60.1205   36.7469 H   0  0  0  0  0  0  0  0  0  0  0  0
   11.0132   60.8013   36.6850 H   0  0  0  0  0  0  0  0  0  0  0  0
    9.9505   59.0424   38.9149 H   0  0  0  0  0  0  0  0  0  0  0  0
   10.9066   58.4764   37.4471 H   0  0  0  0  0  0  0  0  0  0  0  0
   12.4308   60.5176   38.5592 H   0  0  0  0  0  0  0  0  0  0  0  0
   11.8178   59.5201   39.9659 H   0  0  0  0  0  0  0  0  0  0  0  0
   12.2439   57.8735   36.7330 H   0  0  0  0  0  0  0  0  0  0  0  0
   13.9681   56.1372   36.3143 H   0  0  0  0  0  0  0  0  0  0  0  0
   15.3818   54.1477   39.4569 H   0  0  0  0  0  0  0  0  0  0  0  0
   17.1350   52.4323   39.0631 H   0  0  0  0  0  0  0  0  0  0  0  0
   19.2591   51.8845   38.1402 H   0  0  0  0  0  0  0  0  0  0  0  0
   18.8441   51.8672   36.3634 H   0  0  0  0  0  0  0  0  0  0  0  0
   20.3542   54.1350   36.5791 H   0  0  0  0  0  0  0  0  0  0  0  0
   21.1328   52.9726   37.7820 H   0  0  0  0  0  0  0  0  0  0  0  0
   20.6852   52.4653   34.8387 H   0  0  0  0  0  0  0  0  0  0  0  0
   22.2617   52.9149   35.7165 H   0  0  0  0  0  0  0  0  0  0  0  0
   20.9082   50.5313   36.6608 H   0  0  0  0  0  0  0  0  0  0  0  0
   25.1590   50.3010   35.6950 H   0  0  0  0  0  0  0  0  0  0  0  0
   18.7844   54.8429   35.8833 H   0  0  0  0  0  0  0  0  0  0  0  0
   17.0460   56.5675   36.2888 H   0  0  0  0  0  0  0  0  0  0  0  0
   15.8967   57.1499   40.0422 H   0  0  0  0  0  0  0  0  0  0  0  0
   14.1689   58.8842   40.4659 H   0  0  0  0  0  0  0  0  0  0  0  0
  1  2  1  0
  2  3  1  0
  3  4  1  0
  4  5  1  0
  5  6  2  0
  6  7  1  0
  7  8  2  0
  8  9  1  0
  9 10  2  0
 10 11  1  0
 11 12  2  0
 12 13  1  0
 13 14  1  0
 14 15  1  0
 15 16  1  0
 16 17  1  0
 17 18  2  0
 17 19  1  1
 17 20  1  0
 16 21  1  0
 21 22  2  0
 21 23  2  0
 21 24  1  0
 12 25  1  0
 25 26  2  0
  8 27  1  0
 27 28  2  0
 28  5  1  0
 26  9  1  0
  1 29  1  0
  1 30  1  0
  1 31  1  0
  2 32  1  0
  2 33  1  0
  3 34  1  0
  3 35  1  0
  4 36  1  0
  4 37  1  0
  6 38  1  0
  7 39  1  0
 10 40  1  0
 11 41  1  0
 13 42  1  0
 13 43  1  0
 14 44  1  0
 14 45  1  0
 15 46  1  0
 15 47  1  0
 16 48  1  1
 20 49  1  0
 25 50  1  0
 26 51  1  0
 27 52  1  0
 28 53  1  0
M  CHG  2  19  -1  24  -1
M  END
>  <meeko>  (3) 
{"is_sidechain": [false], "free_energy": -9.691, "intermolecular_energy": -15.721, "internal_energy": -1.298}

$$$$
2zcr_ligand
     RDKit          3D

 53 54  0  0  0  0  0  0  0  0999 V2000
    9.7430   61.8330   38.0600 C   0  0  0  0  0  0  0  0  0  0  0  0
   10.2860   60.5740   37.4030 C   0  0  0  0  0  0  0  0  0  0  0  0
   10.8110   59.5390   38.4030 C   0  0  0  0  0  0  0  0  0  0  0  0
   12.2510   59.7600   38.8780 C   0  0  0  0  0  0  0  0  0  0  0  0
   13.1720   58.5990   38.5970 C   0  0  0  0  0  0  0  0  0  0  0  0
   14.2460   58.3170   39.4490 C   0  0  0  0  0  0  0  0  0  0  0  0
   15.1010   57.2430   39.1830 C   0  0  0  0  0  0  0  0  0  0  0  0
   14.9070   56.4200   38.0640 C   0  0  0  0  0  0  0  0  0  0  0  0
   15.8080   55.2890   37.7830 C   0  0  0  0  0  0  0  0  0  0  0  0
   16.5700   54.6980   38.8040 C   0  0  0  0  0  0  0  0  0  0  0  0
   17.4390   53.6350   38.5330 C   0  0  0  0  0  0  0  0  0  0  0  0
   17.5650   53.1280   37.2350 C   0  0  0  0  0  0  0  0  0  0  0  0
   18.5220   51.9950   36.9420 C   0  0  0  0  0  0  0  0  0  0  0  0
   19.9100   52.4760   36.5070 C   0  0  0  0  0  0  0  0  0  0  0  0
   21.0920   51.6160   36.9760 C   0  0  0  0  0  0  0  0  0  0  0  0
   22.3310   51.5400   36.0560 C   0  0  2  0  0  0  0  0  0  0  0  0
   22.2220   50.3320   34.7130 P   0  0  2  0  0  5  0  0  0  0  0  0
   20.9370   50.4010   33.9260 O   0  0  0  0  0  0  0  0  0  0  0  0
   22.6160   48.9760   35.2740 O   0  0  0  0  0  0  0  0  0  0  0  0
   23.4310   50.7730   33.7200 O   0  0  0  0  0  0  0  0  0  0  0  0
   23.7940   51.1530   37.0220 S   0  0  0  0  0  0  0  0  0  0  0  0
   24.8440   50.8050   36.0680 O   0  0  0  0  0  0  0  0  0  0  0  0
   23.3930   50.0820   37.9430 O   0  0  0  0  0  0  0  0  0  0  0  0
   24.1030   52.4060   37.7270 O   0  0  0  0  0  0  0  0  0  0  0  0
   16.8090   53.7100   36.2120 C   0  0  0  0  0  0  0  0  0  0  0  0
   15.9450   54.7750   36.4840 C   0  0  0  0  0  0  0  0  0  0  0  0
   13.8250   56.7090   37.2180 C   0  0  0  0  0  0  0  0  0  0  0  0
   12.9680   57.7830   37.4790 C   0  0  0  0  0  0  0  0  0  0  0  0
    9.7895   61.7251   39.1537 H   0  0  0  0  0  0  0  0  0  0  0  0
   10.3480   62.6981   37.7508 H   0  0  0  0  0  0  0  0  0  0  0  0
    8.6986   61.9867   37.7508 H   0  0  0  0  0  0  0  0  0  0  0  0
    9.4787   60.1121   36.8158 H   0  0  0  0  0  0  0  0  0  0  0  0
   11.1372   60.8782   36.7762 H   0  0  0  0  0  0  0  0  0  0  0  0
   10.1553   59.5564   39.2860 H   0  0  0  0  0  0  0  0  0  0  0  0
   10.8099   58.5753   37.8726 H   0  0  0  0  0  0  0  0  0  0  0  0
   12.6506   60.6500   38.3699 H   0  0  0  0  0  0  0  0  0  0  0  0
   12.2121   59.8796   39.9708 H   0  0  0  0  0  0  0  0  0  0  0  0
   14.4189   58.9454   40.3351 H   0  0  0  0  0  0  0  0  0  0  0  0
   15.9409   57.0399   39.8637 H   0  0  0  0  0  0  0  0  0  0  0  0
   16.4824   55.0766   39.8331 H   0  0  0  0  0  0  0  0  0  0  0  0
   18.0294   53.1933   39.3493 H   0  0  0  0  0  0  0  0  0  0  0  0
   18.6320   51.3860   37.8514 H   0  0  0  0  0  0  0  0  0  0  0  0
   18.0992   51.4171   36.1069 H   0  0  0  0  0  0  0  0  0  0  0  0
   19.9283   52.5041   35.4075 H   0  0  0  0  0  0  0  0  0  0  0  0
   20.0483   53.4586   36.9818 H   0  0  0  0  0  0  0  0  0  0  0  0
   21.4257   52.0156   37.9450 H   0  0  0  0  0  0  0  0  0  0  0  0
   20.6982   50.5892   36.9995 H   0  0  0  0  0  0  0  0  0  0  0  0
   22.3873   52.5345   35.5893 H   0  0  0  0  0  0  0  0  0  0  0  0
   23.0250   51.3070   32.9840 H   0  0  0  0  0  0  0  0  0  0  0  0
   16.8950   53.3264   35.1846 H   0  0  0  0  0  0  0  0  0  0  0  0
   15.3612   55.2188   35.6641 H   0  0  0  0  0  0  0  0  0  0  0  0
   13.6478   56.0793   36.3336 H   0  0  0  0  0  0  0  0  0  0  0  0
   12.1271   57.9877   36.8000 H   0  0  0  0  0  0  0  0  0  0  0  0
  1  2  1  0
  2  3  1  0
  3  4  1  0
  4  5  1  0
  5  6  2  0
  6  7  1  0
  7  8  2  0
  8  9  1  0
  9 10  2  0
 10 11  1  0
 11 12  2  0
 12 13  1  0
 13 14  1  0
 14 15  1  0
 15 16  1  0
 16 17  1  0
 17 18  2  0
 17 19  1  1
 17 20  1  0
 16 21  1  0
 21 22  2  0
 21 23  2  0
 21 24  1  0
 12 25  1  0
 25 26  2  0
  8 27  1  0
 27 28  2  0
 28  5  1  0
 26  9  1  0
  1 29  1  0
  1 30  1  0
  1 31  1  0
  2 32  1  0
  2 33  1  0
  3 34  1  0
  3 35  1  0
  4 36  1  0
  4 37  1  0
  6 38  1  0
  7 39  1  0
 10 40  1  0
 11 41  1  0
 13 42  1  0
 13 43  1  0
 14 44  1  0
 14 45  1  0
 15 46  1  0
 15 47  1  0
 16 48  1  6
 20 49  1  0
 25 50  1  0
 26 51  1  0
 27 52  1  0
 28 53  1  0
M  CHG  2  19  -1  24  -1
M  END
>  <meeko>  (4) 
{"is_sidechain": [false], "free_energy": -9.552, "intermolecular_energy": -15.887, "internal_energy": -0.908}

$$$$
2zcr_ligand
     RDKit          3D

 53 54  0  0  0  0  0  0  0  0999 V2000
   10.0140   61.4220   38.2980 C   0  0  0  0  0  0  0  0  0  0  0  0
   10.1490   60.1700   37.4460 C   0  0  0  0  0  0  0  0  0  0  0  0
   10.8330   59.0070   38.1700 C   0  0  0  0  0  0  0  0  0  0  0  0
   12.1750   59.3450   38.8310 C   0  0  0  0  0  0  0  0  0  0  0  0
   13.2480   58.3130   38.5970 C   0  0  0  0  0  0  0  0  0  0  0  0
   14.3050   58.1630   39.5030 C   0  0  0  0  0  0  0  0  0  0  0  0
   15.3010   57.2080   39.2810 C   0  0  0  0  0  0  0  0  0  0  0  0
   15.2710   56.3750   38.1530 C   0  0  0  0  0  0  0  0  0  0  0  0
   16.3210   55.3690   37.9190 C   0  0  0  0  0  0  0  0  0  0  0  0
   16.2830   54.1190   38.5570 C   0  0  0  0  0  0  0  0  0  0  0  0
   17.2910   53.1700   38.3480 C   0  0  0  0  0  0  0  0  0  0  0  0
   18.3610   53.4430   37.4890 C   0  0  0  0  0  0  0  0  0  0  0  0
   19.4600   52.4240   37.2850 C   0  0  0  0  0  0  0  0  0  0  0  0
   20.8460   53.0560   37.1250 C   0  0  0  0  0  0  0  0  0  0  0  0
   21.8930   52.1960   36.4050 C   0  0  0  0  0  0  0  0  0  0  0  0
   22.7260   51.2170   37.2620 C   0  0  2  0  0  0  0  0  0  0  0  0
   24.3120   51.8610   37.8480 P   0  0  2  0  0  5  0  0  0  0  0  0
   25.1410   50.8560   38.6080 O   0  0  0  0  0  0  0  0  0  0  0  0
   24.0510   53.1950   38.5270 O   0  0  0  0  0  0  0  0  0  0  0  0
   25.1030   52.2080   36.4710 O   0  0  0  0  0  0  0  0  0  0  0  0
   23.0540   49.7130   36.3360 S   0  0  0  0  0  0  0  0  0  0  0  0
   23.1590   48.6350   37.3160 O   0  0  0  0  0  0  0  0  0  0  0  0
   24.2690   49.9810   35.5570 O   0  0  0  0  0  0  0  0  0  0  0  0
   21.8700   49.5500   35.4820 O   0  0  0  0  0  0  0  0  0  0  0  0
   18.4060   54.6850   36.8480 C   0  0  0  0  0  0  0  0  0  0  0  0
   17.4010   55.6330   37.0620 C   0  0  0  0  0  0  0  0  0  0  0  0
   14.2060   56.5300   37.2520 C   0  0  0  0  0  0  0  0  0  0  0  0
   13.2070   57.4850   37.4700 C   0  0  0  0  0  0  0  0  0  0  0  0
   10.0437   61.1461   39.3624 H   0  0  0  0  0  0  0  0  0  0  0  0
   10.8433   62.1091   38.0740 H   0  0  0  0  0  0  0  0  0  0  0  0
    9.0573   61.9166   38.0740 H   0  0  0  0  0  0  0  0  0  0  0  0
    9.1428   59.8465   37.1413 H   0  0  0  0  0  0  0  0  0  0  0  0
   10.7825   60.4319   36.5857 H   0  0  0  0  0  0  0  0  0  0  0  0
   10.1501   58.6453   38.9528 H   0  0  0  0  0  0  0  0  0  0  0  0
   11.0550   58.2561   37.3974 H   0  0  0  0  0  0  0  0  0  0  0  0
   12.5263   60.3070   38.4295 H   0  0  0  0  0  0  0  0  0  0  0  0
   11.9967   59.3799   39.9159 H   0  0  0  0  0  0  0  0  0  0  0  0
   14.3519   58.8022   40.3970 H   0  0  0  0  0  0  0  0  0  0  0  0
   16.1237   57.1078   40.0043 H   0  0  0  0  0  0  0  0  0  0  0  0
   15.4477   53.8813   39.2321 H   0  0  0  0  0  0  0  0  0  0  0  0
   17.2411   52.2000   38.8644 H   0  0  0  0  0  0  0  0  0  0  0  0
   19.4803   51.7525   38.1560 H   0  0  0  0  0  0  0  0  0  0  0  0
   19.2369   51.8845   36.3527 H   0  0  0  0  0  0  0  0  0  0  0  0
   20.7274   53.9900   36.5561 H   0  0  0  0  0  0  0  0  0  0  0  0
   21.2285   53.1996   38.1463 H   0  0  0  0  0  0  0  0  0  0  0  0
   21.3644   51.6010   35.6457 H   0  0  0  0  0  0  0  0  0  0  0  0
   22.6254   52.9171   36.0132 H   0  0  0  0  0  0  0  0  0  0  0  0
   22.1058   51.0352   38.1521 H   0  0  0  0  0  0  0  0  0  0  0  0
   25.9750   52.6160   36.7280 H   0  0  0  0  0  0  0  0  0  0  0  0
   19.2397   54.9182   36.1693 H   0  0  0  0  0  0  0  0  0  0  0  0
   17.4576   56.6044   36.5490 H   0  0  0  0  0  0  0  0  0  0  0  0
   14.1559   55.8896   36.3591 H   0  0  0  0  0  0  0  0  0  0  0  0
   12.3823   57.5857   36.7491 H   0  0  0  0  0  0  0  0  0  0  0  0
  1  2  1  0
  2  3  1  0
  3  4  1  0
  4  5  1  0
  5  6  2  0
  6  7  1  0
  7  8  2  0
  8  9  1  0
  9 10  2  0
 10 11  1  0
 11 12  2  0
 12 13  1  0
 13 14  1  0
 14 15  1  0
 15 16  1  0
 16 17  1  0
 17 18  2  0
 17 19  1  1
 17 20  1  0
 16 21  1  0
 21 22  2  0
 21 23  2  0
 21 24  1  0
 12 25  1  0
 25 26  2  0
  8 27  1  0
 27 28  2  0
 28  5  1  0
 26  9  1  0
  1 29  1  0
  1 30  1  0
  1 31  1  0
  2 32  1  0
  2 33  1  0
  3 34  1  0
  3 35  1  0
  4 36  1  0
  4 37  1  0
  6 38  1  0
  7 39  1  0
 10 40  1  0
 11 41  1  0
 13 42  1  0
 13 43  1  0
 14 44  1  0
 14 45  1  0
 15 46  1  0
 15 47  1  0
 16 48  1  1
 20 49  1  0
 25 50  1  0
 26 51  1  0
 27 52  1  0
 28 53  1  0
M  CHG  2  19  -1  24  -1
M  END
>  <meeko>  (5) 
{"is_sidechain": [false], "free_energy": -9.484, "intermolecular_energy": -15.707, "internal_energy": -0.979}

$$$$
2zcr_ligand
     RDKit          3D

 53 54  0  0  0  0  0  0  0  0999 V2000
    9.4960   61.5860   38.3490 C   0  0  0  0  0  0  0  0  0  0  0  0
   10.2420   60.6630   37.3970 C   0  0  0  0  0  0  0  0  0  0  0  0
   10.8190   59.4180   38.0780 C   0  0  0  0  0  0  0  0  0  0  0  0
   12.1740   59.6180   38.7670 C   0  0  0  0  0  0  0  0  0  0  0  0
   13.1700   58.5230   38.4850 C   0  0  0  0  0  0  0  0  0  0  0  0
   13.0850   57.7630   37.3130 C   0  0  0  0  0  0  0  0  0  0  0  0
   14.0080   56.7440   37.0560 C   0  0  0  0  0  0  0  0  0  0  0  0
   15.0420   56.4570   37.9600 C   0  0  0  0  0  0  0  0  0  0  0  0
   16.0140   55.3840   37.6900 C   0  0  0  0  0  0  0  0  0  0  0  0
   16.8490   55.4280   36.5620 C   0  0  0  0  0  0  0  0  0  0  0  0
   17.7600   54.3990   36.2970 C   0  0  0  0  0  0  0  0  0  0  0  0
   17.8660   53.3000   37.1560 C   0  0  0  0  0  0  0  0  0  0  0  0
   18.8340   52.1790   36.8530 C   0  0  0  0  0  0  0  0  0  0  0  0
   20.3020   52.6040   36.9640 C   0  0  0  0  0  0  0  0  0  0  0  0
   21.3210   51.4620   37.0700 C   0  0  0  0  0  0  0  0  0  0  0  0
   22.4770   51.4370   36.0450 C   0  0  2  0  0  0  0  0  0  0  0  0
   22.2490   50.3070   34.6510 P   0  0  2  0  0  5  0  0  0  0  0  0
   20.9010   50.4150   33.9860 O   0  0  0  0  0  0  0  0  0  0  0  0
   22.6890   48.9230   35.0980 O   0  0  0  0  0  0  0  0  0  0  0  0
   23.3660   50.8070   33.5820 O   0  0  0  0  0  0  0  0  0  0  0  0
   24.0160   50.9970   36.8610 S   0  0  0  0  0  0  0  0  0  0  0  0
   23.6830   49.9860   37.8610 O   0  0  0  0  0  0  0  0  0  0  0  0
   24.5620   52.2530   37.3860 O   0  0  0  0  0  0  0  0  0  0  0  0
   24.8460   50.4350   35.7860 O   0  0  0  0  0  0  0  0  0  0  0  0
   17.0390   53.2480   38.2820 C   0  0  0  0  0  0  0  0  0  0  0  0
   16.1260   54.2750   38.5430 C   0  0  0  0  0  0  0  0  0  0  0  0
   15.1220   57.2260   39.1300 C   0  0  0  0  0  0  0  0  0  0  0  0
   14.2000   58.2460   39.3920 C   0  0  0  0  0  0  0  0  0  0  0  0
    9.7241   61.3037   39.3874 H   0  0  0  0  0  0  0  0  0  0  0  0
    9.8108   62.6254   38.1739 H   0  0  0  0  0  0  0  0  0  0  0  0
    8.4137   61.4962   38.1739 H   0  0  0  0  0  0  0  0  0  0  0  0
    9.5454   60.3379   36.6102 H   0  0  0  0  0  0  0  0  0  0  0  0
   11.0915   61.2334   36.9933 H   0  0  0  0  0  0  0  0  0  0  0  0
   10.0980   59.0807   38.8372 H   0  0  0  0  0  0  0  0  0  0  0  0
   10.9901   58.6841   37.2767 H   0  0  0  0  0  0  0  0  0  0  0  0
   12.6006   60.5714   38.4220 H   0  0  0  0  0  0  0  0  0  0  0  0
   11.9858   59.6070   39.8507 H   0  0  0  0  0  0  0  0  0  0  0  0
   12.2847   57.9690   36.5870 H   0  0  0  0  0  0  0  0  0  0  0  0
   13.9218   56.1576   36.1293 H   0  0  0  0  0  0  0  0  0  0  0  0
   16.7862   56.2851   35.8754 H   0  0  0  0  0  0  0  0  0  0  0  0
   18.3995   54.4551   35.4037 H   0  0  0  0  0  0  0  0  0  0  0  0
   18.6527   51.3587   37.5631 H   0  0  0  0  0  0  0  0  0  0  0  0
   18.6607   51.8693   35.8118 H   0  0  0  0  0  0  0  0  0  0  0  0
   20.5504   53.1963   36.0710 H   0  0  0  0  0  0  0  0  0  0  0  0
   20.3807   53.1635   37.9078 H   0  0  0  0  0  0  0  0  0  0  0  0
   21.7711   51.5146   38.0723 H   0  0  0  0  0  0  0  0  0  0  0  0
   20.7419   50.5507   36.8600 H   0  0  0  0  0  0  0  0  0  0  0  0
   22.4980   52.4558   35.6309 H   0  0  0  0  0  0  0  0  0  0  0  0
   24.2450   50.8000   34.0510 H   0  0  0  0  0  0  0  0  0  0  0  0
   17.1069   52.3916   38.9690 H   0  0  0  0  0  0  0  0  0  0  0  0
   15.4836   54.2123   39.4337 H   0  0  0  0  0  0  0  0  0  0  0  0
   15.9241   57.0239   39.8551 H   0  0  0  0  0  0  0  0  0  0  0  0
   14.2853   58.8344   40.3175 H   0  0  0  0  0  0  0  0  0  0  0  0
  1  2  1  0
  2  3  1  0
  3  4  1  0
  4  5  1  0
  5  6  2  0
  6  7  1  0
  7  8  2  0
  8  9  1  0
  9 10  2  0
 10 11  1  0
 11 12  2  0
 12 13  1  0
 13 14  1  0
 14 15  1  0
 15 16  1  0
 16 17  1  0
 17 18  2  0
 17 19  1  1
 17 20  1  0
 16 21  1  0
 21 22  2  0
 21 23  2  0
 21 24  1  0
 12 25  1  0
 25 26  2  0
  8 27  1  0
 27 28  2  0
 28  5  1  0
 26  9  1  0
  1 29  1  0
  1 30  1  0
  1 31  1  0
  2 32  1  0
  2 33  1  0
  3 34  1  0
  3 35  1  0
  4 36  1  0
  4 37  1  0
  6 38  1  0
  7 39  1  0
 10 40  1  0
 11 41  1  0
 13 42  1  0
 13 43  1  0
 14 44  1  0
 14 45  1  0
 15 46  1  0
 15 47  1  0
 16 48  1  6
 20 49  1  0
 25 50  1  0
 26 51  1  0
 27 52  1  0
 28 53  1  0
M  CHG  2  19  -1  24  -1
M  END
>  <meeko>  (6) 
{"is_sidechain": [false], "free_energy": -9.416, "intermolecular_energy": -15.895, "internal_energy": -0.68}

$$$$
2zcr_ligand
     RDKit          3D

 53 54  0  0  0  0  0  0  0  0999 V2000
   10.9590   60.0160   36.8800 C   0  0  0  0  0  0  0  0  0  0  0  0
   11.9160   59.5980   37.9850 C   0  0  0  0  0  0  0  0  0  0  0  0
   12.7840   58.3900   37.6190 C   0  0  0  0  0  0  0  0  0  0  0  0
   13.7140   57.8910   38.7310 C   0  0  0  0  0  0  0  0  0  0  0  0
   14.6890   56.8330   38.2820 C   0  0  0  0  0  0  0  0  0  0  0  0
   14.8260   56.5150   36.9260 C   0  0  0  0  0  0  0  0  0  0  0  0
   15.7280   55.5300   36.5130 C   0  0  0  0  0  0  0  0  0  0  0  0
   16.5210   54.8370   37.4410 C   0  0  0  0  0  0  0  0  0  0  0  0
   17.4710   53.7990   37.0060 C   0  0  0  0  0  0  0  0  0  0  0  0
   17.0230   52.5400   36.5730 C   0  0  0  0  0  0  0  0  0  0  0  0
   17.9280   51.5490   36.1780 C   0  0  0  0  0  0  0  0  0  0  0  0
   19.3060   51.7900   36.1990 C   0  0  0  0  0  0  0  0  0  0  0  0
   20.2800   50.7070   35.7940 C   0  0  0  0  0  0  0  0  0  0  0  0
   21.7400   51.0710   36.0820 C   0  0  0  0  0  0  0  0  0  0  0  0
   22.7080   50.9380   34.8980 C   0  0  0  0  0  0  0  0  0  0  0  0
   22.9430   49.5240   34.3220 C   0  0  2  0  0  0  0  0  0  0  0  0
   24.6530   48.9360   34.3910 P   0  0  2  0  0  5  0  0  0  0  0  0
   24.7840   47.4470   34.5910 O   0  0  0  0  0  0  0  0  0  0  0  0
   25.4130   49.8310   35.3560 O   0  0  0  0  0  0  0  0  0  0  0  0
   25.2260   49.2870   32.9120 O   0  0  0  0  0  0  0  0  0  0  0  0
   22.4110   49.4600   32.6070 S   0  0  0  0  0  0  0  0  0  0  0  0
   20.9600   49.6190   32.6140 O   0  0  0  0  0  0  0  0  0  0  0  0
   22.9060   48.1810   32.0840 O   0  0  0  0  0  0  0  0  0  0  0  0
   23.0750   50.6120   31.9810 O   0  0  0  0  0  0  0  0  0  0  0  0
   19.7610   53.0400   36.6280 C   0  0  0  0  0  0  0  0  0  0  0  0
   18.8560   54.0280   37.0270 C   0  0  0  0  0  0  0  0  0  0  0  0
   16.3790   55.1650   38.7980 C   0  0  0  0  0  0  0  0  0  0  0  0
   15.4770   56.1490   39.2150 C   0  0  0  0  0  0  0  0  0  0  0  0
   10.0375   60.4185   37.3259 H   0  0  0  0  0  0  0  0  0  0  0  0
   11.4331   60.7890   36.2573 H   0  0  0  0  0  0  0  0  0  0  0  0
   10.7141   59.1429   36.2573 H   0  0  0  0  0  0  0  0  0  0  0  0
   12.5784   60.4466   38.2111 H   0  0  0  0  0  0  0  0  0  0  0  0
   11.3025   59.3047   38.8497 H   0  0  0  0  0  0  0  0  0  0  0  0
   12.1149   57.5631   37.3389 H   0  0  0  0  0  0  0  0  0  0  0  0
   13.4394   58.7229   36.8007 H   0  0  0  0  0  0  0  0  0  0  0  0
   14.2859   58.7485   39.1152 H   0  0  0  0  0  0  0  0  0  0  0  0
   13.0752   57.4314   39.4995 H   0  0  0  0  0  0  0  0  0  0  0  0
   14.2182   57.0451   36.1780 H   0  0  0  0  0  0  0  0  0  0  0  0
   15.8178   55.2940   35.4424 H   0  0  0  0  0  0  0  0  0  0  0  0
   15.9436   52.3300   36.5441 H   0  0  0  0  0  0  0  0  0  0  0  0
   17.5520   50.5696   35.8473 H   0  0  0  0  0  0  0  0  0  0  0  0
   20.0326   49.7892   36.3476 H   0  0  0  0  0  0  0  0  0  0  0  0
   20.1850   50.5714   34.7065 H   0  0  0  0  0  0  0  0  0  0  0  0
   21.7661   52.1163   36.4234 H   0  0  0  0  0  0  0  0  0  0  0  0
   22.0859   50.3460   36.8334 H   0  0  0  0  0  0  0  0  0  0  0  0
   22.3186   51.5651   34.0824 H   0  0  0  0  0  0  0  0  0  0  0  0
   23.6855   51.2417   35.3008 H   0  0  0  0  0  0  0  0  0  0  0  0
   22.3503   48.8621   34.9705 H   0  0  0  0  0  0  0  0  0  0  0  0
   24.9600   48.5390   32.3100 H   0  0  0  0  0  0  0  0  0  0  0  0
   20.8408   53.2482   36.6519 H   0  0  0  0  0  0  0  0  0  0  0  0
   19.2364   55.0036   37.3639 H   0  0  0  0  0  0  0  0  0  0  0  0
   16.9883   54.6385   39.5474 H   0  0  0  0  0  0  0  0  0  0  0  0
   15.3860   56.3874   40.2850 H   0  0  0  0  0  0  0  0  0  0  0  0
  1  2  1  0
  2  3  1  0
  3  4  1  0
  4  5  1  0
  5  6  2  0
  6  7  1  0
  7  8  2  0
  8  9  1  0
  9 10  2  0
 10 11  1  0
 11 12  2  0
 12 13  1  0
 13 14  1  0
 14 15  1  0
 15 16  1  0
 16 17  1  0
 17 18  2  0
 17 19  1  1
 17 20  1  0
 16 21  1  0
 21 22  2  0
 21 23  2  0
 21 24  1  0
 12 25  1  0
 25 26  2  0
  8 27  1  0
 27 28  2  0
 28  5  1  0
 26  9  1  0
  1 29  1  0
  1 30  1  0
  1 31  1  0
  2 32  1  0
  2 33  1  0
  3 34  1  0
  3 35  1  0
  4 36  1  0
  4 37  1  0
  6 38  1  0
  7 39  1  0
 10 40  1  0
 11 41  1  0
 13 42  1  0
 13 43  1  0
 14 44  1  0
 14 45  1  0
 15 46  1  0
 15 47  1  0
 16 48  1  1
 20 49  1  0
 25 50  1  0
 26 51  1  0
 27 52  1  0
 28 53  1  0
M  CHG  2  19  -1  24  -1
M  END
>  <meeko>  (7) 
{"is_sidechain": [false], "free_energy": -8.858, "intermolecular_energy": -14.333, "internal_energy": -1.342}

$$$$
2zcr_ligand
     RDKit          3D

 53 54  0  0  0  0  0  0  0  0999 V2000
   10.2030   60.6740   37.2790 C   0  0  0  0  0  0  0  0  0  0  0  0
   10.5880   59.5450   38.2220 C   0  0  0  0  0  0  0  0  0  0  0  0
   11.8170   58.7540   37.7610 C   0  0  0  0  0  0  0  0  0  0  0  0
   12.8540   58.4630   38.8510 C   0  0  0  0  0  0  0  0  0  0  0  0
   13.8900   57.4440   38.4520 C   0  0  0  0  0  0  0  0  0  0  0  0
   13.9940   57.0120   37.1240 C   0  0  0  0  0  0  0  0  0  0  0  0
   14.9530   56.0630   36.7580 C   0  0  0  0  0  0  0  0  0  0  0  0
   15.8360   55.5200   37.7030 C   0  0  0  0  0  0  0  0  0  0  0  0
   16.8460   54.5200   37.3170 C   0  0  0  0  0  0  0  0  0  0  0  0
   16.4830   53.1930   37.0360 C   0  0  0  0  0  0  0  0  0  0  0  0
   17.4460   52.2390   36.6870 C   0  0  0  0  0  0  0  0  0  0  0  0
   18.7980   52.5870   36.6040 C   0  0  0  0  0  0  0  0  0  0  0  0
   19.8380   51.5480   36.2500 C   0  0  0  0  0  0  0  0  0  0  0  0
   21.1710   51.7570   36.9740 C   0  0  0  0  0  0  0  0  0  0  0  0
   22.1460   50.5720   36.9350 C   0  0  0  0  0  0  0  0  0  0  0  0
   23.4780   50.7670   36.1770 C   0  0  2  0  0  0  0  0  0  0  0  0
   24.0280   49.3440   35.2040 P   0  0  2  0  0  5  0  0  0  0  0  0
   24.8570   49.7070   33.9980 O   0  0  0  0  0  0  0  0  0  0  0  0
   22.8230   48.4480   34.9680 O   0  0  0  0  0  0  0  0  0  0  0  0
   24.9890   48.5380   36.2370 O   0  0  0  0  0  0  0  0  0  0  0  0
   24.7900   51.1800   37.3320 S   0  0  0  0  0  0  0  0  0  0  0  0
   26.0480   51.0330   36.6040 O   0  0  0  0  0  0  0  0  0  0  0  0
   24.6110   50.2800   38.4770 O   0  0  0  0  0  0  0  0  0  0  0  0
   24.5340   52.5840   37.6810 O   0  0  0  0  0  0  0  0  0  0  0  0
   19.1690   53.9060   36.8810 C   0  0  0  0  0  0  0  0  0  0  0  0
   18.2060   54.8570   37.2350 C   0  0  0  0  0  0  0  0  0  0  0  0
   15.7270   55.9620   39.0300 C   0  0  0  0  0  0  0  0  0  0  0  0
   14.7690   56.9100   39.4020 C   0  0  0  0  0  0  0  0  0  0  0  0
    9.9026   61.5550   37.8652 H   0  0  0  0  0  0  0  0  0  0  0  0
   11.0640   60.9318   36.6448 H   0  0  0  0  0  0  0  0  0  0  0  0
    9.3639   60.3520   36.6448 H   0  0  0  0  0  0  0  0  0  0  0  0
   10.8024   59.9757   39.2112 H   0  0  0  0  0  0  0  0  0  0  0  0
    9.7422   58.8422   38.2467 H   0  0  0  0  0  0  0  0  0  0  0  0
   11.4699   57.7918   37.3563 H   0  0  0  0  0  0  0  0  0  0  0  0
   12.3252   59.3864   37.0182 H   0  0  0  0  0  0  0  0  0  0  0  0
   13.3697   59.4027   39.0981 H   0  0  0  0  0  0  0  0  0  0  0  0
   12.3070   58.0433   39.7081 H   0  0  0  0  0  0  0  0  0  0  0  0
   13.3152   57.4230   36.3622 H   0  0  0  0  0  0  0  0  0  0  0  0
   15.0163   55.7361   35.7096 H   0  0  0  0  0  0  0  0  0  0  0  0
   15.4246   52.8984   37.0910 H   0  0  0  0  0  0  0  0  0  0  0  0
   17.1362   51.2049   36.4758 H   0  0  0  0  0  0  0  0  0  0  0  0
   19.4463   50.5558   36.5184 H   0  0  0  0  0  0  0  0  0  0  0  0
   20.0346   51.6369   35.1714 H   0  0  0  0  0  0  0  0  0  0  0  0
   21.6724   52.6217   36.5148 H   0  0  0  0  0  0  0  0  0  0  0  0
   20.9157   51.8987   38.0345 H   0  0  0  0  0  0  0  0  0  0  0  0
   22.3939   50.3153   37.9755 H   0  0  0  0  0  0  0  0  0  0  0  0
   21.6148   49.7914   36.3706 H   0  0  0  0  0  0  0  0  0  0  0  0
   23.2726   51.5811   35.4663 H   0  0  0  0  0  0  0  0  0  0  0  0
   25.8560   48.3850   35.7710 H   0  0  0  0  0  0  0  0  0  0  0  0
   20.2276   54.1987   36.8201 H   0  0  0  0  0  0  0  0  0  0  0  0
   18.5206   55.8882   37.4532 H   0  0  0  0  0  0  0  0  0  0  0  0
   16.4080   55.5551   39.7921 H   0  0  0  0  0  0  0  0  0  0  0  0
   14.7054   57.2390   40.4497 H   0  0  0  0  0  0  0  0  0  0  0  0
  1  2  1  0
  2  3  1  0
  3  4  1  0
  4  5  1  0
  5  6  2  0
  6  7  1  0
  7  8  2  0
  8  9  1  0
  9 10  2  0
 10 11  1  0
 11 12  2  0
 12 13  1  0
 13 14  1  0
 14 15  1  0
 15 16  1  0
 16 17  1  0
 17 18  2  0
 17 19  1  6
 17 20  1  0
 16 21  1  0
 21 22  2  0
 21 23  2  0
 21 24  1  0
 12 25  1  0
 25 26  2  0
  8 27  1  0
 27 28  2  0
 28  5  1  0
 26  9  1  0
  1 29  1  0
  1 30  1  0
  1 31  1  0
  2 32  1  0
  2 33  1  0
  3 34  1  0
  3 35  1  0
  4 36  1  0
  4 37  1  0
  6 38  1  0
  7 39  1  0
 10 40  1  0
 11 41  1  0
 13 42  1  0
 13 43  1  0
 14 44  1  0
 14 45  1  0
 15 46  1  0
 15 47  1  0
 16 48  1  6
 20 49  1  0
 25 50  1  0
 26 51  1  0
 27 52  1  0
 28 53  1  0
M  CHG  2  19  -1  24  -1
M  END
>  <meeko>  (8) 
{"is_sidechain": [false], "free_energy": -8.83, "intermolecular_energy": -14.341, "internal_energy": -1.289}

$$$$
2zcr_ligand
     RDKit          3D

 53 54  0  0  0  0  0  0  0  0999 V2000
   11.6870   60.5650   38.8130 C   0  0  0  0  0  0  0  0  0  0  0  0
   13.1770   60.2670   38.7440 C   0  0  0  0  0  0  0  0  0  0  0  0
   13.5300   58.8220   39.1090 C   0  0  0  0  0  0  0  0  0  0  0  0
   13.1910   57.7750   38.0410 C   0  0  0  0  0  0  0  0  0  0  0  0
   14.3010   56.7900   37.7790 C   0  0  0  0  0  0  0  0  0  0  0  0
   14.4840   56.2420   36.5040 C   0  0  0  0  0  0  0  0  0  0  0  0
   15.5110   55.3240   36.2640 C   0  0  0  0  0  0  0  0  0  0  0  0
   16.3850   54.9290   37.2880 C   0  0  0  0  0  0  0  0  0  0  0  0
   17.4670   53.9610   37.0360 C   0  0  0  0  0  0  0  0  0  0  0  0
   17.1850   52.6440   36.6400 C   0  0  0  0  0  0  0  0  0  0  0  0
   18.2130   51.7210   36.4190 C   0  0  0  0  0  0  0  0  0  0  0  0
   19.5530   52.0910   36.5810 C   0  0  0  0  0  0  0  0  0  0  0  0
   20.6590   51.0840   36.3640 C   0  0  0  0  0  0  0  0  0  0  0  0
   21.4590   51.3330   35.0820 C   0  0  0  0  0  0  0  0  0  0  0  0
   22.7010   50.4530   34.8880 C   0  0  0  0  0  0  0  0  0  0  0  0
   22.8430   49.7030   33.5450 C   0  0  2  0  0  0  0  0  0  0  0  0
   22.2910   47.9800   33.5600 P   0  0  2  0  0  5  0  0  0  0  0  0
   22.9460   47.1340   34.6220 O   0  0  0  0  0  0  0  0  0  0  0  0
   22.3480   47.4610   32.1320 O   0  0  0  0  0  0  0  0  0  0  0  0
   20.7130   48.0990   33.9290 O   0  0  0  0  0  0  0  0  0  0  0  0
   24.5570   49.7240   33.0050 S   0  0  0  0  0  0  0  0  0  0  0  0
   24.7260   50.9320   32.2020 O   0  0  0  0  0  0  0  0  0  0  0  0
   24.7670   48.4560   32.2960 O   0  0  0  0  0  0  0  0  0  0  0  0
   25.3270   49.7970   34.2540 O   0  0  0  0  0  0  0  0  0  0  0  0
   19.8430   53.4010   36.9750 C   0  0  0  0  0  0  0  0  0  0  0  0
   18.8140   54.3210   37.2000 C   0  0  0  0  0  0  0  0  0  0  0  0
   16.1970   55.4860   38.5620 C   0  0  0  0  0  0  0  0  0  0  0  0
   15.1690   56.4040   38.8060 C   0  0  0  0  0  0  0  0  0  0  0  0
   11.3740   60.6276   39.8657 H   0  0  0  0  0  0  0  0  0  0  0  0
   11.4809   61.5222   38.3116 H   0  0  0  0  0  0  0  0  0  0  0  0
   11.1286   59.7607   38.3116 H   0  0  0  0  0  0  0  0  0  0  0  0
   13.5235   60.4613   37.7183 H   0  0  0  0  0  0  0  0  0  0  0  0
   13.6707   60.9163   39.4820 H   0  0  0  0  0  0  0  0  0  0  0  0
   14.6122   58.7744   39.3002 H   0  0  0  0  0  0  0  0  0  0  0  0
   12.9161   58.5712   39.9866 H   0  0  0  0  0  0  0  0  0  0  0  0
   12.3032   57.2165   38.3727 H   0  0  0  0  0  0  0  0  0  0  0  0
   13.0193   58.3207   37.1014 H   0  0  0  0  0  0  0  0  0  0  0  0
   13.8135   56.5363   35.6831 H   0  0  0  0  0  0  0  0  0  0  0  0
   15.6359   54.9042   35.2549 H   0  0  0  0  0  0  0  0  0  0  0  0
   16.1391   52.3328   36.5012 H   0  0  0  0  0  0  0  0  0  0  0  0
   17.9653   50.6934   36.1146 H   0  0  0  0  0  0  0  0  0  0  0  0
   21.3476   51.1311   37.2205 H   0  0  0  0  0  0  0  0  0  0  0  0
   20.1865   50.0954   36.2675 H   0  0  0  0  0  0  0  0  0  0  0  0
   20.7880   51.1628   34.2271 H   0  0  0  0  0  0  0  0  0  0  0  0
   21.8330   52.3646   35.1590 H   0  0  0  0  0  0  0  0  0  0  0  0
   23.5835   51.1003   34.9985 H   0  0  0  0  0  0  0  0  0  0  0  0
   22.6014   49.6588   35.6425 H   0  0  0  0  0  0  0  0  0  0  0  0
   22.1789   50.2459   32.8564 H   0  0  0  0  0  0  0  0  0  0  0  0
   20.6280   48.8080   34.6240 H   0  0  0  0  0  0  0  0  0  0  0  0
   20.8900   53.7107   37.1092 H   0  0  0  0  0  0  0  0  0  0  0  0
   19.0647   55.3458   37.5113 H   0  0  0  0  0  0  0  0  0  0  0  0
   16.8691   55.1962   39.3832 H   0  0  0  0  0  0  0  0  0  0  0  0
   15.0425   56.8256   39.8141 H   0  0  0  0  0  0  0  0  0  0  0  0
  1  2  1  0
  2  3  1  0
  3  4  1  0
  4  5  1  0
  5  6  2  0
  6  7  1  0
  7  8  2  0
  8  9  1  0
  9 10  2  0
 10 11  1  0
 11 12  2  0
 12 13  1  0
 13 14  1  0
 14 15  1  0
 15 16  1  0
 16 17  1  0
 17 18  2  0
 17 19  1  6
 17 20  1  0
 16 21  1  0
 21 22  2  0
 21 23  2  0
 21 24  1  0
 12 25  1  0
 25 26  2  0
  8 27  1  0
 27 28  2  0
 28  5  1  0
 26  9  1  0
  1 29  1  0
  1 30  1  0
  1 31  1  0
  2 32  1  0
  2 33  1  0
  3 34  1  0
  3 35  1  0
  4 36  1  0
  4 37  1  0
  6 38  1  0
  7 39  1  0
 10 40  1  0
 11 41  1  0
 13 42  1  0
 13 43  1  0
 14 44  1  0
 14 45  1  0
 15 46  1  0
 15 47  1  0
 16 48  1  6
 20 49  1  0
 25 50  1  0
 26 51  1  0
 27 52  1  0
 28 53  1  0
M  CHG  2  19  -1  24  -1
M  END
>  <meeko>  (9) 
{"is_sidechain": [false], "free_energy": -8.548, "intermolecular_energy": -14.706, "internal_energy": -0.469}

$$$$
