4gfm_ligand
     RDKit          3D

 26 27  0  0  0  0  0  0  0  0999 V2000
   32.0350  -12.5720    5.6140 O   0  0  0  0  0  0  0  0  0  0  0  0
   31.7610  -12.4430    4.4290 C   0  0  0  0  0  0  0  0  0  0  0  0
   31.1320  -13.3510    3.5960 N   0  0  0  0  0  0  0  0  0  0  0  0
   30.6710  -14.6130    3.9190 C   0  0  0  0  0  0  0  0  0  0  0  0
   31.6040  -15.7060    3.6900 C   0  0  0  0  0  0  0  0  0  0  0  0
   31.2550  -16.9680    3.9690 C   0  0  0  0  0  0  0  0  0  0  0  0
   30.0140  -17.2410    4.4730 N   0  0  0  0  0  0  0  0  0  0  0  0
   29.0630  -16.2830    4.7250 C   0  0  0  0  0  0  0  0  0  0  0  0
   27.9580  -16.5600    5.1770 O   0  0  0  0  0  0  0  0  0  0  0  0
   29.4510  -14.8840    4.4140 C   0  0  0  0  0  0  0  0  0  0  0  0
   32.1300  -11.1800    3.7710 C   0  0  0  0  0  0  0  0  0  0  0  0
   31.3050  -10.0580    3.8990 C   0  0  0  0  0  0  0  0  0  0  0  0
   29.8750  -10.0670    4.8680 Cl  0  0  0  0  0  0  0  0  0  0  0  0
   31.6420   -8.8680    3.2470 C   0  0  0  0  0  0  0  0  0  0  0  0
   32.7970   -8.7970    2.4690 C   0  0  0  0  0  0  0  0  0  0  0  0
   33.6210   -9.9170    2.3430 C   0  0  0  0  0  0  0  0  0  0  0  0
   33.2900  -11.1100    2.9910 C   0  0  0  0  0  0  0  0  0  0  0  0
   34.3660  -12.4480    2.8130 Cl  0  0  0  0  0  0  0  0  0  0  0  0
   30.9910  -13.0600    2.6360 H   0  0  0  0  0  0  0  0  0  0  0  0
   32.6042  -15.4936    3.2844 H   0  0  0  0  0  0  0  0  0  0  0  0
   31.9681  -17.7867    3.7924 H   0  0  0  0  0  0  0  0  0  0  0  0
   29.7410  -18.1930    4.6880 H   0  0  0  0  0  0  0  0  0  0  0  0
   28.7370  -14.0658    4.5894 H   0  0  0  0  0  0  0  0  0  0  0  0
   30.9939   -7.9849    3.3481 H   0  0  0  0  0  0  0  0  0  0  0  0
   33.0585   -7.8601    1.9554 H   0  0  0  0  0  0  0  0  0  0  0  0
   34.5337   -9.8601    1.7317 H   0  0  0  0  0  0  0  0  0  0  0  0
  1  2  2  0
  2  3  1  0
  3  4  1  0
  4  5  1  0
  5  6  2  0
  6  7  1  0
  7  8  1  0
  8  9  2  0
  8 10  1  0
  2 11  1  0
 11 12  2  0
 12 13  1  0
 12 14  1  0
 14 15  2  0
 15 16  1  0
 16 17  2  0
 17 18  1  0
 10  4  2  0
 17 11  1  0
  3 19  1  0
  5 20  1  0
  6 21  1  0
  7 22  1  0
 10 23  1  0
 14 24  1  0
 15 25  1  0
 16 26  1  0
M  END
>  <meeko>  (1) 
{"is_sidechain": [false], "free_energy": -7.788, "intermolecular_energy": -8.699, "internal_energy": -0.52}

$$$$
4gfm_ligand
     RDKit          3D

 26 27  0  0  0  0  0  0  0  0999 V2000
   32.0290  -12.6530    5.7650 O   0  0  0  0  0  0  0  0  0  0  0  0
   31.6670  -12.5850    4.5990 C   0  0  0  0  0  0  0  0  0  0  0  0
   30.9470  -13.5170    3.8740 N   0  0  0  0  0  0  0  0  0  0  0  0
   30.4750  -14.7410    4.3070 C   0  0  0  0  0  0  0  0  0  0  0  0
   31.4500  -15.8210    4.3390 C   0  0  0  0  0  0  0  0  0  0  0  0
   31.0940  -17.0460    4.7440 C   0  0  0  0  0  0  0  0  0  0  0  0
   29.8070  -17.2950    5.1300 N   0  0  0  0  0  0  0  0  0  0  0  0
   28.8140  -16.3460    5.1360 C   0  0  0  0  0  0  0  0  0  0  0  0
   27.6670  -16.6000    5.4880 O   0  0  0  0  0  0  0  0  0  0  0  0
   29.2090  -14.9870    4.6870 C   0  0  0  0  0  0  0  0  0  0  0  0
   32.0210  -11.3760    3.8380 C   0  0  0  0  0  0  0  0  0  0  0  0
   33.1610  -11.3690    3.0270 C   0  0  0  0  0  0  0  0  0  0  0  0
   34.1590  -12.7630    2.8220 Cl  0  0  0  0  0  0  0  0  0  0  0  0
   33.5110  -10.2090    2.3290 C   0  0  0  0  0  0  0  0  0  0  0  0
   32.7300   -9.0600    2.4410 C   0  0  0  0  0  0  0  0  0  0  0  0
   31.5910   -9.0680    3.2490 C   0  0  0  0  0  0  0  0  0  0  0  0
   31.2350  -10.2240    3.9500 C   0  0  0  0  0  0  0  0  0  0  0  0
   29.8010  -10.1720    4.9100 Cl  0  0  0  0  0  0  0  0  0  0  0  0
   30.7410  -13.2780    2.9110 H   0  0  0  0  0  0  0  0  0  0  0  0
   32.4875  -15.6290    4.0279 H   0  0  0  0  0  0  0  0  0  0  0  0
   31.8395  -17.8546    4.7662 H   0  0  0  0  0  0  0  0  0  0  0  0
   29.5280  -18.2190    5.4380 H   0  0  0  0  0  0  0  0  0  0  0  0
   28.4633  -14.1786    4.6652 H   0  0  0  0  0  0  0  0  0  0  0  0
   34.4058  -10.2033    1.6893 H   0  0  0  0  0  0  0  0  0  0  0  0
   33.0105   -8.1480    1.8936 H   0  0  0  0  0  0  0  0  0  0  0  0
   30.9724   -8.1624    3.3341 H   0  0  0  0  0  0  0  0  0  0  0  0
  1  2  2  0
  2  3  1  0
  3  4  1  0
  4  5  1  0
  5  6  2  0
  6  7  1  0
  7  8  1  0
  8  9  2  0
  8 10  1  0
  2 11  1  0
 11 12  2  0
 12 13  1  0
 12 14  1  0
 14 15  2  0
 15 16  1  0
 16 17  2  0
 17 18  1  0
 10  4  2  0
 17 11  1  0
  3 19  1  0
  5 20  1  0
  6 21  1  0
  7 22  1  0
 10 23  1  0
 14 24  1  0
 15 25  1  0
 16 26  1  0
M  END
>  <meeko>  (2) 
{"is_sidechain": [false], "free_energy": -7.78, "intermolecular_energy": -8.687, "internal_energy": -0.522}

$$$$
4gfm_ligand
     RDKit          3D

 26 27  0  0  0  0  0  0  0  0999 V2000
   31.0050  -12.3850    3.2550 O   0  0  0  0  0  0  0  0  0  0  0  0
   31.8670  -13.2490    3.3240 C   0  0  0  0  0  0  0  0  0  0  0  0
   33.1940  -13.1620    2.9450 N   0  0  0  0  0  0  0  0  0  0  0  0
   33.8450  -12.0730    2.3990 C   0  0  0  0  0  0  0  0  0  0  0  0
   35.0110  -12.3770    1.5800 C   0  0  0  0  0  0  0  0  0  0  0  0
   35.7120  -11.3930    1.0050 C   0  0  0  0  0  0  0  0  0  0  0  0
   35.3400  -10.0900    1.1830 N   0  0  0  0  0  0  0  0  0  0  0  0
   34.2600   -9.6990    1.9350 C   0  0  0  0  0  0  0  0  0  0  0  0
   33.9520   -8.5210    2.0760 O   0  0  0  0  0  0  0  0  0  0  0  0
   33.4820  -10.7910    2.5730 C   0  0  0  0  0  0  0  0  0  0  0  0
   31.4850  -14.5590    3.8750 C   0  0  0  0  0  0  0  0  0  0  0  0
   31.4700  -14.7590    5.2600 C   0  0  0  0  0  0  0  0  0  0  0  0
   31.8260  -13.4940    6.3790 Cl  0  0  0  0  0  0  0  0  0  0  0  0
   31.1360  -16.0130    5.7790 C   0  0  0  0  0  0  0  0  0  0  0  0
   30.8190  -17.0660    4.9210 C   0  0  0  0  0  0  0  0  0  0  0  0
   30.8310  -16.8660    3.5390 C   0  0  0  0  0  0  0  0  0  0  0  0
   31.1650  -15.6140    3.0130 C   0  0  0  0  0  0  0  0  0  0  0  0
   31.1350  -15.4290    1.2970 Cl  0  0  0  0  0  0  0  0  0  0  0  0
   33.7580  -13.9930    3.0820 H   0  0  0  0  0  0  0  0  0  0  0  0
   35.3173  -13.4233    1.4333 H   0  0  0  0  0  0  0  0  0  0  0  0
   36.5900  -11.6334    0.3874 H   0  0  0  0  0  0  0  0  0  0  0  0
   35.8660   -9.3380    0.7520 H   0  0  0  0  0  0  0  0  0  0  0  0
   32.6046  -10.5494    3.1908 H   0  0  0  0  0  0  0  0  0  0  0  0
   31.1231  -16.1700    6.8677 H   0  0  0  0  0  0  0  0  0  0  0  0
   30.5599  -18.0527    5.3324 H   0  0  0  0  0  0  0  0  0  0  0  0
   30.5771  -17.6953    2.8624 H   0  0  0  0  0  0  0  0  0  0  0  0
  1  2  2  0
  2  3  1  0
  3  4  1  0
  4  5  1  0
  5  6  2  0
  6  7  1  0
  7  8  1  0
  8  9  2  0
  8 10  1  0
  2 11  1  0
 11 12  2  0
 12 13  1  0
 12 14  1  0
 14 15  2  0
 15 16  1  0
 16 17  2  0
 17 18  1  0
 10  4  2  0
 17 11  1  0
  3 19  1  0
  5 20  1  0
  6 21  1  0
  7 22  1  0
 10 23  1  0
 14 24  1  0
 15 25  1  0
 16 26  1  0
M  END
>  <meeko>  (3) 
{"is_sidechain": [false], "free_energy": -7.567, "intermolecular_energy": -8.8, "internal_energy": -0.171}

$$$$
4gfm_ligand
     RDKit          3D

 26 27  0  0  0  0  0  0  0  0999 V2000
   31.0040  -12.3780    3.2550 O   0  0  0  0  0  0  0  0  0  0  0  0
   31.8660  -13.2420    3.3240 C   0  0  0  0  0  0  0  0  0  0  0  0
   33.1930  -13.1560    2.9410 N   0  0  0  0  0  0  0  0  0  0  0  0
   33.8420  -12.0680    2.3890 C   0  0  0  0  0  0  0  0  0  0  0  0
   35.0010  -12.3750    1.5630 C   0  0  0  0  0  0  0  0  0  0  0  0
   35.7000  -11.3920    0.9820 C   0  0  0  0  0  0  0  0  0  0  0  0
   35.3320  -10.0890    1.1620 N   0  0  0  0  0  0  0  0  0  0  0  0
   34.2570   -9.6950    1.9210 C   0  0  0  0  0  0  0  0  0  0  0  0
   33.9520   -8.5170    2.0630 O   0  0  0  0  0  0  0  0  0  0  0  0
   33.4810  -10.7860    2.5650 C   0  0  0  0  0  0  0  0  0  0  0  0
   31.4860  -14.5500    3.8800 C   0  0  0  0  0  0  0  0  0  0  0  0
   31.1420  -15.6010    3.0230 C   0  0  0  0  0  0  0  0  0  0  0  0
   31.2050  -15.4510    1.3050 Cl  0  0  0  0  0  0  0  0  0  0  0  0
   30.7520  -16.8340    3.5560 C   0  0  0  0  0  0  0  0  0  0  0  0
   30.7040  -17.0180    4.9370 C   0  0  0  0  0  0  0  0  0  0  0  0
   31.0490  -15.9700    5.7920 C   0  0  0  0  0  0  0  0  0  0  0  0
   31.4400  -14.7350    5.2670 C   0  0  0  0  0  0  0  0  0  0  0  0
   31.8780  -13.4900    6.3800 Cl  0  0  0  0  0  0  0  0  0  0  0  0
   33.7570  -13.9860    3.0790 H   0  0  0  0  0  0  0  0  0  0  0  0
   35.3045  -13.4219    1.4153 H   0  0  0  0  0  0  0  0  0  0  0  0
   36.5729  -11.6343    0.3581 H   0  0  0  0  0  0  0  0  0  0  0  0
   35.8550   -9.3380    0.7260 H   0  0  0  0  0  0  0  0  0  0  0  0
   32.6077  -10.5432    3.1882 H   0  0  0  0  0  0  0  0  0  0  0  0
   30.4822  -17.6613    2.8831 H   0  0  0  0  0  0  0  0  0  0  0  0
   30.3945  -17.9883    5.3526 H   0  0  0  0  0  0  0  0  0  0  0  0
   31.0131  -16.1164    6.8816 H   0  0  0  0  0  0  0  0  0  0  0  0
  1  2  2  0
  2  3  1  0
  3  4  1  0
  4  5  1  0
  5  6  2  0
  6  7  1  0
  7  8  1  0
  8  9  2  0
  8 10  1  0
  2 11  1  0
 11 12  2  0
 12 13  1  0
 12 14  1  0
 14 15  2  0
 15 16  1  0
 16 17  2  0
 17 18  1  0
 10  4  2  0
 17 11  1  0
  3 19  1  0
  5 20  1  0
  6 21  1  0
  7 22  1  0
 10 23  1  0
 14 24  1  0
 15 25  1  0
 16 26  1  0
M  END
>  <meeko>  (4) 
{"is_sidechain": [false], "free_energy": -7.476, "intermolecular_energy": -8.704, "internal_energy": -0.166}

$$$$
4gfm_ligand
     RDKit          3D

 26 27  0  0  0  0  0  0  0  0999 V2000
   31.4240  -13.9660    2.0610 O   0  0  0  0  0  0  0  0  0  0  0  0
   31.6210  -13.5750    3.2030 C   0  0  0  0  0  0  0  0  0  0  0  0
   32.5220  -12.6160    3.6320 N   0  0  0  0  0  0  0  0  0  0  0  0
   33.4040  -11.8840    2.8620 C   0  0  0  0  0  0  0  0  0  0  0  0
   34.4800  -12.6410    2.2380 C   0  0  0  0  0  0  0  0  0  0  0  0
   35.3880  -12.0250    1.4720 C   0  0  0  0  0  0  0  0  0  0  0  0
   35.3140  -10.6750    1.2690 N   0  0  0  0  0  0  0  0  0  0  0  0
   34.3410   -9.8730    1.8120 C   0  0  0  0  0  0  0  0  0  0  0  0
   34.3020   -8.6640    1.6120 O   0  0  0  0  0  0  0  0  0  0  0  0
   33.3340  -10.5560    2.6620 C   0  0  0  0  0  0  0  0  0  0  0  0
   30.8210  -14.1730    4.2830 C   0  0  0  0  0  0  0  0  0  0  0  0
   29.6690  -13.5260    4.7410 C   0  0  0  0  0  0  0  0  0  0  0  0
   29.0940  -12.0570    4.0400 Cl  0  0  0  0  0  0  0  0  0  0  0  0
   28.9280  -14.0820    5.7890 C   0  0  0  0  0  0  0  0  0  0  0  0
   29.3350  -15.2780    6.3780 C   0  0  0  0  0  0  0  0  0  0  0  0
   30.4840  -15.9250    5.9190 C   0  0  0  0  0  0  0  0  0  0  0  0
   31.2300  -15.3750    4.8730 C   0  0  0  0  0  0  0  0  0  0  0  0
   32.6250  -16.2400    4.3380 Cl  0  0  0  0  0  0  0  0  0  0  0  0
   32.5390  -12.4270    4.6270 H   0  0  0  0  0  0  0  0  0  0  0  0
   34.5470  -13.7273    2.3975 H   0  0  0  0  0  0  0  0  0  0  0  0
   36.1962  -12.6064    1.0043 H   0  0  0  0  0  0  0  0  0  0  0  0
   35.9980  -10.2010    0.6910 H   0  0  0  0  0  0  0  0  0  0  0  0
   32.5270   -9.9734    3.1304 H   0  0  0  0  0  0  0  0  0  0  0  0
   28.0214  -13.5739    6.1494 H   0  0  0  0  0  0  0  0  0  0  0  0
   28.7516  -15.7116    7.2036 H   0  0  0  0  0  0  0  0  0  0  0  0
   30.8030  -16.8704    6.3821 H   0  0  0  0  0  0  0  0  0  0  0  0
  1  2  2  0
  2  3  1  0
  3  4  1  0
  4  5  1  0
  5  6  2  0
  6  7  1  0
  7  8  1  0
  8  9  2  0
  8 10  1  0
  2 11  1  0
 11 12  2  0
 12 13  1  0
 12 14  1  0
 14 15  2  0
 15 16  1  0
 16 17  2  0
 17 18  1  0
 10  4  2  0
 17 11  1  0
  3 19  1  0
  5 20  1  0
  6 21  1  0
  7 22  1  0
 10 23  1  0
 14 24  1  0
 15 25  1  0
 16 26  1  0
M  END
>  <meeko>  (5) 
{"is_sidechain": [false], "free_energy": -7.282, "intermolecular_energy": -8.195, "internal_energy": -0.459}

$$$$
4gfm_ligand
     RDKit          3D

 26 27  0  0  0  0  0  0  0  0999 V2000
   31.3690  -13.9510    2.0720 O   0  0  0  0  0  0  0  0  0  0  0  0
   31.5270  -13.5450    3.2150 C   0  0  0  0  0  0  0  0  0  0  0  0
   32.4040  -12.5720    3.6600 N   0  0  0  0  0  0  0  0  0  0  0  0
   33.3020  -11.8390    2.9100 C   0  0  0  0  0  0  0  0  0  0  0  0
   34.4050  -12.5910    2.3290 C   0  0  0  0  0  0  0  0  0  0  0  0
   35.3300  -11.9740    1.5840 C   0  0  0  0  0  0  0  0  0  0  0  0
   35.2480  -10.6280    1.3630 N   0  0  0  0  0  0  0  0  0  0  0  0
   34.2500   -9.8300    1.8650 C   0  0  0  0  0  0  0  0  0  0  0  0
   34.2040   -8.6250    1.6490 O   0  0  0  0  0  0  0  0  0  0  0  0
   33.2230  -10.5150    2.6910 C   0  0  0  0  0  0  0  0  0  0  0  0
   30.7010  -14.1400    4.2770 C   0  0  0  0  0  0  0  0  0  0  0  0
   31.0700  -15.3620    4.8500 C   0  0  0  0  0  0  0  0  0  0  0  0
   32.5170  -16.1920    4.4030 Cl  0  0  0  0  0  0  0  0  0  0  0  0
   30.2660  -15.9390    5.8370 C   0  0  0  0  0  0  0  0  0  0  0  0
   29.0970  -15.3020    6.2510 C   0  0  0  0  0  0  0  0  0  0  0  0
   28.7300  -14.0820    5.6810 C   0  0  0  0  0  0  0  0  0  0  0  0
   29.5280  -13.4990    4.6930 C   0  0  0  0  0  0  0  0  0  0  0  0
   29.0290  -11.9770    4.0490 Cl  0  0  0  0  0  0  0  0  0  0  0  0
   32.3880  -12.3720    4.6530 H   0  0  0  0  0  0  0  0  0  0  0  0
   34.4787  -13.6745    2.5037 H   0  0  0  0  0  0  0  0  0  0  0  0
   36.1584  -12.5519    1.1485 H   0  0  0  0  0  0  0  0  0  0  0  0
   35.9450  -10.1530    0.8010 H   0  0  0  0  0  0  0  0  0  0  0  0
   32.3943   -9.9365    3.1253 H   0  0  0  0  0  0  0  0  0  0  0  0
   30.5566  -16.8990    6.2887 H   0  0  0  0  0  0  0  0  0  0  0  0
   28.4648  -15.7603    7.0258 H   0  0  0  0  0  0  0  0  0  0  0  0
   27.8096  -13.5777    6.0105 H   0  0  0  0  0  0  0  0  0  0  0  0
  1  2  2  0
  2  3  1  0
  3  4  1  0
  4  5  1  0
  5  6  2  0
  6  7  1  0
  7  8  1  0
  8  9  2  0
  8 10  1  0
  2 11  1  0
 11 12  2  0
 12 13  1  0
 12 14  1  0
 14 15  2  0
 15 16  1  0
 16 17  2  0
 17 18  1  0
 10  4  2  0
 17 11  1  0
  3 19  1  0
  5 20  1  0
  6 21  1  0
  7 22  1  0
 10 23  1  0
 14 24  1  0
 15 25  1  0
 16 26  1  0
M  END
>  <meeko>  (6) 
{"is_sidechain": [false], "free_energy": -7.201, "intermolecular_energy": -8.115, "internal_energy": -0.447}

$$$$
4gfm_ligand
     RDKit          3D

 26 27  0  0  0  0  0  0  0  0999 V2000
   32.2150  -11.6950    5.1090 O   0  0  0  0  0  0  0  0  0  0  0  0
   32.0280  -11.9110    3.9210 C   0  0  0  0  0  0  0  0  0  0  0  0
   30.8570  -12.3110    3.3020 N   0  0  0  0  0  0  0  0  0  0  0  0
   29.6320  -12.5570    3.8920 C   0  0  0  0  0  0  0  0  0  0  0  0
   28.9000  -11.3830    4.3460 C   0  0  0  0  0  0  0  0  0  0  0  0
   27.7040  -11.5130    4.9310 C   0  0  0  0  0  0  0  0  0  0  0  0
   27.1570  -12.7530    5.1090 N   0  0  0  0  0  0  0  0  0  0  0  0
   27.7660  -13.9200    4.7180 C   0  0  0  0  0  0  0  0  0  0  0  0
   27.2490  -15.0180    4.8910 O   0  0  0  0  0  0  0  0  0  0  0  0
   29.0930  -13.7760    4.0680 C   0  0  0  0  0  0  0  0  0  0  0  0
   33.1630  -11.7350    3.0010 C   0  0  0  0  0  0  0  0  0  0  0  0
   33.9310  -12.8400    2.6190 C   0  0  0  0  0  0  0  0  0  0  0  0
   33.5630  -14.4460    3.1370 Cl  0  0  0  0  0  0  0  0  0  0  0  0
   35.0280  -12.6650    1.7690 C   0  0  0  0  0  0  0  0  0  0  0  0
   35.3580  -11.3930    1.3040 C   0  0  0  0  0  0  0  0  0  0  0  0
   34.5900  -10.2910    1.6830 C   0  0  0  0  0  0  0  0  0  0  0  0
   33.4930  -10.4590    2.5330 C   0  0  0  0  0  0  0  0  0  0  0  0
   32.5710   -9.0570    2.9420 Cl  0  0  0  0  0  0  0  0  0  0  0  0
   30.8990  -12.4400    2.2980 H   0  0  0  0  0  0  0  0  0  0  0  0
   29.3337  -10.3817    4.2069 H   0  0  0  0  0  0  0  0  0  0  0  0
   27.1592  -10.6195    5.2698 H   0  0  0  0  0  0  0  0  0  0  0  0
   26.2520  -12.8600    5.5510 H   0  0  0  0  0  0  0  0  0  0  0  0
   29.6372  -14.6699    3.7292 H   0  0  0  0  0  0  0  0  0  0  0  0
   35.6318  -13.5334    1.4667 H   0  0  0  0  0  0  0  0  0  0  0  0
   36.2234  -11.2578    0.6386 H   0  0  0  0  0  0  0  0  0  0  0  0
   34.8484   -9.2882    1.3121 H   0  0  0  0  0  0  0  0  0  0  0  0
  1  2  2  0
  2  3  1  0
  3  4  1  0
  4  5  1  0
  5  6  2  0
  6  7  1  0
  7  8  1  0
  8  9  2  0
  8 10  1  0
  2 11  1  0
 11 12  2  0
 12 13  1  0
 12 14  1  0
 14 15  2  0
 15 16  1  0
 16 17  2  0
 17 18  1  0
 10  4  2  0
 17 11  1  0
  3 19  1  0
  5 20  1  0
  6 21  1  0
  7 22  1  0
 10 23  1  0
 14 24  1  0
 15 25  1  0
 16 26  1  0
M  END
>  <meeko>  (7) 
{"is_sidechain": [false], "free_energy": -7.154, "intermolecular_energy": -8.025, "internal_energy": -0.485}

$$$$
4gfm_ligand
     RDKit          3D

 26 27  0  0  0  0  0  0  0  0999 V2000
   31.6780  -13.5120    5.8670 O   0  0  0  0  0  0  0  0  0  0  0  0
   31.2220  -13.9780    4.8330 C   0  0  0  0  0  0  0  0  0  0  0  0
   31.6470  -13.7510    3.5360 N   0  0  0  0  0  0  0  0  0  0  0  0
   32.6840  -12.9400    3.1180 C   0  0  0  0  0  0  0  0  0  0  0  0
   33.8560  -13.6300    2.5950 C   0  0  0  0  0  0  0  0  0  0  0  0
   34.9160  -12.9360    2.1640 C   0  0  0  0  0  0  0  0  0  0  0  0
   34.9090  -11.5710    2.2110 N   0  0  0  0  0  0  0  0  0  0  0  0
   33.8560  -10.8270    2.6850 C   0  0  0  0  0  0  0  0  0  0  0  0
   33.8790   -9.6020    2.7140 O   0  0  0  0  0  0  0  0  0  0  0  0
   32.6790  -11.5970    3.1640 C   0  0  0  0  0  0  0  0  0  0  0  0
   30.0810  -14.9010    4.9380 C   0  0  0  0  0  0  0  0  0  0  0  0
   30.2970  -16.2830    4.9370 C   0  0  0  0  0  0  0  0  0  0  0  0
   31.8800  -16.9720    4.8810 Cl  0  0  0  0  0  0  0  0  0  0  0  0
   29.2080  -17.1580    5.0060 C   0  0  0  0  0  0  0  0  0  0  0  0
   27.9090  -16.6560    5.0740 C   0  0  0  0  0  0  0  0  0  0  0  0
   27.6940  -15.2770    5.0780 C   0  0  0  0  0  0  0  0  0  0  0  0
   28.7780  -14.3970    5.0080 C   0  0  0  0  0  0  0  0  0  0  0  0
   28.4420  -12.7040    5.0420 Cl  0  0  0  0  0  0  0  0  0  0  0  0
   31.1380  -14.2330    2.8040 H   0  0  0  0  0  0  0  0  0  0  0  0
   33.8696  -14.7292    2.5542 H   0  0  0  0  0  0  0  0  0  0  0  0
   35.7957  -13.4666    1.7707 H   0  0  0  0  0  0  0  0  0  0  0  0
   35.7070  -11.0380    1.8870 H   0  0  0  0  0  0  0  0  0  0  0  0
   31.8001  -11.0656    3.5578 H   0  0  0  0  0  0  0  0  0  0  0  0
   29.3768  -18.2450    5.0066 H   0  0  0  0  0  0  0  0  0  0  0  0
   27.0541  -17.3464    5.1245 H   0  0  0  0  0  0  0  0  0  0  0  0
   26.6692  -14.8816    5.1364 H   0  0  0  0  0  0  0  0  0  0  0  0
  1  2  2  0
  2  3  1  0
  3  4  1  0
  4  5  1  0
  5  6  2  0
  6  7  1  0
  7  8  1  0
  8  9  2  0
  8 10  1  0
  2 11  1  0
 11 12  2  0
 12 13  1  0
 12 14  1  0
 14 15  2  0
 15 16  1  0
 16 17  2  0
 17 18  1  0
 10  4  2  0
 17 11  1  0
  3 19  1  0
  5 20  1  0
  6 21  1  0
  7 22  1  0
 10 23  1  0
 14 24  1  0
 15 25  1  0
 16 26  1  0
M  END
>  <meeko>  (8) 
{"is_sidechain": [false], "free_energy": -6.967, "intermolecular_energy": -7.796, "internal_energy": -0.506}

$$$$
4gfm_ligand
     RDKit          3D

 26 27  0  0  0  0  0  0  0  0999 V2000
   29.9580  -13.3110    2.9670 O   0  0  0  0  0  0  0  0  0  0  0  0
   30.9280  -13.5030    3.6860 C   0  0  0  0  0  0  0  0  0  0  0  0
   31.0030  -14.2810    4.8270 N   0  0  0  0  0  0  0  0  0  0  0  0
   29.9920  -15.0170    5.4130 C   0  0  0  0  0  0  0  0  0  0  0  0
   29.5640  -16.2000    4.6810 C   0  0  0  0  0  0  0  0  0  0  0  0
   28.5910  -16.9830    5.1630 C   0  0  0  0  0  0  0  0  0  0  0  0
   27.9880  -16.6760    6.3510 N   0  0  0  0  0  0  0  0  0  0  0  0
   28.3180  -15.5850    7.1160 C   0  0  0  0  0  0  0  0  0  0  0  0
   27.7590  -15.3360    8.1780 O   0  0  0  0  0  0  0  0  0  0  0  0
   29.3980  -14.7170    6.5810 C   0  0  0  0  0  0  0  0  0  0  0  0
   32.1930  -12.8430    3.3250 C   0  0  0  0  0  0  0  0  0  0  0  0
   32.3590  -11.4730    3.5580 C   0  0  0  0  0  0  0  0  0  0  0  0
   31.1450  -10.5130    4.3240 Cl  0  0  0  0  0  0  0  0  0  0  0  0
   33.5500  -10.8430    3.1870 C   0  0  0  0  0  0  0  0  0  0  0  0
   34.5720  -11.5750    2.5840 C   0  0  0  0  0  0  0  0  0  0  0  0
   34.4080  -12.9420    2.3540 C   0  0  0  0  0  0  0  0  0  0  0  0
   33.2200  -13.5780    2.7220 C   0  0  0  0  0  0  0  0  0  0  0  0
   33.0930  -15.2750    2.4320 Cl  0  0  0  0  0  0  0  0  0  0  0  0
   31.9030  -14.3160    5.2900 H   0  0  0  0  0  0  0  0  0  0  0  0
   30.0439  -16.4527    3.7240 H   0  0  0  0  0  0  0  0  0  0  0  0
   28.2760  -17.8752    4.6020 H   0  0  0  0  0  0  0  0  0  0  0  0
   27.2500  -17.2620    6.7230 H   0  0  0  0  0  0  0  0  0  0  0  0
   29.7130  -13.8252    7.1427 H   0  0  0  0  0  0  0  0  0  0  0  0
   33.6815   -9.7665    3.3712 H   0  0  0  0  0  0  0  0  0  0  0  0
   35.5069  -11.0756    2.2897 H   0  0  0  0  0  0  0  0  0  0  0  0
   35.2162  -13.5198    1.8818 H   0  0  0  0  0  0  0  0  0  0  0  0
  1  2  2  0
  2  3  1  0
  3  4  1  0
  4  5  1  0
  5  6  2  0
  6  7  1  0
  7  8  1  0
  8  9  2  0
  8 10  1  0
  2 11  1  0
 11 12  2  0
 12 13  1  0
 12 14  1  0
 14 15  2  0
 15 16  1  0
 16 17  2  0
 17 18  1  0
 10  4  2  0
 17 11  1  0
  3 19  1  0
  5 20  1  0
  6 21  1  0
  7 22  1  0
 10 23  1  0
 14 24  1  0
 15 25  1  0
 16 26  1  0
M  END
>  <meeko>  (9) 
{"is_sidechain": [false], "free_energy": -6.916, "intermolecular_energy": -7.846, "internal_energy": -0.398}

$$$$
