3g31_ligand
     RDKit          3D

 31 33  0  0  0  0  0  0  0  0999 V2000
   -3.0830   39.6390   28.4300 C   0  0  0  0  0  0  0  0  0  0  0  0
   -3.3910   40.6140   27.2960 C   0  0  2  0  0  0  0  0  0  0  0  0
   -3.8820   39.8840   26.0110 C   0  0  0  0  0  0  0  0  0  0  0  0
   -3.7310   40.5240   24.9290 O   0  0  0  0  0  0  0  0  0  0  0  0
   -4.4150   38.7500   26.1900 O   0  0  0  0  0  0  0  0  0  0  0  0
   -2.2720   41.5450   27.0550 N   0  0  0  0  0  0  0  0  0  0  0  0
   -2.4700   42.8920   26.8860 C   0  0  0  0  0  0  0  0  0  0  0  0
   -3.4970   43.5360   27.0630 O   0  0  0  0  0  0  0  0  0  0  0  0
   -1.1660   43.5270   26.4950 C   0  0  2  0  0  0  0  0  0  0  0  0
   -1.0820   44.1900   25.1100 C   0  0  2  0  0  0  0  0  0  0  0  0
   -1.7050   43.3090   24.0140 C   0  0  0  0  0  0  0  0  0  0  0  0
   -0.7120   42.1430   23.8980 C   0  0  0  0  0  0  0  0  0  0  0  0
    0.3570   42.4900   24.9490 C   0  0  1  0  0  0  0  0  0  0  0  0
    0.4130   44.0170   24.8050 C   0  0  0  0  0  0  0  0  0  0  0  0
   -0.1860   42.3580   26.3840 C   0  0  2  0  0  0  0  0  0  0  0  0
   -1.0070   41.1410   26.7090 C   0  0  0  0  0  0  0  0  0  0  0  0
   -0.5430   40.0090   26.6940 O   0  0  0  0  0  0  0  0  0  0  0  0
   -3.2411   40.1393   29.3968 H   0  0  0  0  0  0  0  0  0  0  0  0
   -3.7495   38.7671   28.3551 H   0  0  0  0  0  0  0  0  0  0  0  0
   -2.0366   39.3082   28.3551 H   0  0  0  0  0  0  0  0  0  0  0  0
   -4.2369   41.2389   27.6185 H   0  0  0  0  0  0  0  0  0  0  0  0
   -0.9856   44.3164   27.2395 H   0  0  0  0  0  0  0  0  0  0  0  0
   -1.5419   45.1892   25.1195 H   0  0  0  0  0  0  0  0  0  0  0  0
   -2.7010   42.9511   24.3137 H   0  0  0  0  0  0  0  0  0  0  0  0
   -1.8575   43.8431   23.0646 H   0  0  0  0  0  0  0  0  0  0  0  0
   -1.1990   41.1847   24.1315 H   0  0  0  0  0  0  0  0  0  0  0  0
   -0.3002   42.0246   22.8849 H   0  0  0  0  0  0  0  0  0  0  0  0
    1.2609   41.8786   24.8104 H   0  0  0  0  0  0  0  0  0  0  0  0
    1.0676   44.5009   25.5448 H   0  0  0  0  0  0  0  0  0  0  0  0
    0.8135   44.4439   23.8737 H   0  0  0  0  0  0  0  0  0  0  0  0
    0.6845   42.3156   27.0551 H   0  0  0  0  0  0  0  0  0  0  0  0
  1  2  1  0
  2  3  1  0
  3  4  2  0
  3  5  1  0
  2  6  1  0
  6  7  1  0
  7  8  2  0
  7  9  1  0
  9 10  1  0
 10 11  1  0
 11 12  1  0
 12 13  1  0
 13 14  1  0
 13 15  1  0
 15 16  1  0
 16 17  2  0
 16  6  1  0
 15  9  1  0
 14 10  1  0
  1 18  1  0
  1 19  1  0
  1 20  1  0
  2 21  1  1
  9 22  1  1
 10 23  1  1
 11 24  1  0
 11 25  1  0
 12 26  1  0
 12 27  1  0
 13 28  1  1
 14 29  1  0
 14 30  1  0
 15 31  1  1
M  CHG  1   5  -1
M  END
>  <meeko>  (1) 
{"is_sidechain": [false], "free_energy": -4.963, "intermolecular_energy": -5.543, "internal_energy": -0.084}

$$$$
3g31_ligand
     RDKit          3D

 31 33  0  0  0  0  0  0  0  0999 V2000
   -2.3530   38.0500   25.2690 C   0  0  0  0  0  0  0  0  0  0  0  0
   -2.2910   39.3260   26.1060 C   0  0  2  0  0  0  0  0  0  0  0  0
   -3.6850   39.7210   26.6780 C   0  0  0  0  0  0  0  0  0  0  0  0
   -4.6630   39.0370   26.2530 O   0  0  0  0  0  0  0  0  0  0  0  0
   -3.6970   40.7040   27.4740 O   0  0  0  0  0  0  0  0  0  0  0  0
   -1.6160   40.4220   25.3860 N   0  0  0  0  0  0  0  0  0  0  0  0
   -0.3890   40.8990   25.7720 C   0  0  0  0  0  0  0  0  0  0  0  0
    0.3810   40.4290   26.6000 O   0  0  0  0  0  0  0  0  0  0  0  0
   -0.0610   42.1110   24.9480 C   0  0  2  0  0  0  0  0  0  0  0  0
    0.0920   43.4540   25.6840 C   0  0  2  0  0  0  0  0  0  0  0  0
   -1.0340   43.6770   26.7080 C   0  0  0  0  0  0  0  0  0  0  0  0
   -2.2690   43.9060   25.8260 C   0  0  0  0  0  0  0  0  0  0  0  0
   -1.7060   43.7770   24.4000 C   0  0  1  0  0  0  0  0  0  0  0  0
   -0.3290   44.4310   24.5760 C   0  0  0  0  0  0  0  0  0  0  0  0
   -1.2970   42.3290   24.0740 C   0  0  2  0  0  0  0  0  0  0  0  0
   -2.2430   41.2300   24.4720 C   0  0  0  0  0  0  0  0  0  0  0  0
   -3.3570   41.1110   23.9820 O   0  0  0  0  0  0  0  0  0  0  0  0
   -2.3955   37.1760   25.9355 H   0  0  0  0  0  0  0  0  0  0  0  0
   -3.2512   38.0711   24.6343 H   0  0  0  0  0  0  0  0  0  0  0  0
   -1.4570   37.9839   24.6343 H   0  0  0  0  0  0  0  0  0  0  0  0
   -1.6636   39.1143   26.9844 H   0  0  0  0  0  0  0  0  0  0  0  0
    0.9069   41.8937   24.4726 H   0  0  0  0  0  0  0  0  0  0  0  0
    1.0798   43.5358   26.1610 H   0  0  0  0  0  0  0  0  0  0  0  0
   -1.1653   42.7927   27.3489 H   0  0  0  0  0  0  0  0  0  0  0  0
   -0.8334   44.5123   27.3950 H   0  0  0  0  0  0  0  0  0  0  0  0
   -3.0383   43.1435   26.0176 H   0  0  0  0  0  0  0  0  0  0  0  0
   -2.7606   44.8723   26.0117 H   0  0  0  0  0  0  0  0  0  0  0  0
   -2.4197   44.1625   23.6570 H   0  0  0  0  0  0  0  0  0  0  0  0
    0.3015   44.3683   23.6768 H   0  0  0  0  0  0  0  0  0  0  0  0
   -0.2807   45.5109   24.7794 H   0  0  0  0  0  0  0  0  0  0  0  0
   -1.2066   42.2589   22.9800 H   0  0  0  0  0  0  0  0  0  0  0  0
  1  2  1  0
  2  3  1  0
  3  4  2  0
  3  5  1  0
  2  6  1  0
  6  7  1  0
  7  8  2  0
  7  9  1  0
  9 10  1  0
 10 11  1  0
 11 12  1  0
 12 13  1  0
 13 14  1  0
 13 15  1  0
 15 16  1  0
 16 17  2  0
 16  6  1  0
 15  9  1  0
 14 10  1  0
  1 18  1  0
  1 19  1  0
  1 20  1  0
  2 21  1  1
  9 22  1  6
 10 23  1  1
 11 24  1  0
 11 25  1  0
 12 26  1  0
 12 27  1  0
 13 28  1  6
 14 29  1  0
 14 30  1  0
 15 31  1  6
M  CHG  1   5  -1
M  END
>  <meeko>  (2) 
{"is_sidechain": [false], "free_energy": -4.848, "intermolecular_energy": -5.35, "internal_energy": -0.148}

$$$$
3g31_ligand
     RDKit          3D

 31 33  0  0  0  0  0  0  0  0999 V2000
   -1.7190   40.5890   21.8450 C   0  0  0  0  0  0  0  0  0  0  0  0
   -1.3300   39.7310   23.0460 C   0  0  2  0  0  0  0  0  0  0  0  0
   -2.2350   38.4720   23.1870 C   0  0  0  0  0  0  0  0  0  0  0  0
   -3.2160   38.4130   22.3890 O   0  0  0  0  0  0  0  0  0  0  0  0
   -1.9180   37.6640   24.1080 O   0  0  0  0  0  0  0  0  0  0  0  0
   -1.2320   40.5300   24.2820 N   0  0  0  0  0  0  0  0  0  0  0  0
   -2.3210   41.1610   24.8290 C   0  0  0  0  0  0  0  0  0  0  0  0
   -3.5000   41.0440   24.5190 O   0  0  0  0  0  0  0  0  0  0  0  0
   -1.8590   42.0190   25.9730 C   0  0  2  0  0  0  0  0  0  0  0  0
   -2.0600   43.5390   25.8510 C   0  0  2  0  0  0  0  0  0  0  0  0
   -1.6440   44.0630   24.4660 C   0  0  0  0  0  0  0  0  0  0  0  0
   -0.1150   43.9170   24.4820 C   0  0  0  0  0  0  0  0  0  0  0  0
    0.1620   43.3170   25.8720 C   0  0  1  0  0  0  0  0  0  0  0  0
   -0.8940   44.0460   26.7130 C   0  0  0  0  0  0  0  0  0  0  0  0
   -0.3370   41.8650   25.9790 C   0  0  2  0  0  0  0  0  0  0  0  0
   -0.0430   40.9400   24.8310 C   0  0  0  0  0  0  0  0  0  0  0  0
    1.0950   40.6110   24.5250 O   0  0  0  0  0  0  0  0  0  0  0  0
   -2.1494   41.5383   22.1966 H   0  0  0  0  0  0  0  0  0  0  0  0
   -0.8260   40.7944   21.2365 H   0  0  0  0  0  0  0  0  0  0  0  0
   -2.4620   40.0526   21.2365 H   0  0  0  0  0  0  0  0  0  0  0  0
   -0.3178   39.3428   22.8597 H   0  0  0  0  0  0  0  0  0  0  0  0
   -2.4403   41.6885   26.8464 H   0  0  0  0  0  0  0  0  0  0  0  0
   -3.0970   43.8228   26.0834 H   0  0  0  0  0  0  0  0  0  0  0  0
   -2.0901   43.4563   23.6641 H   0  0  0  0  0  0  0  0  0  0  0  0
   -1.9776   45.0939   24.2761 H   0  0  0  0  0  0  0  0  0  0  0  0
    0.2257   43.2404   23.6845 H   0  0  0  0  0  0  0  0  0  0  0  0
    0.4126   44.8663   24.3071 H   0  0  0  0  0  0  0  0  0  0  0  0
    1.2296   43.3872   26.1275 H   0  0  0  0  0  0  0  0  0  0  0  0
   -0.9384   43.6968   27.7551 H   0  0  0  0  0  0  0  0  0  0  0  0
   -0.7868   45.1296   26.8693 H   0  0  0  0  0  0  0  0  0  0  0  0
    0.1590   41.4174   26.8529 H   0  0  0  0  0  0  0  0  0  0  0  0
  1  2  1  0
  2  3  1  0
  3  4  2  0
  3  5  1  0
  2  6  1  0
  6  7  1  0
  7  8  2  0
  7  9  1  0
  9 10  1  0
 10 11  1  0
 11 12  1  0
 12 13  1  0
 13 14  1  0
 13 15  1  0
 15 16  1  0
 16 17  2  0
 16  6  1  0
 15  9  1  0
 14 10  1  0
  1 18  1  0
  1 19  1  0
  1 20  1  0
  2 21  1  6
  9 22  1  1
 10 23  1  1
 11 24  1  0
 11 25  1  0
 12 26  1  0
 12 27  1  0
 13 28  1  1
 14 29  1  0
 14 30  1  0
 15 31  1  1
M  CHG  1   5  -1
M  END
>  <meeko>  (3) 
{"is_sidechain": [false], "free_energy": -4.613, "intermolecular_energy": -4.998, "internal_energy": -0.238}

$$$$
3g31_ligand
     RDKit          3D

 31 33  0  0  0  0  0  0  0  0999 V2000
    3.4020   40.9980   25.6450 C   0  0  0  0  0  0  0  0  0  0  0  0
    1.9620   40.7370   25.2090 C   0  0  2  0  0  0  0  0  0  0  0  0
    1.8170   40.6860   23.6590 C   0  0  0  0  0  0  0  0  0  0  0  0
    2.8430   41.0360   23.0040 O   0  0  0  0  0  0  0  0  0  0  0  0
    0.6810   40.3400   23.2220 O   0  0  0  0  0  0  0  0  0  0  0  0
    1.0160   41.6620   25.8620 N   0  0  0  0  0  0  0  0  0  0  0  0
   -0.0500   41.2120   26.5990 C   0  0  0  0  0  0  0  0  0  0  0  0
   -0.2910   40.0690   26.9650 O   0  0  0  0  0  0  0  0  0  0  0  0
   -0.9040   42.3880   26.9800 C   0  0  2  0  0  0  0  0  0  0  0  0
   -2.3420   42.4320   26.4340 C   0  0  2  0  0  0  0  0  0  0  0  0
   -2.3990   42.0720   24.9400 C   0  0  0  0  0  0  0  0  0  0  0  0
   -1.7380   43.2820   24.2640 C   0  0  0  0  0  0  0  0  0  0  0  0
   -1.3710   44.1870   25.4530 C   0  0  1  0  0  0  0  0  0  0  0  0
   -2.5740   43.9480   26.3750 C   0  0  0  0  0  0  0  0  0  0  0  0
   -0.2360   43.5850   26.3020 C   0  0  2  0  0  0  0  0  0  0  0  0
    0.9440   43.0020   25.5760 C   0  0  0  0  0  0  0  0  0  0  0  0
    1.7020   43.6810   24.8980 O   0  0  0  0  0  0  0  0  0  0  0  0
    3.4564   41.0079   26.7436 H   0  0  0  0  0  0  0  0  0  0  0  0
    4.0536   40.2033   25.2527 H   0  0  0  0  0  0  0  0  0  0  0  0
    3.7333   41.9708   25.2527 H   0  0  0  0  0  0  0  0  0  0  0  0
    1.6876   39.7313   25.5600 H   0  0  0  0  0  0  0  0  0  0  0  0
   -0.9778   42.3582   28.0771 H   0  0  0  0  0  0  0  0  0  0  0  0
   -3.0096   41.7833   27.0201 H   0  0  0  0  0  0  0  0  0  0  0  0
   -1.8368   41.1491   24.7346 H   0  0  0  0  0  0  0  0  0  0  0  0
   -3.4208   41.8808   24.5803 H   0  0  0  0  0  0  0  0  0  0  0  0
   -0.8399   42.9805   23.7050 H   0  0  0  0  0  0  0  0  0  0  0  0
   -2.3897   43.7765   23.5286 H   0  0  0  0  0  0  0  0  0  0  0  0
   -1.1157   45.2018   25.1137 H   0  0  0  0  0  0  0  0  0  0  0  0
   -2.4782   44.4419   27.3532 H   0  0  0  0  0  0  0  0  0  0  0  0
   -3.5608   44.3177   26.0595 H   0  0  0  0  0  0  0  0  0  0  0  0
    0.1703   44.3996   26.9195 H   0  0  0  0  0  0  0  0  0  0  0  0
  1  2  1  0
  2  3  1  0
  3  4  2  0
  3  5  1  0
  2  6  1  0
  6  7  1  0
  7  8  2  0
  7  9  1  0
  9 10  1  0
 10 11  1  0
 11 12  1  0
 12 13  1  0
 13 14  1  0
 13 15  1  0
 15 16  1  0
 16 17  2  0
 16  6  1  0
 15  9  1  0
 14 10  1  0
  1 18  1  0
  1 19  1  0
  1 20  1  0
  2 21  1  1
  9 22  1  1
 10 23  1  1
 11 24  1  0
 11 25  1  0
 12 26  1  0
 12 27  1  0
 13 28  1  6
 14 29  1  0
 14 30  1  0
 15 31  1  1
M  CHG  1   5  -1
M  END
>  <meeko>  (4) 
{"is_sidechain": [false], "free_energy": -4.606, "intermolecular_energy": -4.968, "internal_energy": -0.261}

$$$$
3g31_ligand
     RDKit          3D

 31 33  0  0  0  0  0  0  0  0999 V2000
   -1.7350   39.8120   28.2040 C   0  0  0  0  0  0  0  0  0  0  0  0
   -2.9550   40.0680   27.3220 C   0  0  2  0  0  0  0  0  0  0  0  0
   -3.5390   38.7500   26.7310 C   0  0  0  0  0  0  0  0  0  0  0  0
   -4.7130   38.8360   26.2630 O   0  0  0  0  0  0  0  0  0  0  0  0
   -2.7960   37.7290   26.8180 O   0  0  0  0  0  0  0  0  0  0  0  0
   -2.6900   41.1040   26.3070 N   0  0  0  0  0  0  0  0  0  0  0  0
   -1.7690   40.9250   25.3070 C   0  0  0  0  0  0  0  0  0  0  0  0
   -1.1780   39.8990   24.9950 O   0  0  0  0  0  0  0  0  0  0  0  0
   -1.6180   42.2150   24.5510 C   0  0  2  0  0  0  0  0  0  0  0  0
   -0.2430   42.9040   24.5840 C   0  0  2  0  0  0  0  0  0  0  0  0
    0.3500   42.9330   26.0030 C   0  0  0  0  0  0  0  0  0  0  0  0
   -0.5540   43.9340   26.7370 C   0  0  0  0  0  0  0  0  0  0  0  0
   -1.5630   44.3510   25.6540 C   0  0  1  0  0  0  0  0  0  0  0  0
   -0.6590   44.3720   24.4140 C   0  0  0  0  0  0  0  0  0  0  0  0
   -2.5220   43.2030   25.2910 C   0  0  2  0  0  0  0  0  0  0  0  0
   -3.1140   42.4050   26.4200 C   0  0  0  0  0  0  0  0  0  0  0  0
   -3.8790   42.8920   27.2410 O   0  0  0  0  0  0  0  0  0  0  0  0
   -2.0283   39.8735   29.2624 H   0  0  0  0  0  0  0  0  0  0  0  0
   -1.3334   38.8100   27.9925 H   0  0  0  0  0  0  0  0  0  0  0  0
   -0.9645   40.5680   27.9925 H   0  0  0  0  0  0  0  0  0  0  0  0
   -3.7480   40.4763   27.9657 H   0  0  0  0  0  0  0  0  0  0  0  0
   -1.8292   41.9697   23.4997 H   0  0  0  0  0  0  0  0  0  0  0  0
    0.4546   42.4321   23.8765 H   0  0  0  0  0  0  0  0  0  0  0  0
    0.3012   41.9391   26.4719 H   0  0  0  0  0  0  0  0  0  0  0  0
    1.4130   43.2153   26.0220 H   0  0  0  0  0  0  0  0  0  0  0  0
   -1.0624   43.4569   27.5878 H   0  0  0  0  0  0  0  0  0  0  0  0
   -0.0013   44.7840   27.1636 H   0  0  0  0  0  0  0  0  0  0  0  0
   -2.1201   45.2494   25.9581 H   0  0  0  0  0  0  0  0  0  0  0  0
   -1.2056   44.5649   23.4791 H   0  0  0  0  0  0  0  0  0  0  0  0
    0.1272   45.1385   24.3476 H   0  0  0  0  0  0  0  0  0  0  0  0
   -3.3780   43.6523   24.7662 H   0  0  0  0  0  0  0  0  0  0  0  0
  1  2  1  0
  2  3  1  0
  3  4  2  0
  3  5  1  0
  2  6  1  0
  6  7  1  0
  7  8  2  0
  7  9  1  0
  9 10  1  0
 10 11  1  0
 11 12  1  0
 12 13  1  0
 13 14  1  0
 13 15  1  0
 15 16  1  0
 16 17  2  0
 16  6  1  0
 15  9  1  0
 14 10  1  0
  1 18  1  0
  1 19  1  0
  1 20  1  0
  2 21  1  1
  9 22  1  6
 10 23  1  6
 11 24  1  0
 11 25  1  0
 12 26  1  0
 12 27  1  0
 13 28  1  1
 14 29  1  0
 14 30  1  0
 15 31  1  6
M  CHG  1   5  -1
M  END
>  <meeko>  (5) 
{"is_sidechain": [false], "free_energy": -4.563, "intermolecular_energy": -4.969, "internal_energy": -0.211}

$$$$
3g31_ligand
     RDKit          3D

 31 33  0  0  0  0  0  0  0  0999 V2000
    0.2830   38.9490   25.2390 C   0  0  0  0  0  0  0  0  0  0  0  0
   -1.2200   39.0130   24.9810 C   0  0  2  0  0  0  0  0  0  0  0  0
   -1.6460   38.1260   23.7730 C   0  0  0  0  0  0  0  0  0  0  0  0
   -0.6960   37.6150   23.1100 O   0  0  0  0  0  0  0  0  0  0  0  0
   -2.8910   38.0440   23.5610 O   0  0  0  0  0  0  0  0  0  0  0  0
   -1.7030   40.4040   24.8920 N   0  0  0  0  0  0  0  0  0  0  0  0
   -1.2900   41.2560   23.9000 C   0  0  0  0  0  0  0  0  0  0  0  0
   -0.6400   40.9920   22.8960 O   0  0  0  0  0  0  0  0  0  0  0  0
   -1.8270   42.6290   24.1870 C   0  0  2  0  0  0  0  0  0  0  0  0
   -0.8090   43.7510   24.4550 C   0  0  2  0  0  0  0  0  0  0  0  0
    0.3040   43.2980   25.4160 C   0  0  0  0  0  0  0  0  0  0  0  0
   -0.4270   43.1680   26.7600 C   0  0  0  0  0  0  0  0  0  0  0  0
   -1.8740   43.5520   26.4080 C   0  0  1  0  0  0  0  0  0  0  0  0
   -1.6320   44.6630   25.3770 C   0  0  0  0  0  0  0  0  0  0  0  0
   -2.5520   42.4870   25.5260 C   0  0  2  0  0  0  0  0  0  0  0  0
   -2.3660   41.0440   25.9090 C   0  0  0  0  0  0  0  0  0  0  0  0
   -2.8040   40.5770   26.9510 O   0  0  0  0  0  0  0  0  0  0  0  0
    0.4689   38.9411   26.3231 H   0  0  0  0  0  0  0  0  0  0  0  0
    0.6934   38.0326   24.7899 H   0  0  0  0  0  0  0  0  0  0  0  0
    0.7698   39.8272   24.7899 H   0  0  0  0  0  0  0  0  0  0  0  0
   -1.7241   38.5774   25.8563 H   0  0  0  0  0  0  0  0  0  0  0  0
   -2.3957   42.9188   23.2911 H   0  0  0  0  0  0  0  0  0  0  0  0
   -0.3851   44.1354   23.5156 H   0  0  0  0  0  0  0  0  0  0  0  0
    0.7278   42.3327   25.1022 H   0  0  0  0  0  0  0  0  0  0  0  0
    1.1540   43.9953   25.4521 H   0  0  0  0  0  0  0  0  0  0  0  0
   -0.3733   42.1374   27.1407 H   0  0  0  0  0  0  0  0  0  0  0  0
    0.0072   43.7969   27.5512 H   0  0  0  0  0  0  0  0  0  0  0  0
   -2.4629   43.7465   27.3165 H   0  0  0  0  0  0  0  0  0  0  0  0
   -2.5567   45.0340   24.9108 H   0  0  0  0  0  0  0  0  0  0  0  0
   -1.1857   45.6091   25.7171 H   0  0  0  0  0  0  0  0  0  0  0  0
   -3.6356   42.6694   25.5764 H   0  0  0  0  0  0  0  0  0  0  0  0
  1  2  1  0
  2  3  1  0
  3  4  2  0
  3  5  1  0
  2  6  1  0
  6  7  1  0
  7  8  2  0
  7  9  1  0
  9 10  1  0
 10 11  1  0
 11 12  1  0
 12 13  1  0
 13 14  1  0
 13 15  1  0
 15 16  1  0
 16 17  2  0
 16  6  1  0
 15  9  1  0
 14 10  1  0
  1 18  1  0
  1 19  1  0
  1 20  1  0
  2 21  1  1
  9 22  1  6
 10 23  1  6
 11 24  1  0
 11 25  1  0
 12 26  1  0
 12 27  1  0
 13 28  1  1
 14 29  1  0
 14 30  1  0
 15 31  1  6
M  CHG  1   5  -1
M  END
>  <meeko>  (6) 
{"is_sidechain": [false], "free_energy": -4.509, "intermolecular_energy": -4.882, "internal_energy": -0.238}

$$$$
3g31_ligand
     RDKit          3D

 31 33  0  0  0  0  0  0  0  0999 V2000
   -1.7590   40.0960   21.5400 C   0  0  0  0  0  0  0  0  0  0  0  0
   -1.1330   39.9960   22.9290 C   0  0  2  0  0  0  0  0  0  0  0  0
   -1.7540   38.8410   23.7710 C   0  0  0  0  0  0  0  0  0  0  0  0
   -1.1170   38.5280   24.8200 O   0  0  0  0  0  0  0  0  0  0  0  0
   -2.8030   38.3160   23.2980 O   0  0  0  0  0  0  0  0  0  0  0  0
   -1.1280   41.2970   23.6230 N   0  0  0  0  0  0  0  0  0  0  0  0
    0.0360   41.9560   23.9260 C   0  0  0  0  0  0  0  0  0  0  0  0
    1.1740   41.6960   23.5540 O   0  0  0  0  0  0  0  0  0  0  0  0
   -0.2910   43.1530   24.7720 C   0  0  2  0  0  0  0  0  0  0  0  0
    0.2700   43.1900   26.2040 C   0  0  2  0  0  0  0  0  0  0  0  0
    0.0900   41.8430   26.9250 C   0  0  0  0  0  0  0  0  0  0  0  0
   -1.4270   41.7690   27.1510 C   0  0  0  0  0  0  0  0  0  0  0  0
   -1.9370   43.0770   26.5240 C   0  0  1  0  0  0  0  0  0  0  0  0
   -0.8020   44.0370   26.9050 C   0  0  0  0  0  0  0  0  0  0  0  0
   -1.8030   43.0690   24.9900 C   0  0  2  0  0  0  0  0  0  0  0  0
   -2.2240   41.8230   24.2610 C   0  0  0  0  0  0  0  0  0  0  0  0
   -3.3820   41.4290   24.2430 O   0  0  0  0  0  0  0  0  0  0  0  0
   -2.8410   40.2688   21.6370 H   0  0  0  0  0  0  0  0  0  0  0  0
   -1.3018   40.9325   20.9911 H   0  0  0  0  0  0  0  0  0  0  0  0
   -1.5852   39.1587   20.9911 H   0  0  0  0  0  0  0  0  0  0  0  0
   -0.0754   39.7245   22.7960 H   0  0  0  0  0  0  0  0  0  0  0  0
    0.1327   44.0173   24.2396 H   0  0  0  0  0  0  0  0  0  0  0  0
    1.3250   43.5013   26.2091 H   0  0  0  0  0  0  0  0  0  0  0  0
    0.4368   41.0093   26.2967 H   0  0  0  0  0  0  0  0  0  0  0  0
    0.6700   41.7704   27.8568 H   0  0  0  0  0  0  0  0  0  0  0  0
   -1.8595   40.8934   26.6447 H   0  0  0  0  0  0  0  0  0  0  0  0
   -1.7016   41.6616   28.2107 H   0  0  0  0  0  0  0  0  0  0  0  0
   -2.9737   43.2831   26.8284 H   0  0  0  0  0  0  0  0  0  0  0  0
   -0.9165   45.0413   26.4712 H   0  0  0  0  0  0  0  0  0  0  0  0
   -0.6615   44.2919   27.9658 H   0  0  0  0  0  0  0  0  0  0  0  0
   -2.4509   43.8704   24.6053 H   0  0  0  0  0  0  0  0  0  0  0  0
  1  2  1  0
  2  3  1  0
  3  4  2  0
  3  5  1  0
  2  6  1  0
  6  7  1  0
  7  8  2  0
  7  9  1  0
  9 10  1  0
 10 11  1  0
 11 12  1  0
 12 13  1  0
 13 14  1  0
 13 15  1  0
 15 16  1  0
 16 17  2  0
 16  6  1  0
 15  9  1  0
 14 10  1  0
  1 18  1  0
  1 19  1  0
  1 20  1  0
  2 21  1  6
  9 22  1  6
 10 23  1  6
 11 24  1  0
 11 25  1  0
 12 26  1  0
 12 27  1  0
 13 28  1  6
 14 29  1  0
 14 30  1  0
 15 31  1  6
M  CHG  1   5  -1
M  END
>  <meeko>  (7) 
{"is_sidechain": [false], "free_energy": -4.5, "intermolecular_energy": -4.915, "internal_energy": -0.195}

$$$$
3g31_ligand
     RDKit          3D

 31 33  0  0  0  0  0  0  0  0999 V2000
    3.0950   39.9640   25.6080 C   0  0  0  0  0  0  0  0  0  0  0  0
    1.6720   40.1270   26.1370 C   0  0  2  0  0  0  0  0  0  0  0  0
    0.7380   38.9670   25.6770 C   0  0  0  0  0  0  0  0  0  0  0  0
    1.2190   38.1980   24.7940 O   0  0  0  0  0  0  0  0  0  0  0  0
   -0.4110   38.9420   26.2060 O   0  0  0  0  0  0  0  0  0  0  0  0
    1.1310   41.4690   25.8510 N   0  0  0  0  0  0  0  0  0  0  0  0
    0.6050   42.2670   26.8350 C   0  0  0  0  0  0  0  0  0  0  0  0
    0.6450   42.1010   28.0480 O   0  0  0  0  0  0  0  0  0  0  0  0
   -0.0060   43.4820   26.1980 C   0  0  2  0  0  0  0  0  0  0  0  0
   -1.5230   43.6830   26.3540 C   0  0  2  0  0  0  0  0  0  0  0  0
   -2.3020   42.3810   26.1000 C   0  0  0  0  0  0  0  0  0  0  0  0
   -2.1380   42.1650   24.5890 C   0  0  0  0  0  0  0  0  0  0  0  0
   -1.2750   43.3630   24.1580 C   0  0  1  0  0  0  0  0  0  0  0  0
   -1.8380   44.4620   25.0690 C   0  0  0  0  0  0  0  0  0  0  0  0
    0.1640   43.2560   24.6950 C   0  0  2  0  0  0  0  0  0  0  0  0
    0.8510   41.9230   24.5860 C   0  0  0  0  0  0  0  0  0  0  0  0
    1.1280   41.4100   23.5110 O   0  0  0  0  0  0  0  0  0  0  0  0
    3.7937   39.8840   26.4538 H   0  0  0  0  0  0  0  0  0  0  0  0
    3.1560   39.0530   24.9945 H   0  0  0  0  0  0  0  0  0  0  0  0
    3.3604   40.8376   24.9945 H   0  0  0  0  0  0  0  0  0  0  0  0
    1.7167   40.0497   27.2334 H   0  0  0  0  0  0  0  0  0  0  0  0
    0.4827   44.3443   26.6752 H   0  0  0  0  0  0  0  0  0  0  0  0
   -1.7686   44.1029   27.3406 H   0  0  0  0  0  0  0  0  0  0  0  0
   -1.8684   41.5445   26.6677 H   0  0  0  0  0  0  0  0  0  0  0  0
   -3.3539   42.4382   26.4165 H   0  0  0  0  0  0  0  0  0  0  0  0
   -1.6267   41.2140   24.3791 H   0  0  0  0  0  0  0  0  0  0  0  0
   -3.0971   42.1076   24.0534 H   0  0  0  0  0  0  0  0  0  0  0  0
   -1.2809   43.4812   23.0644 H   0  0  0  0  0  0  0  0  0  0  0  0
   -1.2924   45.4140   24.9917 H   0  0  0  0  0  0  0  0  0  0  0  0
   -2.8689   44.8076   24.9020 H   0  0  0  0  0  0  0  0  0  0  0  0
    0.7788   43.9548   24.1088 H   0  0  0  0  0  0  0  0  0  0  0  0
  1  2  1  0
  2  3  1  0
  3  4  2  0
  3  5  1  0
  2  6  1  0
  6  7  1  0
  7  8  2  0
  7  9  1  0
  9 10  1  0
 10 11  1  0
 11 12  1  0
 12 13  1  0
 13 14  1  0
 13 15  1  0
 15 16  1  0
 16 17  2  0
 16  6  1  0
 15  9  1  0
 14 10  1  0
  1 18  1  0
  1 19  1  0
  1 20  1  0
  2 21  1  1
  9 22  1  1
 10 23  1  1
 11 24  1  0
 11 25  1  0
 12 26  1  0
 12 27  1  0
 13 28  1  6
 14 29  1  0
 14 30  1  0
 15 31  1  6
M  CHG  1   5  -1
M  END
>  <meeko>  (8) 
{"is_sidechain": [false], "free_energy": -4.376, "intermolecular_energy": -4.717, "internal_energy": -0.254}

$$$$
3g31_ligand
     RDKit          3D

 31 33  0  0  0  0  0  0  0  0999 V2000
    3.1530   42.0100   27.8760 C   0  0  0  0  0  0  0  0  0  0  0  0
    2.2830   41.9360   26.6230 C   0  0  2  0  0  0  0  0  0  0  0  0
    2.6980   42.9920   25.5560 C   0  0  0  0  0  0  0  0  0  0  0  0
    3.4620   43.9140   25.9700 O   0  0  0  0  0  0  0  0  0  0  0  0
    2.1970   42.8390   24.4040 O   0  0  0  0  0  0  0  0  0  0  0  0
    0.8450   41.9610   26.9510 N   0  0  0  0  0  0  0  0  0  0  0  0
   -0.0350   41.0440   26.4370 C   0  0  0  0  0  0  0  0  0  0  0  0
    0.2150   40.0220   25.8100 O   0  0  0  0  0  0  0  0  0  0  0  0
   -1.4310   41.4420   26.8250 C   0  0  2  0  0  0  0  0  0  0  0  0
   -2.4090   41.8040   25.6940 C   0  0  2  0  0  0  0  0  0  0  0  0
   -1.7600   42.7250   24.6480 C   0  0  0  0  0  0  0  0  0  0  0  0
   -1.6010   44.0530   25.4030 C   0  0  0  0  0  0  0  0  0  0  0  0
   -2.1690   43.7310   26.7960 C   0  0  1  0  0  0  0  0  0  0  0  0
   -3.3270   42.7960   26.4230 C   0  0  0  0  0  0  0  0  0  0  0  0
   -1.2590   42.7640   27.5760 C   0  0  2  0  0  0  0  0  0  0  0  0
    0.2210   43.0260   27.5510 C   0  0  0  0  0  0  0  0  0  0  0  0
    0.7220   44.0250   28.0490 O   0  0  0  0  0  0  0  0  0  0  0  0
    2.5141   41.9557   28.7698 H   0  0  0  0  0  0  0  0  0  0  0  0
    3.8619   41.1689   27.8804 H   0  0  0  0  0  0  0  0  0  0  0  0
    3.7097   42.9587   27.8804 H   0  0  0  0  0  0  0  0  0  0  0  0
    2.4654   40.9585   26.1526 H   0  0  0  0  0  0  0  0  0  0  0  0
   -1.8540   40.5722   27.3489 H   0  0  0  0  0  0  0  0  0  0  0  0
   -2.8206   40.9006   25.2202 H   0  0  0  0  0  0  0  0  0  0  0  0
   -0.7831   42.3330   24.3287 H   0  0  0  0  0  0  0  0  0  0  0  0
   -2.3546   42.8198   23.7274 H   0  0  0  0  0  0  0  0  0  0  0  0
   -0.5430   44.3474   25.4661 H   0  0  0  0  0  0  0  0  0  0  0  0
   -2.1113   44.8943   24.9113 H   0  0  0  0  0  0  0  0  0  0  0  0
   -2.3528   44.6509   27.3705 H   0  0  0  0  0  0  0  0  0  0  0  0
   -3.8338   42.3599   27.2965 H   0  0  0  0  0  0  0  0  0  0  0  0
   -4.1876   43.2140   25.8802 H   0  0  0  0  0  0  0  0  0  0  0  0
   -1.5525   42.8285   28.6342 H   0  0  0  0  0  0  0  0  0  0  0  0
  1  2  1  0
  2  3  1  0
  3  4  2  0
  3  5  1  0
  2  6  1  0
  6  7  1  0
  7  8  2  0
  7  9  1  0
  9 10  1  0
 10 11  1  0
 11 12  1  0
 12 13  1  0
 13 14  1  0
 13 15  1  0
 15 16  1  0
 16 17  2  0
 16  6  1  0
 15  9  1  0
 14 10  1  0
  1 18  1  0
  1 19  1  0
  1 20  1  0
  2 21  1  6
  9 22  1  1
 10 23  1  6
 11 24  1  0
 11 25  1  0
 12 26  1  0
 12 27  1  0
 13 28  1  1
 14 29  1  0
 14 30  1  0
 15 31  1  1
M  CHG  1   5  -1
M  END
>  <meeko>  (9) 
{"is_sidechain": [false], "free_energy": -4.284, "intermolecular_energy": -4.635, "internal_energy": -0.234}

$$$$
