2wnc_ligand
     RDKit          3D

 42 45  0  0  0  0  0  0  0  0999 V2000
  -69.7910  -44.7720  -73.7110 C   0  0  0  0  0  0  0  0  0  0  0  0
  -70.7700  -45.8960  -73.9120 N   0  0  2  0  0  0  0  0  0  0  0  0
  -71.6500  -46.1930  -72.7120 C   0  0  2  0  0  0  0  0  0  0  0  0
  -70.7260  -47.0130  -71.8070 C   0  0  0  0  0  0  0  0  0  0  0  0
  -69.7510  -47.7130  -72.7480 C   0  0  0  0  0  0  0  0  0  0  0  0
  -70.1350  -47.2500  -74.1570 C   0  0  1  0  0  0  0  0  0  0  0  0
  -71.1920  -48.1710  -74.7810 C   0  0  0  0  0  0  0  0  0  0  0  0
  -72.6410  -47.7260  -74.5290 C   0  0  1  0  0  0  0  0  0  0  0  0
  -73.5370  -48.8460  -74.5980 O   0  0  0  0  0  0  0  0  0  0  0  0
  -73.2440  -49.7810  -75.5590 C   0  0  0  0  0  0  0  0  0  0  0  0
  -73.0860  -49.4910  -76.7400 O   0  0  0  0  0  0  0  0  0  0  0  0
  -73.1370  -51.1290  -75.0220 C   0  0  0  0  0  0  0  0  0  0  0  0
  -73.4110  -52.3050  -75.7020 C   0  0  0  0  0  0  0  0  0  0  0  0
  -73.1910  -53.3600  -74.8570 N   0  0  0  0  0  0  0  0  0  0  0  0
  -72.7780  -52.9030  -73.6280 C   0  0  0  0  0  0  0  0  0  0  0  0
  -72.4430  -53.6170  -72.4710 C   0  0  0  0  0  0  0  0  0  0  0  0
  -72.0480  -52.8850  -71.3480 C   0  0  0  0  0  0  0  0  0  0  0  0
  -71.9920  -51.4950  -71.3830 C   0  0  0  0  0  0  0  0  0  0  0  0
  -72.3300  -50.7960  -72.5480 C   0  0  0  0  0  0  0  0  0  0  0  0
  -72.7320  -51.5090  -73.6990 C   0  0  0  0  0  0  0  0  0  0  0  0
  -72.8510  -47.0240  -73.1820 C   0  0  0  0  0  0  0  0  0  0  0  0
  -69.6434  -44.6025  -72.6342 H   0  0  0  0  0  0  0  0  0  0  0  0
  -68.8296  -45.0356  -74.1759 H   0  0  0  0  0  0  0  0  0  0  0  0
  -70.1841  -43.8558  -74.1759 H   0  0  0  0  0  0  0  0  0  0  0  0
  -71.3360  -45.6070  -74.7220 H   0  0  0  0  0  0  0  0  0  0  0  0
  -72.0533  -45.3055  -72.2023 H   0  0  0  0  0  0  0  0  0  0  0  0
  -70.1842  -46.3541  -71.1125 H   0  0  0  0  0  0  0  0  0  0  0  0
  -71.2885  -47.7320  -71.1933 H   0  0  0  0  0  0  0  0  0  0  0  0
  -68.7163  -47.4203  -72.5162 H   0  0  0  0  0  0  0  0  0  0  0  0
  -69.8050  -48.8073  -72.6500 H   0  0  0  0  0  0  0  0  0  0  0  0
  -69.2707  -47.2410  -74.8374 H   0  0  0  0  0  0  0  0  0  0  0  0
  -71.0245  -48.2022  -75.8677 H   0  0  0  0  0  0  0  0  0  0  0  0
  -71.0756  -49.1554  -74.3041 H   0  0  0  0  0  0  0  0  0  0  0  0
  -72.8580  -46.9967  -75.3234 H   0  0  0  0  0  0  0  0  0  0  0  0
  -73.7488  -52.3788  -76.7462 H   0  0  0  0  0  0  0  0  0  0  0  0
  -73.3110  -54.3370  -75.0910 H   0  0  0  0  0  0  0  0  0  0  0  0
  -72.4891  -54.7158  -72.4469 H   0  0  0  0  0  0  0  0  0  0  0  0
  -71.7774  -53.4153  -70.4230 H   0  0  0  0  0  0  0  0  0  0  0  0
  -71.6790  -50.9399  -70.4864 H   0  0  0  0  0  0  0  0  0  0  0  0
  -72.2827  -49.6972  -72.5668 H   0  0  0  0  0  0  0  0  0  0  0  0
  -73.7191  -46.3546  -73.2735 H   0  0  0  0  0  0  0  0  0  0  0  0
  -73.0003  -47.8155  -72.4329 H   0  0  0  0  0  0  0  0  0  0  0  0
  1  2  1  0
  2  3  1  0
  3  4  1  0
  4  5  1  0
  5  6  1  0
  6  7  1  0
  7  8  1  0
  8  9  1  0
  9 10  1  0
 10 11  2  0
 10 12  1  0
 12 13  2  0
 13 14  1  0
 14 15  1  0
 15 16  2  0
 16 17  1  0
 17 18  2  0
 18 19  1  0
 19 20  2  0
  8 21  1  0
  6  2  1  0
 20 12  1  0
 21  3  1  0
 20 15  1  0
  1 22  1  0
  1 23  1  0
  1 24  1  0
  2 25  1  6
  3 26  1  1
  4 27  1  0
  4 28  1  0
  5 29  1  0
  5 30  1  0
  6 31  1  6
  7 32  1  0
  7 33  1  0
  8 34  1  6
 13 35  1  0
 14 36  1  0
 16 37  1  0
 17 38  1  0
 18 39  1  0
 19 40  1  0
 21 41  1  0
 21 42  1  0
M  CHG  1   2   1
M  END
>  <meeko>  (1) 
{"is_sidechain": [false], "free_energy": -8.535, "intermolecular_energy": -10.032, "internal_energy": -0.417}

$$$$
2wnc_ligand
     RDKit          3D

 42 45  0  0  0  0  0  0  0  0999 V2000
  -73.6090  -50.0880  -79.2340 C   0  0  0  0  0  0  0  0  0  0  0  0
  -73.4900  -49.7500  -77.7730 N   0  0  2  0  0  0  0  0  0  0  0  0
  -73.7350  -50.9130  -76.8300 C   0  0  2  0  0  0  0  0  0  0  0  0
  -75.2630  -51.0070  -76.7970 C   0  0  0  0  0  0  0  0  0  0  0  0
  -75.7640  -49.5930  -77.0690 C   0  0  0  0  0  0  0  0  0  0  0  0
  -74.5060  -48.7420  -77.2730 C   0  0  1  0  0  0  0  0  0  0  0  0
  -73.9980  -48.1650  -75.9460 C   0  0  0  0  0  0  0  0  0  0  0  0
  -72.9620  -49.0470  -75.2320 C   0  0  1  0  0  0  0  0  0  0  0  0
  -72.9650  -48.7930  -73.8180 O   0  0  0  0  0  0  0  0  0  0  0  0
  -71.8660  -48.1300  -73.3320 C   0  0  0  0  0  0  0  0  0  0  0  0
  -71.6730  -46.9350  -73.5280 O   0  0  0  0  0  0  0  0  0  0  0  0
  -70.9800  -48.9920  -72.5650 C   0  0  0  0  0  0  0  0  0  0  0  0
  -69.6710  -48.7090  -72.2070 C   0  0  0  0  0  0  0  0  0  0  0  0
  -69.1760  -49.7670  -71.4920 N   0  0  0  0  0  0  0  0  0  0  0  0
  -70.1320  -50.7460  -71.3720 C   0  0  0  0  0  0  0  0  0  0  0  0
  -70.0680  -51.9900  -70.7310 C   0  0  0  0  0  0  0  0  0  0  0  0
  -71.2090  -52.7960  -70.7650 C   0  0  0  0  0  0  0  0  0  0  0  0
  -72.3650  -52.3760  -71.4150 C   0  0  0  0  0  0  0  0  0  0  0  0
  -72.4120  -51.1290  -72.0510 C   0  0  0  0  0  0  0  0  0  0  0  0
  -71.2750  -50.2920  -72.0330 C   0  0  0  0  0  0  0  0  0  0  0  0
  -73.1680  -50.5510  -75.4510 C   0  0  0  0  0  0  0  0  0  0  0  0
  -73.9725  -51.1205  -79.3431 H   0  0  0  0  0  0  0  0  0  0  0  0
  -74.3179  -49.3971  -79.7136 H   0  0  0  0  0  0  0  0  0  0  0  0
  -72.6236  -49.9936  -79.7136 H   0  0  0  0  0  0  0  0  0  0  0  0
  -72.5330  -49.3840  -77.6680 H   0  0  0  0  0  0  0  0  0  0  0  0
  -73.2648  -51.8608  -77.1309 H   0  0  0  0  0  0  0  0  0  0  0  0
  -75.6225  -51.6983  -77.5735 H   0  0  0  0  0  0  0  0  0  0  0  0
  -75.6275  -51.3907  -75.8327 H   0  0  0  0  0  0  0  0  0  0  0  0
  -76.3905  -49.5749  -77.9730 H   0  0  0  0  0  0  0  0  0  0  0  0
  -76.3819  -49.2140  -76.2416 H   0  0  0  0  0  0  0  0  0  0  0  0
  -74.6879  -47.8916  -77.9467 H   0  0  0  0  0  0  0  0  0  0  0  0
  -73.5374  -47.1869  -76.1488 H   0  0  0  0  0  0  0  0  0  0  0  0
  -74.8687  -48.0952  -75.2774 H   0  0  0  0  0  0  0  0  0  0  0  0
  -71.9959  -48.7731  -75.6811 H   0  0  0  0  0  0  0  0  0  0  0  0
  -69.1219  -47.7888  -72.4556 H   0  0  0  0  0  0  0  0  0  0  0  0
  -68.2440  -49.8290  -71.1030 H   0  0  0  0  0  0  0  0  0  0  0  0
  -69.1522  -52.3206  -70.2191 H   0  0  0  0  0  0  0  0  0  0  0  0
  -71.1928  -53.7782  -70.2699 H   0  0  0  0  0  0  0  0  0  0  0  0
  -73.2500  -53.0291  -71.4296 H   0  0  0  0  0  0  0  0  0  0  0  0
  -73.3301  -50.8034  -72.5620 H   0  0  0  0  0  0  0  0  0  0  0  0
  -72.1962  -51.0530  -75.3348 H   0  0  0  0  0  0  0  0  0  0  0  0
  -73.9089  -50.8805  -74.7077 H   0  0  0  0  0  0  0  0  0  0  0  0
  1  2  1  0
  2  3  1  0
  3  4  1  0
  4  5  1  0
  5  6  1  0
  6  7  1  0
  7  8  1  0
  8  9  1  0
  9 10  1  0
 10 11  2  0
 10 12  1  0
 12 13  2  0
 13 14  1  0
 14 15  1  0
 15 16  2  0
 16 17  1  0
 17 18  2  0
 18 19  1  0
 19 20  2  0
  8 21  1  0
  6  2  1  0
 20 12  1  0
 21  3  1  0
 20 15  1  0
  1 22  1  0
  1 23  1  0
  1 24  1  0
  2 25  1  6
  3 26  1  6
  4 27  1  0
  4 28  1  0
  5 29  1  0
  5 30  1  0
  6 31  1  6
  7 32  1  0
  7 33  1  0
  8 34  1  6
 13 35  1  0
 14 36  1  0
 16 37  1  0
 17 38  1  0
 18 39  1  0
 19 40  1  0
 21 41  1  0
 21 42  1  0
M  CHG  1   2   1
M  END
>  <meeko>  (2) 
{"is_sidechain": [false], "free_energy": -8.353, "intermolecular_energy": -9.884, "internal_energy": -0.351}

$$$$
2wnc_ligand
     RDKit          3D

 42 45  0  0  0  0  0  0  0  0999 V2000
  -73.5050  -50.1580  -79.2780 C   0  0  0  0  0  0  0  0  0  0  0  0
  -73.4500  -49.8760  -77.8010 N   0  0  2  0  0  0  0  0  0  0  0  0
  -73.9690  -50.9970  -76.9220 C   0  0  2  0  0  0  0  0  0  0  0  0
  -75.4880  -50.8230  -77.0090 C   0  0  0  0  0  0  0  0  0  0  0  0
  -75.7130  -49.3370  -77.2710 C   0  0  0  0  0  0  0  0  0  0  0  0
  -74.3150  -48.7160  -77.3480 C   0  0  1  0  0  0  0  0  0  0  0  0
  -73.8250  -48.2640  -75.9660 C   0  0  0  0  0  0  0  0  0  0  0  0
  -73.0200  -49.3290  -75.2040 C   0  0  1  0  0  0  0  0  0  0  0  0
  -73.0950  -49.1070  -73.7870 O   0  0  0  0  0  0  0  0  0  0  0  0
  -72.2060  -49.8240  -73.0270 C   0  0  0  0  0  0  0  0  0  0  0  0
  -72.3130  -51.0320  -72.8430 O   0  0  0  0  0  0  0  0  0  0  0  0
  -71.1360  -49.0020  -72.4820 C   0  0  0  0  0  0  0  0  0  0  0  0
  -70.0210  -49.4570  -71.7960 C   0  0  0  0  0  0  0  0  0  0  0  0
  -69.2520  -48.3790  -71.4480 N   0  0  0  0  0  0  0  0  0  0  0  0
  -69.8390  -47.2170  -71.8880 C   0  0  0  0  0  0  0  0  0  0  0  0
  -69.4120  -45.8900  -71.7580 C   0  0  0  0  0  0  0  0  0  0  0  0
  -70.2170  -44.8910  -72.3130 C   0  0  0  0  0  0  0  0  0  0  0  0
  -71.4010  -45.2090  -72.9700 C   0  0  0  0  0  0  0  0  0  0  0  0
  -71.8140  -46.5410  -73.0920 C   0  0  0  0  0  0  0  0  0  0  0  0
  -71.0210  -47.5720  -72.5420 C   0  0  0  0  0  0  0  0  0  0  0  0
  -73.4640  -50.7680  -75.4900 C   0  0  0  0  0  0  0  0  0  0  0  0
  -73.7133  -51.2259  -79.4399 H   0  0  0  0  0  0  0  0  0  0  0  0
  -74.3025  -49.5552  -79.7369 H   0  0  0  0  0  0  0  0  0  0  0  0
  -72.5394  -49.8991  -79.7369 H   0  0  0  0  0  0  0  0  0  0  0  0
  -72.4560  -49.6860  -77.6100 H   0  0  0  0  0  0  0  0  0  0  0  0
  -73.6462  -52.0055  -77.2198 H   0  0  0  0  0  0  0  0  0  0  0  0
  -75.8974  -51.4252  -77.8335 H   0  0  0  0  0  0  0  0  0  0  0  0
  -75.9906  -51.1561  -76.0890 H   0  0  0  0  0  0  0  0  0  0  0  0
  -76.2506  -49.1914  -78.2196 H   0  0  0  0  0  0  0  0  0  0  0  0
  -76.3219  -48.8722  -76.4816 H   0  0  0  0  0  0  0  0  0  0  0  0
  -74.2919  -47.8339  -78.0048 H   0  0  0  0  0  0  0  0  0  0  0  0
  -73.1863  -47.3784  -76.0990 H   0  0  0  0  0  0  0  0  0  0  0  0
  -74.7223  -48.0556  -75.3648 H   0  0  0  0  0  0  0  0  0  0  0  0
  -71.9874  -49.2200  -75.5670 H   0  0  0  0  0  0  0  0  0  0  0  0
  -69.7921  -50.5087  -71.5690 H   0  0  0  0  0  0  0  0  0  0  0  0
  -68.3780  -48.4190  -70.9410 H   0  0  0  0  0  0  0  0  0  0  0  0
  -68.4754  -45.6421  -71.2371 H   0  0  0  0  0  0  0  0  0  0  0  0
  -69.9097  -43.8382  -72.2289 H   0  0  0  0  0  0  0  0  0  0  0  0
  -72.0190  -44.4059  -73.3980 H   0  0  0  0  0  0  0  0  0  0  0  0
  -72.7516  -46.7834  -73.6137 H   0  0  0  0  0  0  0  0  0  0  0  0
  -72.6067  -51.4349  -75.3155 H   0  0  0  0  0  0  0  0  0  0  0  0
  -74.3098  -50.9776  -74.8187 H   0  0  0  0  0  0  0  0  0  0  0  0
  1  2  1  0
  2  3  1  0
  3  4  1  0
  4  5  1  0
  5  6  1  0
  6  7  1  0
  7  8  1  0
  8  9  1  0
  9 10  1  0
 10 11  2  0
 10 12  1  0
 12 13  2  0
 13 14  1  0
 14 15  1  0
 15 16  2  0
 16 17  1  0
 17 18  2  0
 18 19  1  0
 19 20  2  0
  8 21  1  0
  6  2  1  0
 20 12  1  0
 21  3  1  0
 20 15  1  0
  1 22  1  0
  1 23  1  0
  1 24  1  0
  2 25  1  1
  3 26  1  6
  4 27  1  0
  4 28  1  0
  5 29  1  0
  5 30  1  0
  6 31  1  6
  7 32  1  0
  7 33  1  0
  8 34  1  6
 13 35  1  0
 14 36  1  0
 16 37  1  0
 17 38  1  0
 18 39  1  0
 19 40  1  0
 21 41  1  0
 21 42  1  0
M  CHG  1   2   1
M  END
>  <meeko>  (3) 
{"is_sidechain": [false], "free_energy": -7.792, "intermolecular_energy": -9.706, "internal_energy": 0.131}

$$$$
2wnc_ligand
     RDKit          3D

 42 45  0  0  0  0  0  0  0  0999 V2000
  -73.5690  -49.9130  -79.1610 C   0  0  0  0  0  0  0  0  0  0  0  0
  -73.4550  -49.7430  -77.6710 N   0  0  2  0  0  0  0  0  0  0  0  0
  -73.8660  -50.9580  -76.8610 C   0  0  2  0  0  0  0  0  0  0  0  0
  -75.3950  -50.8680  -76.8650 C   0  0  0  0  0  0  0  0  0  0  0  0
  -75.7150  -49.3830  -76.9960 C   0  0  0  0  0  0  0  0  0  0  0  0
  -74.3590  -48.6750  -77.0870 C   0  0  1  0  0  0  0  0  0  0  0  0
  -73.8270  -48.3020  -75.6970 C   0  0  0  0  0  0  0  0  0  0  0  0
  -72.9260  -49.3730  -75.0610 C   0  0  1  0  0  0  0  0  0  0  0  0
  -72.9420  -49.2660  -73.6290 O   0  0  0  0  0  0  0  0  0  0  0  0
  -71.7130  -49.2940  -73.0180 C   0  0  0  0  0  0  0  0  0  0  0  0
  -70.8770  -48.4100  -73.1690 O   0  0  0  0  0  0  0  0  0  0  0  0
  -71.5260  -50.4690  -72.1800 C   0  0  0  0  0  0  0  0  0  0  0  0
  -72.4990  -51.3960  -71.8410 C   0  0  0  0  0  0  0  0  0  0  0  0
  -71.9310  -52.3510  -71.0400 N   0  0  0  0  0  0  0  0  0  0  0  0
  -70.6010  -52.0720  -70.8410 C   0  0  0  0  0  0  0  0  0  0  0  0
  -69.6390  -52.7680  -70.0980 C   0  0  0  0  0  0  0  0  0  0  0  0
  -68.3410  -52.2500  -70.0700 C   0  0  0  0  0  0  0  0  0  0  0  0
  -68.0200  -51.0840  -70.7580 C   0  0  0  0  0  0  0  0  0  0  0  0
  -68.9940  -50.4000  -71.4960 C   0  0  0  0  0  0  0  0  0  0  0  0
  -70.3140  -50.9000  -71.5430 C   0  0  0  0  0  0  0  0  0  0  0  0
  -73.3030  -50.8100  -75.4400 C   0  0  0  0  0  0  0  0  0  0  0  0
  -74.1690  -50.8078  -79.3831 H   0  0  0  0  0  0  0  0  0  0  0  0
  -74.0566  -49.0276  -79.5948 H   0  0  0  0  0  0  0  0  0  0  0  0
  -72.5647  -50.0280  -79.5948 H   0  0  0  0  0  0  0  0  0  0  0  0
  -72.4650  -49.5090  -77.5110 H   0  0  0  0  0  0  0  0  0  0  0  0
  -73.5031  -51.9199  -77.2522 H   0  0  0  0  0  0  0  0  0  0  0  0
  -75.8109  -51.4275  -77.7159 H   0  0  0  0  0  0  0  0  0  0  0  0
  -75.8318  -51.3008  -75.9529 H   0  0  0  0  0  0  0  0  0  0  0  0
  -76.3071  -49.1966  -77.9041 H   0  0  0  0  0  0  0  0  0  0  0  0
  -76.3081  -49.0181  -76.1445 H   0  0  0  0  0  0  0  0  0  0  0  0
  -74.4175  -47.7449  -77.6714 H   0  0  0  0  0  0  0  0  0  0  0  0
  -73.2468  -47.3719  -75.7875 H   0  0  0  0  0  0  0  0  0  0  0  0
  -74.7032  -48.1944  -75.0407 H   0  0  0  0  0  0  0  0  0  0  0  0
  -71.9209  -49.1750  -75.4618 H   0  0  0  0  0  0  0  0  0  0  0  0
  -73.5509  -51.3693  -72.1615 H   0  0  0  0  0  0  0  0  0  0  0  0
  -72.4110  -53.1500  -70.6470 H   0  0  0  0  0  0  0  0  0  0  0  0
  -69.8959  -53.6898  -69.5556 H   0  0  0  0  0  0  0  0  0  0  0  0
  -67.5617  -52.7720  -69.4954 H   0  0  0  0  0  0  0  0  0  0  0  0
  -66.9914  -50.6958  -70.7219 H   0  0  0  0  0  0  0  0  0  0  0  0
  -68.7323  -49.4782  -72.0362 H   0  0  0  0  0  0  0  0  0  0  0  0
  -72.4022  -51.4361  -75.3587 H   0  0  0  0  0  0  0  0  0  0  0  0
  -74.1009  -51.1206  -74.7494 H   0  0  0  0  0  0  0  0  0  0  0  0
  1  2  1  0
  2  3  1  0
  3  4  1  0
  4  5  1  0
  5  6  1  0
  6  7  1  0
  7  8  1  0
  8  9  1  0
  9 10  1  0
 10 11  2  0
 10 12  1  0
 12 13  2  0
 13 14  1  0
 14 15  1  0
 15 16  2  0
 16 17  1  0
 17 18  2  0
 18 19  1  0
 19 20  2  0
  8 21  1  0
  6  2  1  0
 20 12  1  0
 21  3  1  0
 20 15  1  0
  1 22  1  0
  1 23  1  0
  1 24  1  0
  2 25  1  6
  3 26  1  6
  4 27  1  0
  4 28  1  0
  5 29  1  0
  5 30  1  0
  6 31  1  6
  7 32  1  0
  7 33  1  0
  8 34  1  6
 13 35  1  0
 14 36  1  0
 16 37  1  0
 17 38  1  0
 18 39  1  0
 19 40  1  0
 21 41  1  0
 21 42  1  0
M  CHG  1   2   1
M  END
>  <meeko>  (4) 
{"is_sidechain": [false], "free_energy": -7.724, "intermolecular_energy": -9.101, "internal_energy": -0.395}

$$$$
2wnc_ligand
     RDKit          3D

 42 45  0  0  0  0  0  0  0  0999 V2000
  -70.7530  -44.3780  -73.6070 C   0  0  0  0  0  0  0  0  0  0  0  0
  -71.4010  -45.7150  -73.3780 N   0  0  2  0  0  0  0  0  0  0  0  0
  -71.0340  -46.3820  -72.0660 C   0  0  2  0  0  0  0  0  0  0  0  0
  -69.6540  -46.9780  -72.3610 C   0  0  0  0  0  0  0  0  0  0  0  0
  -69.6430  -47.2550  -73.8610 C   0  0  0  0  0  0  0  0  0  0  0  0
  -71.0080  -46.7860  -74.3770 C   0  0  1  0  0  0  0  0  0  0  0  0
  -72.0500  -47.9110  -74.3100 C   0  0  0  0  0  0  0  0  0  0  0  0
  -72.8540  -47.9460  -73.0010 C   0  0  1  0  0  0  0  0  0  0  0  0
  -73.3500  -49.2700  -72.7440 O   0  0  0  0  0  0  0  0  0  0  0  0
  -72.5970  -50.2950  -73.2600 C   0  0  0  0  0  0  0  0  0  0  0  0
  -72.3960  -50.4300  -74.4620 O   0  0  0  0  0  0  0  0  0  0  0  0
  -72.0690  -51.1800  -72.2330 C   0  0  0  0  0  0  0  0  0  0  0  0
  -72.7400  -52.2380  -71.6400 C   0  0  0  0  0  0  0  0  0  0  0  0
  -71.9080  -52.8250  -70.7250 N   0  0  0  0  0  0  0  0  0  0  0  0
  -70.6980  -52.1740  -70.7000 C   0  0  0  0  0  0  0  0  0  0  0  0
  -69.5590  -52.4260  -69.9250 C   0  0  0  0  0  0  0  0  0  0  0  0
  -68.4510  -51.5940  -70.1110 C   0  0  0  0  0  0  0  0  0  0  0  0
  -68.4830  -50.5530  -71.0340 C   0  0  0  0  0  0  0  0  0  0  0  0
  -69.6300  -50.3150  -71.8000 C   0  0  0  0  0  0  0  0  0  0  0  0
  -70.7650  -51.1390  -71.6350 C   0  0  0  0  0  0  0  0  0  0  0  0
  -72.0640  -47.4810  -71.7720 C   0  0  0  0  0  0  0  0  0  0  0  0
  -70.5260  -43.9097  -72.6379 H   0  0  0  0  0  0  0  0  0  0  0  0
  -69.8212  -44.5147  -74.1754 H   0  0  0  0  0  0  0  0  0  0  0  0
  -71.4376  -43.7313  -74.1754 H   0  0  0  0  0  0  0  0  0  0  0  0
  -72.4120  -45.5260  -73.4260 H   0  0  0  0  0  0  0  0  0  0  0  0
  -71.0217  -45.7118  -71.1939 H   0  0  0  0  0  0  0  0  0  0  0  0
  -68.8615  -46.2626  -72.0962 H   0  0  0  0  0  0  0  0  0  0  0  0
  -69.4697  -47.8909  -71.7757 H   0  0  0  0  0  0  0  0  0  0  0  0
  -68.8339  -46.6922  -74.3494 H   0  0  0  0  0  0  0  0  0  0  0  0
  -69.4702  -48.3197  -74.0770 H   0  0  0  0  0  0  0  0  0  0  0  0
  -70.9602  -46.4509  -75.4236 H   0  0  0  0  0  0  0  0  0  0  0  0
  -72.7545  -47.7791  -75.1444 H   0  0  0  0  0  0  0  0  0  0  0  0
  -71.4959  -48.8596  -74.3668 H   0  0  0  0  0  0  0  0  0  0  0  0
  -73.6804  -47.2364  -73.1542 H   0  0  0  0  0  0  0  0  0  0  0  0
  -73.7692  -52.5533  -71.8668 H   0  0  0  0  0  0  0  0  0  0  0  0
  -72.1380  -53.6220  -70.1460 H   0  0  0  0  0  0  0  0  0  0  0  0
  -69.5370  -53.2493  -69.1959 H   0  0  0  0  0  0  0  0  0  0  0  0
  -67.5400  -51.7648  -69.5187 H   0  0  0  0  0  0  0  0  0  0  0  0
  -67.5988  -49.9114  -71.1627 H   0  0  0  0  0  0  0  0  0  0  0  0
  -69.6473  -49.4899  -72.5272 H   0  0  0  0  0  0  0  0  0  0  0  0
  -72.7774  -47.0954  -71.0288 H   0  0  0  0  0  0  0  0  0  0  0  0
  -71.5009  -48.3535  -71.4091 H   0  0  0  0  0  0  0  0  0  0  0  0
  1  2  1  0
  2  3  1  0
  3  4  1  0
  4  5  1  0
  5  6  1  0
  6  7  1  0
  7  8  1  0
  8  9  1  0
  9 10  1  0
 10 11  2  0
 10 12  1  0
 12 13  2  0
 13 14  1  0
 14 15  1  0
 15 16  2  0
 16 17  1  0
 17 18  2  0
 18 19  1  0
 19 20  2  0
  8 21  1  0
  6  2  1  0
 20 12  1  0
 21  3  1  0
 20 15  1  0
  1 22  1  0
  1 23  1  0
  1 24  1  0
  2 25  1  1
  3 26  1  1
  4 27  1  0
  4 28  1  0
  5 29  1  0
  5 30  1  0
  6 31  1  6
  7 32  1  0
  7 33  1  0
  8 34  1  6
 13 35  1  0
 14 36  1  0
 16 37  1  0
 17 38  1  0
 18 39  1  0
 19 40  1  0
 21 41  1  0
 21 42  1  0
M  CHG  1   2   1
M  END
>  <meeko>  (5) 
{"is_sidechain": [false], "free_energy": -7.694, "intermolecular_energy": -9.294, "internal_energy": -0.166}

$$$$
2wnc_ligand
     RDKit          3D

 42 45  0  0  0  0  0  0  0  0999 V2000
  -70.0680  -44.7420  -73.8050 C   0  0  0  0  0  0  0  0  0  0  0  0
  -70.9940  -45.9240  -73.9060 N   0  0  2  0  0  0  0  0  0  0  0  0
  -71.6760  -46.3070  -72.6070 C   0  0  2  0  0  0  0  0  0  0  0  0
  -70.5850  -47.0860  -71.8660 C   0  0  0  0  0  0  0  0  0  0  0  0
  -69.7100  -47.6960  -72.9560 C   0  0  0  0  0  0  0  0  0  0  0  0
  -70.3150  -47.2260  -74.2820 C   0  0  1  0  0  0  0  0  0  0  0  0
  -71.3900  -48.2000  -74.7850 C   0  0  0  0  0  0  0  0  0  0  0  0
  -72.8140  -47.8580  -74.3200 C   0  0  1  0  0  0  0  0  0  0  0  0
  -73.6390  -49.0340  -74.3020 O   0  0  0  0  0  0  0  0  0  0  0  0
  -73.0440  -50.1830  -74.7590 C   0  0  0  0  0  0  0  0  0  0  0  0
  -72.8200  -50.3860  -75.9470 O   0  0  0  0  0  0  0  0  0  0  0  0
  -72.7080  -51.1100  -73.6880 C   0  0  0  0  0  0  0  0  0  0  0  0
  -72.1820  -50.7750  -72.4510 C   0  0  0  0  0  0  0  0  0  0  0  0
  -72.0060  -51.9230  -71.7260 N   0  0  0  0  0  0  0  0  0  0  0  0
  -72.4020  -53.0130  -72.4630 C   0  0  0  0  0  0  0  0  0  0  0  0
  -72.4000  -54.3730  -72.1270 C   0  0  0  0  0  0  0  0  0  0  0  0
  -72.8690  -55.2780  -73.0840 C   0  0  0  0  0  0  0  0  0  0  0  0
  -73.3210  -54.8400  -74.3240 C   0  0  0  0  0  0  0  0  0  0  0  0
  -73.3170  -53.4770  -74.6430 C   0  0  0  0  0  0  0  0  0  0  0  0
  -72.8500  -52.5380  -73.6970 C   0  0  0  0  0  0  0  0  0  0  0  0
  -72.8770  -47.2050  -72.9340 C   0  0  0  0  0  0  0  0  0  0  0  0
  -69.8853  -44.5088  -72.7456 H   0  0  0  0  0  0  0  0  0  0  0  0
  -69.1139  -44.9805  -74.2978 H   0  0  0  0  0  0  0  0  0  0  0  0
  -70.5279  -43.8727  -74.2978 H   0  0  0  0  0  0  0  0  0  0  0  0
  -71.6840  -45.6530  -74.6210 H   0  0  0  0  0  0  0  0  0  0  0  0
  -72.0580  -45.4606  -72.0173 H   0  0  0  0  0  0  0  0  0  0  0  0
  -69.9934  -46.4099  -71.2312 H   0  0  0  0  0  0  0  0  0  0  0  0
  -71.0099  -47.8555  -71.2047 H   0  0  0  0  0  0  0  0  0  0  0  0
  -68.6734  -47.3407  -72.8597 H   0  0  0  0  0  0  0  0  0  0  0  0
  -69.6818  -48.7935  -72.8882 H   0  0  0  0  0  0  0  0  0  0  0  0
  -69.5563  -47.1431  -75.0742 H   0  0  0  0  0  0  0  0  0  0  0  0
  -71.3748  -48.1931  -75.8849 H   0  0  0  0  0  0  0  0  0  0  0  0
  -71.1469  -49.1862  -74.3627 H   0  0  0  0  0  0  0  0  0  0  0  0
  -73.1851  -47.1249  -75.0513 H   0  0  0  0  0  0  0  0  0  0  0  0
  -71.9453  -49.7568  -72.1085 H   0  0  0  0  0  0  0  0  0  0  0  0
  -71.6380  -51.9750  -70.7850 H   0  0  0  0  0  0  0  0  0  0  0  0
  -72.0422  -54.7166  -71.1452 H   0  0  0  0  0  0  0  0  0  0  0  0
  -72.8806  -56.3533  -72.8524 H   0  0  0  0  0  0  0  0  0  0  0  0
  -73.6850  -55.5712  -75.0608 H   0  0  0  0  0  0  0  0  0  0  0  0
  -73.6760  -53.1387  -75.6262 H   0  0  0  0  0  0  0  0  0  0  0  0
  -73.7896  -46.5931  -72.8820 H   0  0  0  0  0  0  0  0  0  0  0  0
  -72.8700  -48.0228  -72.1984 H   0  0  0  0  0  0  0  0  0  0  0  0
  1  2  1  0
  2  3  1  0
  3  4  1  0
  4  5  1  0
  5  6  1  0
  6  7  1  0
  7  8  1  0
  8  9  1  0
  9 10  1  0
 10 11  2  0
 10 12  1  0
 12 13  2  0
 13 14  1  0
 14 15  1  0
 15 16  2  0
 16 17  1  0
 17 18  2  0
 18 19  1  0
 19 20  2  0
  8 21  1  0
  6  2  1  0
 20 12  1  0
 21  3  1  0
 20 15  1  0
  1 22  1  0
  1 23  1  0
  1 24  1  0
  2 25  1  6
  3 26  1  1
  4 27  1  0
  4 28  1  0
  5 29  1  0
  5 30  1  0
  6 31  1  6
  7 32  1  0
  7 33  1  0
  8 34  1  6
 13 35  1  0
 14 36  1  0
 16 37  1  0
 17 38  1  0
 18 39  1  0
 19 40  1  0
 21 41  1  0
 21 42  1  0
M  CHG  1   2   1
M  END
>  <meeko>  (6) 
{"is_sidechain": [false], "free_energy": -7.562, "intermolecular_energy": -9.369, "internal_energy": 0.064}

$$$$
2wnc_ligand
     RDKit          3D

 42 45  0  0  0  0  0  0  0  0999 V2000
  -71.9390  -46.2030  -72.5190 C   0  0  0  0  0  0  0  0  0  0  0  0
  -71.3710  -47.5850  -72.3480 N   0  0  2  0  0  0  0  0  0  0  0  0
  -69.9310  -47.7400  -72.7980 C   0  0  2  0  0  0  0  0  0  0  0  0
  -70.0600  -47.8620  -74.3190 C   0  0  0  0  0  0  0  0  0  0  0  0
  -71.4370  -48.4710  -74.5630 C   0  0  0  0  0  0  0  0  0  0  0  0
  -72.0580  -48.6550  -73.1740 C   0  0  1  0  0  0  0  0  0  0  0  0
  -71.7030  -50.0240  -72.5780 C   0  0  0  0  0  0  0  0  0  0  0  0
  -70.4310  -50.0230  -71.7160 C   0  0  1  0  0  0  0  0  0  0  0  0
  -69.8400  -51.3320  -71.6800 O   0  0  0  0  0  0  0  0  0  0  0  0
  -70.1190  -52.0780  -70.5630 C   0  0  0  0  0  0  0  0  0  0  0  0
  -70.0830  -51.6120  -69.4290 O   0  0  0  0  0  0  0  0  0  0  0  0
  -70.4650  -53.4570  -70.8750 C   0  0  0  0  0  0  0  0  0  0  0  0
  -69.7740  -54.5870  -70.4650 C   0  0  0  0  0  0  0  0  0  0  0  0
  -70.4120  -55.6920  -70.9620 N   0  0  0  0  0  0  0  0  0  0  0  0
  -71.5110  -55.3140  -71.6960 C   0  0  0  0  0  0  0  0  0  0  0  0
  -72.4460  -56.1000  -72.3810 C   0  0  0  0  0  0  0  0  0  0  0  0
  -73.4800  -55.4410  -73.0510 C   0  0  0  0  0  0  0  0  0  0  0  0
  -73.5730  -54.0530  -73.0370 C   0  0  0  0  0  0  0  0  0  0  0  0
  -72.6300  -53.2820  -72.3470 C   0  0  0  0  0  0  0  0  0  0  0  0
  -71.5740  -53.9200  -71.6600 C   0  0  0  0  0  0  0  0  0  0  0  0
  -69.3640  -49.0260  -72.1820 C   0  0  0  0  0  0  0  0  0  0  0  0
  -72.1223  -45.7570  -71.5303 H   0  0  0  0  0  0  0  0  0  0  0  0
  -71.2244  -45.5792  -73.0759 H   0  0  0  0  0  0  0  0  0  0  0  0
  -72.8858  -46.2620  -73.0759 H   0  0  0  0  0  0  0  0  0  0  0  0
  -71.4680  -47.7840  -71.3430 H   0  0  0  0  0  0  0  0  0  0  0  0
  -69.2622  -46.9188  -72.5008 H   0  0  0  0  0  0  0  0  0  0  0  0
  -69.9884  -46.8713  -74.7917 H   0  0  0  0  0  0  0  0  0  0  0  0
  -69.2581  -48.4804  -74.7485 H   0  0  0  0  0  0  0  0  0  0  0  0
  -72.0536  -47.7943  -75.1728 H   0  0  0  0  0  0  0  0  0  0  0  0
  -71.3699  -49.4239  -75.1084 H   0  0  0  0  0  0  0  0  0  0  0  0
  -73.1556  -48.5882  -73.2010 H   0  0  0  0  0  0  0  0  0  0  0  0
  -72.5441  -50.3567  -71.9520 H   0  0  0  0  0  0  0  0  0  0  0  0
  -71.5109  -50.6984  -73.4255 H   0  0  0  0  0  0  0  0  0  0  0  0
  -70.7642  -49.7115  -70.7150 H   0  0  0  0  0  0  0  0  0  0  0  0
  -68.8657  -54.5946  -69.8446 H   0  0  0  0  0  0  0  0  0  0  0  0
  -70.1260  -56.6510  -70.8180 H   0  0  0  0  0  0  0  0  0  0  0  0
  -72.3691  -57.1973  -72.3912 H   0  0  0  0  0  0  0  0  0  0  0  0
  -74.2320  -56.0287  -73.5979 H   0  0  0  0  0  0  0  0  0  0  0  0
  -74.3953  -53.5566  -73.5732 H   0  0  0  0  0  0  0  0  0  0  0  0
  -72.7112  -52.1850  -72.3400 H   0  0  0  0  0  0  0  0  0  0  0  0
  -68.7473  -48.7499  -71.3140 H   0  0  0  0  0  0  0  0  0  0  0  0
  -68.7867  -49.5274  -72.9728 H   0  0  0  0  0  0  0  0  0  0  0  0
  1  2  1  0
  2  3  1  0
  3  4  1  0
  4  5  1  0
  5  6  1  0
  6  7  1  0
  7  8  1  0
  8  9  1  0
  9 10  1  0
 10 11  2  0
 10 12  1  0
 12 13  2  0
 13 14  1  0
 14 15  1  0
 15 16  2  0
 16 17  1  0
 17 18  2  0
 18 19  1  0
 19 20  2  0
  8 21  1  0
  6  2  1  0
 20 12  1  0
 21  3  1  0
 20 15  1  0
  1 22  1  0
  1 23  1  0
  1 24  1  0
  2 25  1  1
  3 26  1  6
  4 27  1  0
  4 28  1  0
  5 29  1  0
  5 30  1  0
  6 31  1  6
  7 32  1  0
  7 33  1  0
  8 34  1  1
 13 35  1  0
 14 36  1  0
 16 37  1  0
 17 38  1  0
 18 39  1  0
 19 40  1  0
 21 41  1  0
 21 42  1  0
M  CHG  1   2   1
M  END
>  <meeko>  (7) 
{"is_sidechain": [false], "free_energy": -7.512, "intermolecular_energy": -8.677, "internal_energy": -0.569}

$$$$
2wnc_ligand
     RDKit          3D

 42 45  0  0  0  0  0  0  0  0999 V2000
  -69.6400  -44.9270  -71.7460 C   0  0  0  0  0  0  0  0  0  0  0  0
  -70.5070  -46.1460  -71.9060 N   0  0  2  0  0  0  0  0  0  0  0  0
  -69.8060  -47.3460  -72.5130 C   0  0  2  0  0  0  0  0  0  0  0  0
  -69.8010  -47.0170  -74.0090 C   0  0  0  0  0  0  0  0  0  0  0  0
  -71.0250  -46.1340  -74.2350 C   0  0  0  0  0  0  0  0  0  0  0  0
  -71.6740  -45.9690  -72.8580 C   0  0  1  0  0  0  0  0  0  0  0  0
  -72.6930  -47.0820  -72.5800 C   0  0  0  0  0  0  0  0  0  0  0  0
  -72.1050  -48.3070  -71.8610 C   0  0  1  0  0  0  0  0  0  0  0  0
  -72.8820  -49.4830  -72.1420 O   0  0  0  0  0  0  0  0  0  0  0  0
  -72.1790  -50.5550  -72.6310 C   0  0  0  0  0  0  0  0  0  0  0  0
  -71.2110  -51.0340  -72.0490 O   0  0  0  0  0  0  0  0  0  0  0  0
  -72.7110  -51.0530  -73.8900 C   0  0  0  0  0  0  0  0  0  0  0  0
  -72.8780  -52.3840  -74.2390 C   0  0  0  0  0  0  0  0  0  0  0  0
  -73.4040  -52.4410  -75.5020 N   0  0  0  0  0  0  0  0  0  0  0  0
  -73.5870  -51.1720  -75.9970 C   0  0  0  0  0  0  0  0  0  0  0  0
  -74.0930  -50.7550  -77.2340 C   0  0  0  0  0  0  0  0  0  0  0  0
  -74.1700  -49.3800  -77.4730 C   0  0  0  0  0  0  0  0  0  0  0  0
  -73.7570  -48.4620  -76.5140 C   0  0  0  0  0  0  0  0  0  0  0  0
  -73.2530  -48.8950  -75.2820 C   0  0  0  0  0  0  0  0  0  0  0  0
  -73.1640  -50.2780  -75.0110 C   0  0  0  0  0  0  0  0  0  0  0  0
  -70.6440  -48.5990  -72.2210 C   0  0  0  0  0  0  0  0  0  0  0  0
  -69.4926  -44.7198  -70.6758 H   0  0  0  0  0  0  0  0  0  0  0  0
  -68.6648  -45.1055  -72.2226 H   0  0  0  0  0  0  0  0  0  0  0  0
  -70.1286  -44.0644  -72.2226 H   0  0  0  0  0  0  0  0  0  0  0  0
  -70.8410  -46.3540  -70.9550 H   0  0  0  0  0  0  0  0  0  0  0  0
  -68.7949  -47.5372  -72.1243 H   0  0  0  0  0  0  0  0  0  0  0  0
  -68.8819  -46.4774  -74.2811 H   0  0  0  0  0  0  0  0  0  0  0  0
  -69.8332  -47.9261  -74.6274 H   0  0  0  0  0  0  0  0  0  0  0  0
  -70.7235  -45.1555  -74.6371 H   0  0  0  0  0  0  0  0  0  0  0  0
  -71.7200  -46.5801  -74.9616 H   0  0  0  0  0  0  0  0  0  0  0  0
  -72.2076  -45.0114  -72.7669 H   0  0  0  0  0  0  0  0  0  0  0  0
  -73.4960  -46.6664  -71.9535 H   0  0  0  0  0  0  0  0  0  0  0  0
  -73.0547  -47.4320  -73.5581 H   0  0  0  0  0  0  0  0  0  0  0  0
  -72.1408  -48.0545  -70.7910 H   0  0  0  0  0  0  0  0  0  0  0  0
  -72.6296  -53.2495  -73.6072 H   0  0  0  0  0  0  0  0  0  0  0  0
  -73.6300  -53.2880  -76.0070 H   0  0  0  0  0  0  0  0  0  0  0  0
  -74.4185  -51.4837  -77.9910 H   0  0  0  0  0  0  0  0  0  0  0  0
  -74.5634  -49.0187  -78.4346 H   0  0  0  0  0  0  0  0  0  0  0  0
  -73.8270  -47.3848  -76.7255 H   0  0  0  0  0  0  0  0  0  0  0  0
  -72.9280  -48.1619  -74.5290 H   0  0  0  0  0  0  0  0  0  0  0  0
  -70.1816  -49.1349  -71.3790 H   0  0  0  0  0  0  0  0  0  0  0  0
  -70.6588  -49.1926  -73.1470 H   0  0  0  0  0  0  0  0  0  0  0  0
  1  2  1  0
  2  3  1  0
  3  4  1  0
  4  5  1  0
  5  6  1  0
  6  7  1  0
  7  8  1  0
  8  9  1  0
  9 10  1  0
 10 11  2  0
 10 12  1  0
 12 13  2  0
 13 14  1  0
 14 15  1  0
 15 16  2  0
 16 17  1  0
 17 18  2  0
 18 19  1  0
 19 20  2  0
  8 21  1  0
  6  2  1  0
 20 12  1  0
 21  3  1  0
 20 15  1  0
  1 22  1  0
  1 23  1  0
  1 24  1  0
  2 25  1  1
  3 26  1  1
  4 27  1  0
  4 28  1  0
  5 29  1  0
  5 30  1  0
  6 31  1  6
  7 32  1  0
  7 33  1  0
  8 34  1  1
 13 35  1  0
 14 36  1  0
 16 37  1  0
 17 38  1  0
 18 39  1  0
 19 40  1  0
 21 41  1  0
 21 42  1  0
M  CHG  1   2   1
M  END
>  <meeko>  (8) 
{"is_sidechain": [false], "free_energy": -7.375, "intermolecular_energy": -9.324, "internal_energy": 0.239}

$$$$
2wnc_ligand
     RDKit          3D

 42 45  0  0  0  0  0  0  0  0999 V2000
  -68.8390  -54.4760  -71.1360 C   0  0  0  0  0  0  0  0  0  0  0  0
  -69.6250  -53.2030  -71.2950 N   0  0  2  0  0  0  0  0  0  0  0  0
  -68.8570  -51.9380  -70.9600 C   0  0  2  0  0  0  0  0  0  0  0  0
  -68.9050  -51.9070  -69.4290 C   0  0  0  0  0  0  0  0  0  0  0  0
  -70.1890  -52.6350  -69.0470 C   0  0  0  0  0  0  0  0  0  0  0  0
  -70.8200  -53.0800  -70.3700 C   0  0  1  0  0  0  0  0  0  0  0  0
  -71.7560  -52.0040  -70.9360 C   0  0  0  0  0  0  0  0  0  0  0  0
  -71.0730  -51.0200  -71.8990 C   0  0  1  0  0  0  0  0  0  0  0  0
  -71.7740  -49.7670  -71.9280 O   0  0  0  0  0  0  0  0  0  0  0  0
  -72.1790  -49.3430  -73.1690 C   0  0  0  0  0  0  0  0  0  0  0  0
  -72.9650  -49.9800  -73.8630 O   0  0  0  0  0  0  0  0  0  0  0  0
  -71.5870  -48.0710  -73.5540 C   0  0  0  0  0  0  0  0  0  0  0  0
  -71.4910  -47.5690  -74.8420 C   0  0  0  0  0  0  0  0  0  0  0  0
  -70.8710  -46.3490  -74.7890 N   0  0  0  0  0  0  0  0  0  0  0  0
  -70.5530  -46.0350  -73.4900 C   0  0  0  0  0  0  0  0  0  0  0  0
  -69.9180  -44.9000  -72.9710 C   0  0  0  0  0  0  0  0  0  0  0  0
  -69.7220  -44.8420  -71.5880 C   0  0  0  0  0  0  0  0  0  0  0  0
  -70.1430  -45.8790  -70.7610 C   0  0  0  0  0  0  0  0  0  0  0  0
  -70.7770  -47.0060  -71.2960 C   0  0  0  0  0  0  0  0  0  0  0  0
  -70.9890  -47.0920  -72.6900 C   0  0  0  0  0  0  0  0  0  0  0  0
  -69.6020  -50.7410  -71.5650 C   0  0  0  0  0  0  0  0  0  0  0  0
  -68.7050  -54.6930  -70.0660 H   0  0  0  0  0  0  0  0  0  0  0  0
  -69.3829  -55.3047  -71.6129 H   0  0  0  0  0  0  0  0  0  0  0  0
  -67.8544  -54.3610  -71.6129 H   0  0  0  0  0  0  0  0  0  0  0  0
  -69.9250  -53.2040  -72.2800 H   0  0  0  0  0  0  0  0  0  0  0  0
  -67.8277  -51.9045  -71.3465 H   0  0  0  0  0  0  0  0  0  0  0  0
  -68.0302  -52.4230  -69.0064 H   0  0  0  0  0  0  0  0  0  0  0  0
  -68.8884  -50.8779  -69.0409 H   0  0  0  0  0  0  0  0  0  0  0  0
  -69.9626  -53.5078  -68.4169 H   0  0  0  0  0  0  0  0  0  0  0  0
  -70.8668  -51.9887  -68.4700 H   0  0  0  0  0  0  0  0  0  0  0  0
  -71.4148  -53.9980  -70.2538 H   0  0  0  0  0  0  0  0  0  0  0  0
  -72.5720  -52.5059  -71.4766 H   0  0  0  0  0  0  0  0  0  0  0  0
  -72.1132  -51.4128  -70.0799 H   0  0  0  0  0  0  0  0  0  0  0  0
  -71.1044  -51.5137  -72.8815 H   0  0  0  0  0  0  0  0  0  0  0  0
  -71.8522  -48.0669  -75.7540 H   0  0  0  0  0  0  0  0  0  0  0  0
  -70.6710  -45.7560  -75.5840 H   0  0  0  0  0  0  0  0  0  0  0  0
  -69.5852  -44.0830  -73.6281 H   0  0  0  0  0  0  0  0  0  0  0  0
  -69.2278  -43.9638  -71.1471 H   0  0  0  0  0  0  0  0  0  0  0  0
  -69.9757  -45.8122  -69.6758 H   0  0  0  0  0  0  0  0  0  0  0  0
  -71.1084  -47.8203  -70.6348 H   0  0  0  0  0  0  0  0  0  0  0  0
  -69.0875  -50.4469  -72.4917 H   0  0  0  0  0  0  0  0  0  0  0  0
  -69.5956  -49.9469  -70.8039 H   0  0  0  0  0  0  0  0  0  0  0  0
  1  2  1  0
  2  3  1  0
  3  4  1  0
  4  5  1  0
  5  6  1  0
  6  7  1  0
  7  8  1  0
  8  9  1  0
  9 10  1  0
 10 11  2  0
 10 12  1  0
 12 13  2  0
 13 14  1  0
 14 15  1  0
 15 16  2  0
 16 17  1  0
 17 18  2  0
 18 19  1  0
 19 20  2  0
  8 21  1  0
  6  2  1  0
 20 12  1  0
 21  3  1  0
 20 15  1  0
  1 22  1  0
  1 23  1  0
  1 24  1  0
  2 25  1  6
  3 26  1  1
  4 27  1  0
  4 28  1  0
  5 29  1  0
  5 30  1  0
  6 31  1  1
  7 32  1  0
  7 33  1  0
  8 34  1  6
 13 35  1  0
 14 36  1  0
 16 37  1  0
 17 38  1  0
 18 39  1  0
 19 40  1  0
 21 41  1  0
 21 42  1  0
M  CHG  1   2   1
M  END
>  <meeko>  (9) 
{"is_sidechain": [false], "free_energy": -7.347, "intermolecular_energy": -8.646, "internal_energy": -0.407}

$$$$
