2wtv_ligand
     RDKit          3D

 48 52  0  0  0  0  0  0  0  0999 V2000
    9.7920   -5.2050    0.2910 O   0  0  0  0  0  0  0  0  0  0  0  0
    9.0170   -4.2050    0.1520 C   0  0  0  0  0  0  0  0  0  0  0  0
    9.3630   -2.9830    0.2200 O   0  0  0  0  0  0  0  0  0  0  0  0
    7.5540   -4.4980   -0.1190 C   0  0  0  0  0  0  0  0  0  0  0  0
    6.5440   -3.8840    0.6320 C   0  0  0  0  0  0  0  0  0  0  0  0
    5.1940   -4.1590    0.3810 C   0  0  0  0  0  0  0  0  0  0  0  0
    4.8020   -5.0550   -0.6270 C   0  0  0  0  0  0  0  0  0  0  0  0
    3.4350   -5.2880   -0.8150 N   0  0  0  0  0  0  0  0  0  0  0  0
    2.6900   -6.0190   -1.7330 C   0  0  0  0  0  0  0  0  0  0  0  0
    1.3610   -5.8980   -1.8360 N   0  0  0  0  0  0  0  0  0  0  0  0
    0.7370   -6.6500   -2.7590 C   0  0  0  0  0  0  0  0  0  0  0  0
    1.3890   -7.5170   -3.6030 C   0  0  0  0  0  0  0  0  0  0  0  0
    2.7550   -7.5930   -3.4320 C   0  0  0  0  0  0  0  0  0  0  0  0
    3.4090   -6.8440   -2.5130 N   0  0  0  0  0  0  0  0  0  0  0  0
    3.6110   -8.4540   -4.2740 C   0  0  0  0  0  0  0  0  0  0  0  0
    4.8900   -7.9890   -4.6530 C   0  0  0  0  0  0  0  0  0  0  0  0
    5.7330   -8.7360   -5.4810 C   0  0  0  0  0  0  0  0  0  0  0  0
    5.3080   -9.9690   -5.9530 C   0  0  0  0  0  0  0  0  0  0  0  0
    6.3320  -10.8900   -6.9860 Cl  0  0  0  0  0  0  0  0  0  0  0  0
    4.0600  -10.4670   -5.5960 C   0  0  0  0  0  0  0  0  0  0  0  0
    3.2150   -9.7260   -4.7470 C   0  0  0  0  0  0  0  0  0  0  0  0
    1.9080  -10.3560   -4.3640 C   0  0  0  0  0  0  0  0  0  0  0  0
    1.9170  -11.7920   -3.9850 C   0  0  0  0  0  0  0  0  0  0  0  0
    1.3690  -12.7510   -4.8360 C   0  0  0  0  0  0  0  0  0  0  0  0
    0.8070  -12.3960   -5.9990 F   0  0  0  0  0  0  0  0  0  0  0  0
    1.3950  -14.1040   -4.4980 C   0  0  0  0  0  0  0  0  0  0  0  0
    1.9780  -14.5080   -3.2970 C   0  0  0  0  0  0  0  0  0  0  0  0
    2.5290  -13.5540   -2.4390 C   0  0  0  0  0  0  0  0  0  0  0  0
    2.4980  -12.2030   -2.7870 C   0  0  0  0  0  0  0  0  0  0  0  0
    2.9990  -11.3130   -1.9190 F   0  0  0  0  0  0  0  0  0  0  0  0
    0.7650   -9.7560   -4.3210 N   0  0  0  0  0  0  0  0  0  0  0  0
    0.6800   -8.3340   -4.6270 C   0  0  0  0  0  0  0  0  0  0  0  0
    5.8130   -5.6650   -1.3740 C   0  0  0  0  0  0  0  0  0  0  0  0
    7.1660   -5.3920   -1.1260 C   0  0  0  0  0  0  0  0  0  0  0  0
    6.8146   -3.1764    1.4295 H   0  0  0  0  0  0  0  0  0  0  0  0
    4.4227   -3.6617    0.9874 H   0  0  0  0  0  0  0  0  0  0  0  0
    2.8130   -4.8310   -0.1670 H   0  0  0  0  0  0  0  0  0  0  0  0
   -0.3566   -6.5669   -2.8436 H   0  0  0  0  0  0  0  0  0  0  0  0
    5.2326   -7.0104   -4.2858 H   0  0  0  0  0  0  0  0  0  0  0  0
    6.7253   -8.3491   -5.7559 H   0  0  0  0  0  0  0  0  0  0  0  0
    3.7309  -11.4445   -5.9784 H   0  0  0  0  0  0  0  0  0  0  0  0
    0.9569  -14.8505   -5.1768 H   0  0  0  0  0  0  0  0  0  0  0  0
    2.0036  -15.5740   -3.0268 H   0  0  0  0  0  0  0  0  0  0  0  0
    2.9872  -13.8673   -1.4893 H   0  0  0  0  0  0  0  0  0  0  0  0
    1.1371   -8.1512   -5.6107 H   0  0  0  0  0  0  0  0  0  0  0  0
   -0.3806   -8.0423   -4.6306 H   0  0  0  0  0  0  0  0  0  0  0  0
    5.5426   -6.3726   -2.1716 H   0  0  0  0  0  0  0  0  0  0  0  0
    7.9370   -5.8888   -1.7332 H   0  0  0  0  0  0  0  0  0  0  0  0
  1  2  2  0
  2  3  1  0
  2  4  1  0
  4  5  2  0
  5  6  1  0
  6  7  2  0
  7  8  1  0
  8  9  1  0
  9 10  2  0
 10 11  1  0
 11 12  2  0
 12 13  1  0
 13 14  2  0
 13 15  1  0
 15 16  2  0
 16 17  1  0
 17 18  2  0
 18 19  1  0
 18 20  1  0
 20 21  2  0
 21 22  1  0
 22 23  1  0
 23 24  2  0
 24 25  1  0
 24 26  1  0
 26 27  2  0
 27 28  1  0
 28 29  2  0
 29 30  1  0
 22 31  2  0
 31 32  1  0
  7 33  1  0
 33 34  2  0
 34  4  1  0
 14  9  1  0
 21 15  1  0
 29 23  1  0
 32 12  1  0
  5 35  1  0
  6 36  1  0
  8 37  1  0
 11 38  1  0
 16 39  1  0
 17 40  1  0
 20 41  1  0
 26 42  1  0
 27 43  1  0
 28 44  1  0
 32 45  1  0
 32 46  1  0
 33 47  1  0
 34 48  1  0
M  CHG  1   3  -1
M  END
>  <meeko>  (1) 
{"is_sidechain": [false], "free_energy": -11.623, "intermolecular_energy": -14.341, "internal_energy": -0.842}

$$$$
2wtv_ligand
     RDKit          3D

 48 52  0  0  0  0  0  0  0  0999 V2000
    9.3840   -2.9990    0.1150 O   0  0  0  0  0  0  0  0  0  0  0  0
    9.0260   -4.2200    0.1140 C   0  0  0  0  0  0  0  0  0  0  0  0
    9.7900   -5.2170    0.3130 O   0  0  0  0  0  0  0  0  0  0  0  0
    7.5600   -4.5090   -0.1480 C   0  0  0  0  0  0  0  0  0  0  0  0
    6.5570   -3.8920    0.6110 C   0  0  0  0  0  0  0  0  0  0  0  0
    5.2050   -4.1630    0.3690 C   0  0  0  0  0  0  0  0  0  0  0  0
    4.8030   -5.0570   -0.6380 C   0  0  0  0  0  0  0  0  0  0  0  0
    3.4340   -5.2850   -0.8170 N   0  0  0  0  0  0  0  0  0  0  0  0
    2.6810   -6.0210   -1.7240 C   0  0  0  0  0  0  0  0  0  0  0  0
    1.3500   -5.9170   -1.8010 N   0  0  0  0  0  0  0  0  0  0  0  0
    0.7180   -6.6730   -2.7160 C   0  0  0  0  0  0  0  0  0  0  0  0
    1.3640   -7.5280   -3.5760 C   0  0  0  0  0  0  0  0  0  0  0  0
    2.7340   -7.5880   -3.4310 C   0  0  0  0  0  0  0  0  0  0  0  0
    3.3960   -6.8340   -2.5200 N   0  0  0  0  0  0  0  0  0  0  0  0
    3.5840   -8.4340   -4.2930 C   0  0  0  0  0  0  0  0  0  0  0  0
    4.8500   -7.9510   -4.6940 C   0  0  0  0  0  0  0  0  0  0  0  0
    5.6870   -8.6840   -5.5400 C   0  0  0  0  0  0  0  0  0  0  0  0
    5.2690   -9.9210   -6.0100 C   0  0  0  0  0  0  0  0  0  0  0  0
    6.2850  -10.8240   -7.0660 Cl  0  0  0  0  0  0  0  0  0  0  0  0
    4.0340  -10.4350   -5.6320 C   0  0  0  0  0  0  0  0  0  0  0  0
    3.1960   -9.7090   -4.7640 C   0  0  0  0  0  0  0  0  0  0  0  0
    1.9040  -10.3570   -4.3590 C   0  0  0  0  0  0  0  0  0  0  0  0
    1.9390  -11.7940   -3.9870 C   0  0  0  0  0  0  0  0  0  0  0  0
    2.5110  -12.1990   -2.7820 C   0  0  0  0  0  0  0  0  0  0  0  0
    3.0560  -11.3040   -1.9460 F   0  0  0  0  0  0  0  0  0  0  0  0
    2.5270  -13.5440   -2.4150 C   0  0  0  0  0  0  0  0  0  0  0  0
    1.9620  -14.5000   -3.2590 C   0  0  0  0  0  0  0  0  0  0  0  0
    1.3870  -14.1030   -4.4680 C   0  0  0  0  0  0  0  0  0  0  0  0
    1.3760  -12.7550   -4.8250 C   0  0  0  0  0  0  0  0  0  0  0  0
    0.8530  -12.4170   -6.0120 F   0  0  0  0  0  0  0  0  0  0  0  0
    0.7550   -9.7710   -4.2920 N   0  0  0  0  0  0  0  0  0  0  0  0
    0.6470   -8.3500   -4.5900 C   0  0  0  0  0  0  0  0  0  0  0  0
    5.8070   -5.6690   -1.3920 C   0  0  0  0  0  0  0  0  0  0  0  0
    7.1620   -5.4000   -1.1530 C   0  0  0  0  0  0  0  0  0  0  0  0
    6.8353   -3.1857    1.4071 H   0  0  0  0  0  0  0  0  0  0  0  0
    4.4393   -3.6644    0.9815 H   0  0  0  0  0  0  0  0  0  0  0  0
    2.8170   -4.8190   -0.1700 H   0  0  0  0  0  0  0  0  0  0  0  0
   -0.3779   -6.6030   -2.7796 H   0  0  0  0  0  0  0  0  0  0  0  0
    5.1867   -6.9692   -4.3296 H   0  0  0  0  0  0  0  0  0  0  0  0
    6.6693   -8.2835   -5.8310 H   0  0  0  0  0  0  0  0  0  0  0  0
    3.7095  -11.4145   -6.0131 H   0  0  0  0  0  0  0  0  0  0  0  0
    2.9840  -13.8504   -1.4625 H   0  0  0  0  0  0  0  0  0  0  0  0
    1.9693  -15.5623   -2.9734 H   0  0  0  0  0  0  0  0  0  0  0  0
    0.9429  -14.8534   -5.1386 H   0  0  0  0  0  0  0  0  0  0  0  0
    1.0838   -8.1576   -5.5810 H   0  0  0  0  0  0  0  0  0  0  0  0
   -0.4171   -8.0717   -4.5728 H   0  0  0  0  0  0  0  0  0  0  0  0
    5.5293   -6.3753   -2.1883 H   0  0  0  0  0  0  0  0  0  0  0  0
    7.9273   -5.8981   -1.7664 H   0  0  0  0  0  0  0  0  0  0  0  0
  1  2  2  0
  2  3  1  0
  2  4  1  0
  4  5  2  0
  5  6  1  0
  6  7  2  0
  7  8  1  0
  8  9  1  0
  9 10  2  0
 10 11  1  0
 11 12  2  0
 12 13  1  0
 13 14  2  0
 13 15  1  0
 15 16  2  0
 16 17  1  0
 17 18  2  0
 18 19  1  0
 18 20  1  0
 20 21  2  0
 21 22  1  0
 22 23  1  0
 23 24  2  0
 24 25  1  0
 24 26  1  0
 26 27  2  0
 27 28  1  0
 28 29  2  0
 29 30  1  0
 22 31  2  0
 31 32  1  0
  7 33  1  0
 33 34  2  0
 34  4  1  0
 14  9  1  0
 21 15  1  0
 29 23  1  0
 32 12  1  0
  5 35  1  0
  6 36  1  0
  8 37  1  0
 11 38  1  0
 16 39  1  0
 17 40  1  0
 20 41  1  0
 26 42  1  0
 27 43  1  0
 28 44  1  0
 32 45  1  0
 32 46  1  0
 33 47  1  0
 34 48  1  0
M  CHG  1   3  -1
M  END
>  <meeko>  (2) 
{"is_sidechain": [false], "free_energy": -11.586, "intermolecular_energy": -14.28, "internal_energy": -0.856}

$$$$
2wtv_ligand
     RDKit          3D

 48 52  0  0  0  0  0  0  0  0999 V2000
    4.5330  -20.6220   -4.0620 O   0  0  0  0  0  0  0  0  0  0  0  0
    3.8200  -19.7570   -3.4590 C   0  0  0  0  0  0  0  0  0  0  0  0
    2.6100  -19.9120   -3.1010 O   0  0  0  0  0  0  0  0  0  0  0  0
    4.4740  -18.4250   -3.1410 C   0  0  0  0  0  0  0  0  0  0  0  0
    3.8320  -17.2170   -3.4420 C   0  0  0  0  0  0  0  0  0  0  0  0
    4.4390  -15.9900   -3.1490 C   0  0  0  0  0  0  0  0  0  0  0  0
    5.7050  -15.9220   -2.5450 C   0  0  0  0  0  0  0  0  0  0  0  0
    6.2530  -14.6590   -2.2900 N   0  0  0  0  0  0  0  0  0  0  0  0
    6.2310  -13.4380   -2.9520 C   0  0  0  0  0  0  0  0  0  0  0  0
    7.3480  -12.8190   -3.3510 N   0  0  0  0  0  0  0  0  0  0  0  0
    7.2160  -11.6420   -3.9870 C   0  0  0  0  0  0  0  0  0  0  0  0
    6.0030  -11.0540   -4.2560 C   0  0  0  0  0  0  0  0  0  0  0  0
    4.8980  -11.7460   -3.8070 C   0  0  0  0  0  0  0  0  0  0  0  0
    5.0040  -12.9350   -3.1690 N   0  0  0  0  0  0  0  0  0  0  0  0
    3.5190  -11.2690   -4.0380 C   0  0  0  0  0  0  0  0  0  0  0  0
    2.5050  -12.2130   -4.3190 C   0  0  0  0  0  0  0  0  0  0  0  0
    1.1890  -11.8260   -4.5850 C   0  0  0  0  0  0  0  0  0  0  0  0
    0.8590  -10.4790   -4.5820 C   0  0  0  0  0  0  0  0  0  0  0  0
   -0.7550   -9.9910   -4.9260 Cl  0  0  0  0  0  0  0  0  0  0  0  0
    1.8260   -9.5190   -4.3030 C   0  0  0  0  0  0  0  0  0  0  0  0
    3.1490   -9.9060   -4.0150 C   0  0  0  0  0  0  0  0  0  0  0  0
    4.1200   -8.8140   -3.6680 C   0  0  0  0  0  0  0  0  0  0  0  0
    3.6610   -7.7500   -2.7400 C   0  0  0  0  0  0  0  0  0  0  0  0
    2.8480   -6.7150   -3.1980 C   0  0  0  0  0  0  0  0  0  0  0  0
    2.4810   -6.6480   -4.4850 F   0  0  0  0  0  0  0  0  0  0  0  0
    2.3940   -5.7240   -2.3280 C   0  0  0  0  0  0  0  0  0  0  0  0
    2.7530   -5.7670   -0.9800 C   0  0  0  0  0  0  0  0  0  0  0  0
    3.5670   -6.8000   -0.5130 C   0  0  0  0  0  0  0  0  0  0  0  0
    4.0150   -7.7860   -1.3930 C   0  0  0  0  0  0  0  0  0  0  0  0
    4.8300   -8.7380   -0.9170 F   0  0  0  0  0  0  0  0  0  0  0  0
    5.3340   -8.7200   -4.0990 N   0  0  0  0  0  0  0  0  0  0  0  0
    5.8760   -9.7530   -4.9710 C   0  0  0  0  0  0  0  0  0  0  0  0
    6.3410  -17.1290   -2.2460 C   0  0  0  0  0  0  0  0  0  0  0  0
    5.7370  -18.3600   -2.5380 C   0  0  0  0  0  0  0  0  0  0  0  0
    2.8387  -17.2327   -3.9144 H   0  0  0  0  0  0  0  0  0  0  0  0
    3.9119  -15.0571   -3.3978 H   0  0  0  0  0  0  0  0  0  0  0  0
    6.8060  -14.5750   -1.4510 H   0  0  0  0  0  0  0  0  0  0  0  0
    8.1292  -11.1206   -4.3100 H   0  0  0  0  0  0  0  0  0  0  0  0
    2.7593  -13.2832   -4.3285 H   0  0  0  0  0  0  0  0  0  0  0  0
    0.4203  -12.5842   -4.7953 H   0  0  0  0  0  0  0  0  0  0  0  0
    1.5561   -8.4526   -4.3073 H   0  0  0  0  0  0  0  0  0  0  0  0
    1.7550   -4.9110   -2.7031 H   0  0  0  0  0  0  0  0  0  0  0  0
    2.3958   -4.9898   -0.2884 H   0  0  0  0  0  0  0  0  0  0  0  0
    3.8552   -6.8369    0.5479 H   0  0  0  0  0  0  0  0  0  0  0  0
    5.2053   -9.8821   -5.8332 H   0  0  0  0  0  0  0  0  0  0  0  0
    6.8775   -9.4388   -5.3002 H   0  0  0  0  0  0  0  0  0  0  0  0
    7.3339  -17.1134   -1.7728 H   0  0  0  0  0  0  0  0  0  0  0  0
    6.2647  -19.2925   -2.2890 H   0  0  0  0  0  0  0  0  0  0  0  0
  1  2  2  0
  2  3  1  0
  2  4  1  0
  4  5  2  0
  5  6  1  0
  6  7  2  0
  7  8  1  0
  8  9  1  0
  9 10  2  0
 10 11  1  0
 11 12  2  0
 12 13  1  0
 13 14  2  0
 13 15  1  0
 15 16  2  0
 16 17  1  0
 17 18  2  0
 18 19  1  0
 18 20  1  0
 20 21  2  0
 21 22  1  0
 22 23  1  0
 23 24  2  0
 24 25  1  0
 24 26  1  0
 26 27  2  0
 27 28  1  0
 28 29  2  0
 29 30  1  0
 22 31  2  0
 31 32  1  0
  7 33  1  0
 33 34  2  0
 34  4  1  0
 14  9  1  0
 21 15  1  0
 29 23  1  0
 32 12  1  0
  5 35  1  0
  6 36  1  0
  8 37  1  0
 11 38  1  0
 16 39  1  0
 17 40  1  0
 20 41  1  0
 26 42  1  0
 27 43  1  0
 28 44  1  0
 32 45  1  0
 32 46  1  0
 33 47  1  0
 34 48  1  0
M  CHG  1   3  -1
M  END
>  <meeko>  (3) 
{"is_sidechain": [false], "free_energy": -10.437, "intermolecular_energy": -13.23, "internal_energy": -0.489}

$$$$
2wtv_ligand
     RDKit          3D

 48 52  0  0  0  0  0  0  0  0999 V2000
   13.8100  -16.5400   -5.2850 O   0  0  0  0  0  0  0  0  0  0  0  0
   13.0770  -16.0180   -6.1850 C   0  0  0  0  0  0  0  0  0  0  0  0
   13.1420  -16.2650   -7.4310 O   0  0  0  0  0  0  0  0  0  0  0  0
   12.0340  -15.0150   -5.7290 C   0  0  0  0  0  0  0  0  0  0  0  0
   11.9720  -14.5960   -4.3950 C   0  0  0  0  0  0  0  0  0  0  0  0
   11.0070  -13.6710   -3.9760 C   0  0  0  0  0  0  0  0  0  0  0  0
   10.0700  -13.1320   -4.8730 C   0  0  0  0  0  0  0  0  0  0  0  0
    9.1290  -12.2190   -4.3810 N   0  0  0  0  0  0  0  0  0  0  0  0
    7.9270  -12.3380   -3.6940 C   0  0  0  0  0  0  0  0  0  0  0  0
    7.5470  -13.4770   -3.1050 N   0  0  0  0  0  0  0  0  0  0  0  0
    6.3660  -13.4840   -2.4630 C   0  0  0  0  0  0  0  0  0  0  0  0
    5.5440  -12.3870   -2.3700 C   0  0  0  0  0  0  0  0  0  0  0  0
    5.9970  -11.2520   -3.0080 C   0  0  0  0  0  0  0  0  0  0  0  0
    7.1850  -11.2180   -3.6580 N   0  0  0  0  0  0  0  0  0  0  0  0
    5.2500   -9.9780   -2.9830 C   0  0  0  0  0  0  0  0  0  0  0  0
    5.9670   -8.7640   -2.8950 C   0  0  0  0  0  0  0  0  0  0  0  0
    5.3200   -7.5270   -2.8270 C   0  0  0  0  0  0  0  0  0  0  0  0
    3.9340   -7.4790   -2.8410 C   0  0  0  0  0  0  0  0  0  0  0  0
    3.1270   -5.9620   -2.7410 Cl  0  0  0  0  0  0  0  0  0  0  0  0
    3.1910   -8.6510   -2.9360 C   0  0  0  0  0  0  0  0  0  0  0  0
    3.8390   -9.8980   -3.0230 C   0  0  0  0  0  0  0  0  0  0  0  0
    2.9690  -11.1120   -3.1790 C   0  0  0  0  0  0  0  0  0  0  0  0
    1.8360  -11.0310   -4.1350 C   0  0  0  0  0  0  0  0  0  0  0  0
    0.5280  -10.9000   -3.6710 C   0  0  0  0  0  0  0  0  0  0  0  0
    0.2650  -10.8630   -2.3570 F   0  0  0  0  0  0  0  0  0  0  0  0
   -0.5400  -10.8000   -4.5630 C   0  0  0  0  0  0  0  0  0  0  0  0
   -0.3010  -10.8290   -5.9370 C   0  0  0  0  0  0  0  0  0  0  0  0
    1.0060  -10.9610   -6.4100 C   0  0  0  0  0  0  0  0  0  0  0  0
    2.0670  -11.0590   -5.5090 C   0  0  0  0  0  0  0  0  0  0  0  0
    3.3030  -11.2270   -5.9990 F   0  0  0  0  0  0  0  0  0  0  0  0
    3.1230  -12.2350   -2.5590 N   0  0  0  0  0  0  0  0  0  0  0  0
    4.2430  -12.4110   -1.6450 C   0  0  0  0  0  0  0  0  0  0  0  0
   10.1350  -13.5530   -6.2030 C   0  0  0  0  0  0  0  0  0  0  0  0
   11.1000  -14.4780   -6.6260 C   0  0  0  0  0  0  0  0  0  0  0  0
   12.6906  -14.9984   -3.6659 H   0  0  0  0  0  0  0  0  0  0  0  0
   10.9825  -13.3599   -2.9212 H   0  0  0  0  0  0  0  0  0  0  0  0
    9.3220  -11.2450   -4.5530 H   0  0  0  0  0  0  0  0  0  0  0  0
    6.0396  -14.4198   -1.9857 H   0  0  0  0  0  0  0  0  0  0  0  0
    7.0665   -8.7931   -2.8795 H   0  0  0  0  0  0  0  0  0  0  0  0
    5.9058   -6.5982   -2.7628 H   0  0  0  0  0  0  0  0  0  0  0  0
    2.0921   -8.6034   -2.9432 H   0  0  0  0  0  0  0  0  0  0  0  0
   -1.5676  -10.6986   -4.1839 H   0  0  0  0  0  0  0  0  0  0  0  0
   -1.1389  -10.7482   -6.6450 H   0  0  0  0  0  0  0  0  0  0  0  0
    1.1993  -10.9877   -7.4926 H   0  0  0  0  0  0  0  0  0  0  0  0
    4.2312  -11.5985   -0.9036 H   0  0  0  0  0  0  0  0  0  0  0  0
    4.1384  -13.3893   -1.1530 H   0  0  0  0  0  0  0  0  0  0  0  0
    9.4159  -13.1515   -6.9321 H   0  0  0  0  0  0  0  0  0  0  0  0
   11.1247  -14.7881   -7.6811 H   0  0  0  0  0  0  0  0  0  0  0  0
  1  2  2  0
  2  3  1  0
  2  4  1  0
  4  5  2  0
  5  6  1  0
  6  7  2  0
  7  8  1  0
  8  9  1  0
  9 10  2  0
 10 11  1  0
 11 12  2  0
 12 13  1  0
 13 14  2  0
 13 15  1  0
 15 16  2  0
 16 17  1  0
 17 18  2  0
 18 19  1  0
 18 20  1  0
 20 21  2  0
 21 22  1  0
 22 23  1  0
 23 24  2  0
 24 25  1  0
 24 26  1  0
 26 27  2  0
 27 28  1  0
 28 29  2  0
 29 30  1  0
 22 31  2  0
 31 32  1  0
  7 33  1  0
 33 34  2  0
 34  4  1  0
 14  9  1  0
 21 15  1  0
 29 23  1  0
 32 12  1  0
  5 35  1  0
  6 36  1  0
  8 37  1  0
 11 38  1  0
 16 39  1  0
 17 40  1  0
 20 41  1  0
 26 42  1  0
 27 43  1  0
 28 44  1  0
 32 45  1  0
 32 46  1  0
 33 47  1  0
 34 48  1  0
M  CHG  1   3  -1
M  END
>  <meeko>  (4) 
{"is_sidechain": [false], "free_energy": -9.556, "intermolecular_energy": -11.485, "internal_energy": -1.147}

$$$$
2wtv_ligand
     RDKit          3D

 48 52  0  0  0  0  0  0  0  0999 V2000
    7.3360   -1.3410    3.5580 O   0  0  0  0  0  0  0  0  0  0  0  0
    7.0890   -1.0790    2.3380 C   0  0  0  0  0  0  0  0  0  0  0  0
    7.0100    0.0840    1.8300 O   0  0  0  0  0  0  0  0  0  0  0  0
    6.8710   -2.2580    1.4090 C   0  0  0  0  0  0  0  0  0  0  0  0
    5.7270   -3.0590    1.5170 C   0  0  0  0  0  0  0  0  0  0  0  0
    5.5290   -4.1490    0.6600 C   0  0  0  0  0  0  0  0  0  0  0  0
    6.4640   -4.4780   -0.3350 C   0  0  0  0  0  0  0  0  0  0  0  0
    6.2040   -5.5870   -1.1500 N   0  0  0  0  0  0  0  0  0  0  0  0
    5.0660   -6.0980   -1.7630 C   0  0  0  0  0  0  0  0  0  0  0  0
    3.8340   -5.6870   -1.4420 N   0  0  0  0  0  0  0  0  0  0  0  0
    2.8010   -6.2440   -2.0970 C   0  0  0  0  0  0  0  0  0  0  0  0
    2.9450   -7.1950   -3.0790 C   0  0  0  0  0  0  0  0  0  0  0  0
    4.2430   -7.5750   -3.3480 C   0  0  0  0  0  0  0  0  0  0  0  0
    5.3010   -7.0260   -2.7050 N   0  0  0  0  0  0  0  0  0  0  0  0
    4.5770   -8.5650   -4.3920 C   0  0  0  0  0  0  0  0  0  0  0  0
    5.7410   -8.3740   -5.1710 C   0  0  0  0  0  0  0  0  0  0  0  0
    6.0930   -9.2510   -6.2000 C   0  0  0  0  0  0  0  0  0  0  0  0
    5.2800  -10.3400   -6.4770 C   0  0  0  0  0  0  0  0  0  0  0  0
    5.6960  -11.4170   -7.7540 Cl  0  0  0  0  0  0  0  0  0  0  0  0
    4.1310  -10.5680   -5.7280 C   0  0  0  0  0  0  0  0  0  0  0  0
    3.7830   -9.6980   -4.6780 C   0  0  0  0  0  0  0  0  0  0  0  0
    2.5580  -10.0430   -3.8810 C   0  0  0  0  0  0  0  0  0  0  0  0
    2.3690  -11.4620   -3.4830 C   0  0  0  0  0  0  0  0  0  0  0  0
    1.5320  -12.2970   -4.2210 C   0  0  0  0  0  0  0  0  0  0  0  0
    0.8670  -11.8350   -5.2880 F   0  0  0  0  0  0  0  0  0  0  0  0
    1.3680  -13.6360   -3.8670 C   0  0  0  0  0  0  0  0  0  0  0  0
    2.0510  -14.1520   -2.7650 C   0  0  0  0  0  0  0  0  0  0  0  0
    2.8910  -13.3210   -2.0210 C   0  0  0  0  0  0  0  0  0  0  0  0
    3.0480  -11.9830   -2.3840 C   0  0  0  0  0  0  0  0  0  0  0  0
    3.8300  -11.2070   -1.6210 F   0  0  0  0  0  0  0  0  0  0  0  0
    1.6490   -9.2110   -3.4960 N   0  0  0  0  0  0  0  0  0  0  0  0
    1.7870   -7.7930   -3.8010 C   0  0  0  0  0  0  0  0  0  0  0  0
    7.6030   -3.6770   -0.4400 C   0  0  0  0  0  0  0  0  0  0  0  0
    7.8040   -2.5850    0.4160 C   0  0  0  0  0  0  0  0  0  0  0  0
    4.9740   -2.8289    2.2852 H   0  0  0  0  0  0  0  0  0  0  0  0
    4.6213   -4.7608    0.7686 H   0  0  0  0  0  0  0  0  0  0  0  0
    6.9900   -6.1830   -1.3550 H   0  0  0  0  0  0  0  0  0  0  0  0
    1.7834   -5.9208   -1.8324 H   0  0  0  0  0  0  0  0  0  0  0  0
    6.3884   -7.5098   -4.9609 H   0  0  0  0  0  0  0  0  0  0  0  0
    7.0079   -9.0791   -6.7860 H   0  0  0  0  0  0  0  0  0  0  0  0
    3.4908  -11.4327   -5.9573 H   0  0  0  0  0  0  0  0  0  0  0  0
    0.7016  -14.2840   -4.4553 H   0  0  0  0  0  0  0  0  0  0  0  0
    1.9283  -15.2083   -2.4838 H   0  0  0  0  0  0  0  0  0  0  0  0
    3.4289  -13.7211   -1.1489 H   0  0  0  0  0  0  0  0  0  0  0  0
    1.9386   -7.6723   -4.8838 H   0  0  0  0  0  0  0  0  0  0  0  0
    0.8712   -7.2770   -3.4768 H   0  0  0  0  0  0  0  0  0  0  0  0
    8.3561   -3.9069   -1.2081 H   0  0  0  0  0  0  0  0  0  0  0  0
    8.7115   -1.9732    0.3060 H   0  0  0  0  0  0  0  0  0  0  0  0
  1  2  2  0
  2  3  1  0
  2  4  1  0
  4  5  2  0
  5  6  1  0
  6  7  2  0
  7  8  1  0
  8  9  1  0
  9 10  2  0
 10 11  1  0
 11 12  2  0
 12 13  1  0
 13 14  2  0
 13 15  1  0
 15 16  2  0
 16 17  1  0
 17 18  2  0
 18 19  1  0
 18 20  1  0
 20 21  2  0
 21 22  1  0
 22 23  1  0
 23 24  2  0
 24 25  1  0
 24 26  1  0
 26 27  2  0
 27 28  1  0
 28 29  2  0
 29 30  1  0
 22 31  2  0
 31 32  1  0
  7 33  1  0
 33 34  2  0
 34  4  1  0
 14  9  1  0
 21 15  1  0
 29 23  1  0
 32 12  1  0
  5 35  1  0
  6 36  1  0
  8 37  1  0
 11 38  1  0
 16 39  1  0
 17 40  1  0
 20 41  1  0
 26 42  1  0
 27 43  1  0
 28 44  1  0
 32 45  1  0
 32 46  1  0
 33 47  1  0
 34 48  1  0
M  CHG  1   3  -1
M  END
>  <meeko>  (5) 
{"is_sidechain": [false], "free_energy": -9.389, "intermolecular_energy": -11.611, "internal_energy": -0.815}

$$$$
2wtv_ligand
     RDKit          3D

 48 52  0  0  0  0  0  0  0  0999 V2000
   13.5700  -15.7690   -4.8310 O   0  0  0  0  0  0  0  0  0  0  0  0
   12.8820  -15.4580   -5.8560 C   0  0  0  0  0  0  0  0  0  0  0  0
   12.9710  -16.0000   -7.0020 O   0  0  0  0  0  0  0  0  0  0  0  0
   11.8660  -14.3430   -5.6910 C   0  0  0  0  0  0  0  0  0  0  0  0
   10.8440  -14.4340   -4.7380 C   0  0  0  0  0  0  0  0  0  0  0  0
    9.9070  -13.4040   -4.5900 C   0  0  0  0  0  0  0  0  0  0  0  0
    9.9550  -12.2480   -5.3870 C   0  0  0  0  0  0  0  0  0  0  0  0
    8.9790  -11.2640   -5.1890 N   0  0  0  0  0  0  0  0  0  0  0  0
    7.6440  -11.1300   -5.5530 C   0  0  0  0  0  0  0  0  0  0  0  0
    7.2700  -10.8000   -6.7940 N   0  0  0  0  0  0  0  0  0  0  0  0
    5.9530  -10.7000   -7.0420 C   0  0  0  0  0  0  0  0  0  0  0  0
    4.9800  -10.9310   -6.0980 C   0  0  0  0  0  0  0  0  0  0  0  0
    5.4420  -11.2580   -4.8410 C   0  0  0  0  0  0  0  0  0  0  0  0
    6.7640  -11.3700   -4.5660 N   0  0  0  0  0  0  0  0  0  0  0  0
    4.5320  -11.5650   -3.7190 C   0  0  0  0  0  0  0  0  0  0  0  0
    4.8890  -12.5810   -2.8040 C   0  0  0  0  0  0  0  0  0  0  0  0
    4.0550  -12.9470   -1.7440 C   0  0  0  0  0  0  0  0  0  0  0  0
    2.8370  -12.3050   -1.5800 C   0  0  0  0  0  0  0  0  0  0  0  0
    1.7960  -12.7600   -0.2870 Cl  0  0  0  0  0  0  0  0  0  0  0  0
    2.4530  -11.2930   -2.4530 C   0  0  0  0  0  0  0  0  0  0  0  0
    3.2980  -10.9080   -3.5110 C   0  0  0  0  0  0  0  0  0  0  0  0
    2.8370   -9.7710   -4.3760 C   0  0  0  0  0  0  0  0  0  0  0  0
    2.2510   -8.5840   -3.7030 C   0  0  0  0  0  0  0  0  0  0  0  0
    3.0620   -7.7060   -2.9860 C   0  0  0  0  0  0  0  0  0  0  0  0
    4.3790   -7.9240   -2.8740 F   0  0  0  0  0  0  0  0  0  0  0  0
    2.5220   -6.5770   -2.3700 C   0  0  0  0  0  0  0  0  0  0  0  0
    1.1550   -6.3170   -2.4720 C   0  0  0  0  0  0  0  0  0  0  0  0
    0.3360   -7.1910   -3.1880 C   0  0  0  0  0  0  0  0  0  0  0  0
    0.8860   -8.3180   -3.8010 C   0  0  0  0  0  0  0  0  0  0  0  0
    0.0620   -9.1570   -4.4440 F   0  0  0  0  0  0  0  0  0  0  0  0
    2.9140   -9.7240   -5.6640 N   0  0  0  0  0  0  0  0  0  0  0  0
    3.5240  -10.8260   -6.3950 C   0  0  0  0  0  0  0  0  0  0  0  0
   10.9760  -12.1610   -6.3360 C   0  0  0  0  0  0  0  0  0  0  0  0
   11.9170  -13.1900   -6.4860 C   0  0  0  0  0  0  0  0  0  0  0  0
   10.7764  -15.3258   -4.0976 H   0  0  0  0  0  0  0  0  0  0  0  0
    9.1154  -13.5022   -3.8326 H   0  0  0  0  0  0  0  0  0  0  0  0
    9.2710  -10.4440   -4.6810 H   0  0  0  0  0  0  0  0  0  0  0  0
    5.6356  -10.4176   -8.0566 H   0  0  0  0  0  0  0  0  0  0  0  0
    5.8513  -13.0988   -2.9297 H   0  0  0  0  0  0  0  0  0  0  0  0
    4.3626  -13.7386   -1.0449 H   0  0  0  0  0  0  0  0  0  0  0  0
    1.4840  -10.7907   -2.3161 H   0  0  0  0  0  0  0  0  0  0  0  0
    3.1725   -5.8931   -1.8050 H   0  0  0  0  0  0  0  0  0  0  0  0
    0.7247   -5.4268   -1.9900 H   0  0  0  0  0  0  0  0  0  0  0  0
   -0.7428   -6.9919   -3.2693 H   0  0  0  0  0  0  0  0  0  0  0  0
    3.0303  -11.7653   -6.1052 H   0  0  0  0  0  0  0  0  0  0  0  0
    3.4015  -10.6388   -7.4720 H   0  0  0  0  0  0  0  0  0  0  0  0
   11.0433  -11.2697   -6.9771 H   0  0  0  0  0  0  0  0  0  0  0  0
   12.7100  -13.0902   -7.2418 H   0  0  0  0  0  0  0  0  0  0  0  0
  1  2  2  0
  2  3  1  0
  2  4  1  0
  4  5  2  0
  5  6  1  0
  6  7  2  0
  7  8  1  0
  8  9  1  0
  9 10  2  0
 10 11  1  0
 11 12  2  0
 12 13  1  0
 13 14  2  0
 13 15  1  0
 15 16  2  0
 16 17  1  0
 17 18  2  0
 18 19  1  0
 18 20  1  0
 20 21  2  0
 21 22  1  0
 22 23  1  0
 23 24  2  0
 24 25  1  0
 24 26  1  0
 26 27  2  0
 27 28  1  0
 28 29  2  0
 29 30  1  0
 22 31  2  0
 31 32  1  0
  7 33  1  0
 33 34  2  0
 34  4  1  0
 14  9  1  0
 21 15  1  0
 29 23  1  0
 32 12  1  0
  5 35  1  0
  6 36  1  0
  8 37  1  0
 11 38  1  0
 16 39  1  0
 17 40  1  0
 20 41  1  0
 26 42  1  0
 27 43  1  0
 28 44  1  0
 32 45  1  0
 32 46  1  0
 33 47  1  0
 34 48  1  0
M  CHG  1   3  -1
M  END
>  <meeko>  (6) 
{"is_sidechain": [false], "free_energy": -9.348, "intermolecular_energy": -11.184, "internal_energy": -1.191}

$$$$
2wtv_ligand
     RDKit          3D

 48 52  0  0  0  0  0  0  0  0999 V2000
    4.0460  -20.6420   -3.9400 O   0  0  0  0  0  0  0  0  0  0  0  0
    5.1030  -19.9480   -4.0820 C   0  0  0  0  0  0  0  0  0  0  0  0
    6.2020  -20.3600   -4.5710 O   0  0  0  0  0  0  0  0  0  0  0  0
    5.0440  -18.5010   -3.6260 C   0  0  0  0  0  0  0  0  0  0  0  0
    5.9980  -17.9860   -2.7410 C   0  0  0  0  0  0  0  0  0  0  0  0
    5.9400  -16.6510   -2.3200 C   0  0  0  0  0  0  0  0  0  0  0  0
    4.9300  -15.7830   -2.7680 C   0  0  0  0  0  0  0  0  0  0  0  0
    4.9310  -14.4640   -2.2990 N   0  0  0  0  0  0  0  0  0  0  0  0
    5.4570  -13.2660   -2.7660 C   0  0  0  0  0  0  0  0  0  0  0  0
    6.7700  -13.0780   -2.9360 N   0  0  0  0  0  0  0  0  0  0  0  0
    7.1750  -11.8820   -3.3960 C   0  0  0  0  0  0  0  0  0  0  0  0
    6.3150  -10.8570   -3.7100 C   0  0  0  0  0  0  0  0  0  0  0  0
    4.9780  -11.1210   -3.5000 C   0  0  0  0  0  0  0  0  0  0  0  0
    4.5440  -12.3190   -3.0420 N   0  0  0  0  0  0  0  0  0  0  0  0
    3.9190  -10.1390   -3.8120 C   0  0  0  0  0  0  0  0  0  0  0  0
    2.6940  -10.5980   -4.3460 C   0  0  0  0  0  0  0  0  0  0  0  0
    1.6670   -9.7190   -4.6990 C   0  0  0  0  0  0  0  0  0  0  0  0
    1.8470   -8.3540   -4.5300 C   0  0  0  0  0  0  0  0  0  0  0  0
    0.5940   -7.2620   -4.9770 Cl  0  0  0  0  0  0  0  0  0  0  0  0
    3.0350   -7.8630   -3.9990 C   0  0  0  0  0  0  0  0  0  0  0  0
    4.0650   -8.7460   -3.6240 C   0  0  0  0  0  0  0  0  0  0  0  0
    5.2930   -8.1420   -3.0070 C   0  0  0  0  0  0  0  0  0  0  0  0
    5.1030   -7.0800   -1.9870 C   0  0  0  0  0  0  0  0  0  0  0  0
    5.9820   -6.0000   -1.9180 C   0  0  0  0  0  0  0  0  0  0  0  0
    7.0240   -5.9080   -2.7560 F   0  0  0  0  0  0  0  0  0  0  0  0
    5.7970   -4.9870   -0.9770 C   0  0  0  0  0  0  0  0  0  0  0  0
    4.7190   -5.0490   -0.0940 C   0  0  0  0  0  0  0  0  0  0  0  0
    3.8340   -6.1270   -0.1560 C   0  0  0  0  0  0  0  0  0  0  0  0
    4.0280   -7.1350   -1.1020 C   0  0  0  0  0  0  0  0  0  0  0  0
    3.1830   -8.1750   -1.1030 F   0  0  0  0  0  0  0  0  0  0  0  0
    6.5130   -8.4710   -3.2770 N   0  0  0  0  0  0  0  0  0  0  0  0
    6.7820   -9.5400   -4.2290 C   0  0  0  0  0  0  0  0  0  0  0  0
    3.9810  -16.3020   -3.6520 C   0  0  0  0  0  0  0  0  0  0  0  0
    4.0360  -17.6380   -4.0750 C   0  0  0  0  0  0  0  0  0  0  0  0
    6.8035  -18.6376   -2.3713 H   0  0  0  0  0  0  0  0  0  0  0  0
    6.7026  -16.2737   -1.6228 H   0  0  0  0  0  0  0  0  0  0  0  0
    4.4640  -14.3050   -1.4200 H   0  0  0  0  0  0  0  0  0  0  0  0
    8.2540  -11.7142   -3.5285 H   0  0  0  0  0  0  0  0  0  0  0  0
    2.5446  -11.6785   -4.4879 H   0  0  0  0  0  0  0  0  0  0  0  0
    0.7223  -10.1066   -5.1081 H   0  0  0  0  0  0  0  0  0  0  0  0
    3.1704   -6.7788   -3.8714 H   0  0  0  0  0  0  0  0  0  0  0  0
    6.4993   -4.1416   -0.9314 H   0  0  0  0  0  0  0  0  0  0  0  0
    4.5668   -4.2516    0.6483 H   0  0  0  0  0  0  0  0  0  0  0  0
    2.9842   -6.1820    0.5403 H   0  0  0  0  0  0  0  0  0  0  0  0
    6.2592   -9.3204   -5.1716 H   0  0  0  0  0  0  0  0  0  0  0  0
    7.8686   -9.5959   -4.3908 H   0  0  0  0  0  0  0  0  0  0  0  0
    3.1758  -15.6509   -4.0231 H   0  0  0  0  0  0  0  0  0  0  0  0
    3.2735  -18.0152   -4.7723 H   0  0  0  0  0  0  0  0  0  0  0  0
  1  2  2  0
  2  3  1  0
  2  4  1  0
  4  5  2  0
  5  6  1  0
  6  7  2  0
  7  8  1  0
  8  9  1  0
  9 10  2  0
 10 11  1  0
 11 12  2  0
 12 13  1  0
 13 14  2  0
 13 15  1  0
 15 16  2  0
 16 17  1  0
 17 18  2  0
 18 19  1  0
 18 20  1  0
 20 21  2  0
 21 22  1  0
 22 23  1  0
 23 24  2  0
 24 25  1  0
 24 26  1  0
 26 27  2  0
 27 28  1  0
 28 29  2  0
 29 30  1  0
 22 31  2  0
 31 32  1  0
  7 33  1  0
 33 34  2  0
 34  4  1  0
 14  9  1  0
 21 15  1  0
 29 23  1  0
 32 12  1  0
  5 35  1  0
  6 36  1  0
  8 37  1  0
 11 38  1  0
 16 39  1  0
 17 40  1  0
 20 41  1  0
 26 42  1  0
 27 43  1  0
 28 44  1  0
 32 45  1  0
 32 46  1  0
 33 47  1  0
 34 48  1  0
M  CHG  1   3  -1
M  END
>  <meeko>  (7) 
{"is_sidechain": [false], "free_energy": -9.229, "intermolecular_energy": -12.288, "internal_energy": 0.059}

$$$$
2wtv_ligand
     RDKit          3D

 48 52  0  0  0  0  0  0  0  0999 V2000
    8.8470   -0.3300    1.2600 O   0  0  0  0  0  0  0  0  0  0  0  0
    9.0850   -1.2150    0.3770 C   0  0  0  0  0  0  0  0  0  0  0  0
   10.0480   -1.1950   -0.4520 O   0  0  0  0  0  0  0  0  0  0  0  0
    8.1350   -2.3960    0.3110 C   0  0  0  0  0  0  0  0  0  0  0  0
    8.3310   -3.4270   -0.6160 C   0  0  0  0  0  0  0  0  0  0  0  0
    7.4510   -4.5150   -0.6760 C   0  0  0  0  0  0  0  0  0  0  0  0
    6.3460   -4.6150    0.1850 C   0  0  0  0  0  0  0  0  0  0  0  0
    5.5050   -5.7270    0.0610 N   0  0  0  0  0  0  0  0  0  0  0  0
    4.7030   -6.2310   -0.9560 C   0  0  0  0  0  0  0  0  0  0  0  0
    3.4600   -5.7890   -1.1750 N   0  0  0  0  0  0  0  0  0  0  0  0
    2.7700   -6.3430   -2.1870 C   0  0  0  0  0  0  0  0  0  0  0  0
    3.2780   -7.3210   -3.0090 C   0  0  0  0  0  0  0  0  0  0  0  0
    4.5610   -7.7310   -2.7170 C   0  0  0  0  0  0  0  0  0  0  0  0
    5.2790   -7.1870   -1.7050 N   0  0  0  0  0  0  0  0  0  0  0  0
    5.2660   -8.7530   -3.5170 C   0  0  0  0  0  0  0  0  0  0  0  0
    6.6510   -8.6030   -3.7540 C   0  0  0  0  0  0  0  0  0  0  0  0
    7.3690   -9.5120   -4.5350 C   0  0  0  0  0  0  0  0  0  0  0  0
    6.7120  -10.5930   -5.1040 C   0  0  0  0  0  0  0  0  0  0  0  0
    7.5850  -11.7090   -6.0820 Cl  0  0  0  0  0  0  0  0  0  0  0  0
    5.3510  -10.7810   -4.8890 C   0  0  0  0  0  0  0  0  0  0  0  0
    4.6280   -9.8780   -4.0870 C   0  0  0  0  0  0  0  0  0  0  0  0
    3.1750  -10.1800   -3.8560 C   0  0  0  0  0  0  0  0  0  0  0  0
    2.8020  -11.5850   -3.5490 C   0  0  0  0  0  0  0  0  0  0  0  0
    3.1940  -12.1730   -2.3480 C   0  0  0  0  0  0  0  0  0  0  0  0
    3.9290  -11.4940   -1.4580 F   0  0  0  0  0  0  0  0  0  0  0  0
    2.8280  -13.4840   -2.0430 C   0  0  0  0  0  0  0  0  0  0  0  0
    2.0570  -14.2180   -2.9440 C   0  0  0  0  0  0  0  0  0  0  0  0
    1.6610  -13.6350   -4.1500 C   0  0  0  0  0  0  0  0  0  0  0  0
    2.0320  -12.3230   -4.4450 C   0  0  0  0  0  0  0  0  0  0  0  0
    1.6680  -11.8130   -5.6300 F   0  0  0  0  0  0  0  0  0  0  0  0
    2.2110   -9.3210   -3.8900 N   0  0  0  0  0  0  0  0  0  0  0  0
    2.5010   -7.9150   -4.1330 C   0  0  0  0  0  0  0  0  0  0  0  0
    6.1550   -3.5840    1.1090 C   0  0  0  0  0  0  0  0  0  0  0  0
    7.0340   -2.4930    1.1720 C   0  0  0  0  0  0  0  0  0  0  0  0
    9.1867   -3.3819   -1.3057 H   0  0  0  0  0  0  0  0  0  0  0  0
    7.6296   -5.3100   -1.4150 H   0  0  0  0  0  0  0  0  0  0  0  0
    5.4240   -6.3160    0.8750 H   0  0  0  0  0  0  0  0  0  0  0  0
    1.7423   -5.9946   -2.3674 H   0  0  0  0  0  0  0  0  0  0  0  0
    7.1790   -7.7458   -3.3108 H   0  0  0  0  0  0  0  0  0  0  0  0
    8.4478   -9.3714   -4.6976 H   0  0  0  0  0  0  0  0  0  0  0  0
    4.8374  -11.6389   -5.3475 H   0  0  0  0  0  0  0  0  0  0  0  0
    3.1470  -13.9382   -1.0933 H   0  0  0  0  0  0  0  0  0  0  0  0
    1.7622  -15.2507   -2.7062 H   0  0  0  0  0  0  0  0  0  0  0  0
    1.0568  -14.2103   -4.8669 H   0  0  0  0  0  0  0  0  0  0  0  0
    3.0859   -7.8247   -5.0602 H   0  0  0  0  0  0  0  0  0  0  0  0
    1.5474   -7.3736   -4.2205 H   0  0  0  0  0  0  0  0  0  0  0  0
    5.2998   -3.6290    1.7993 H   0  0  0  0  0  0  0  0  0  0  0  0
    6.8556   -1.6984    1.9114 H   0  0  0  0  0  0  0  0  0  0  0  0
  1  2  2  0
  2  3  1  0
  2  4  1  0
  4  5  2  0
  5  6  1  0
  6  7  2  0
  7  8  1  0
  8  9  1  0
  9 10  2  0
 10 11  1  0
 11 12  2  0
 12 13  1  0
 13 14  2  0
 13 15  1  0
 15 16  2  0
 16 17  1  0
 17 18  2  0
 18 19  1  0
 18 20  1  0
 20 21  2  0
 21 22  1  0
 22 23  1  0
 23 24  2  0
 24 25  1  0
 24 26  1  0
 26 27  2  0
 27 28  1  0
 28 29  2  0
 29 30  1  0
 22 31  2  0
 31 32  1  0
  7 33  1  0
 33 34  2  0
 34  4  1  0
 14  9  1  0
 21 15  1  0
 29 23  1  0
 32 12  1  0
  5 35  1  0
  6 36  1  0
  8 37  1  0
 11 38  1  0
 16 39  1  0
 17 40  1  0
 20 41  1  0
 26 42  1  0
 27 43  1  0
 28 44  1  0
 32 45  1  0
 32 46  1  0
 33 47  1  0
 34 48  1  0
M  CHG  1   3  -1
M  END
>  <meeko>  (8) 
{"is_sidechain": [false], "free_energy": -8.978, "intermolecular_energy": -10.77, "internal_energy": -1.148}

$$$$
2wtv_ligand
     RDKit          3D

 48 52  0  0  0  0  0  0  0  0999 V2000
   13.2350   -8.7290   -5.4970 O   0  0  0  0  0  0  0  0  0  0  0  0
   12.4180   -9.3560   -6.2440 C   0  0  0  0  0  0  0  0  0  0  0  0
   12.3190   -9.2310   -7.5060 O   0  0  0  0  0  0  0  0  0  0  0  0
   11.4800  -10.3390   -5.5680 C   0  0  0  0  0  0  0  0  0  0  0  0
   10.9150  -11.4030   -6.2810 C   0  0  0  0  0  0  0  0  0  0  0  0
   10.0480  -12.3070   -5.6550 C   0  0  0  0  0  0  0  0  0  0  0  0
    9.7130  -12.1830   -4.2960 C   0  0  0  0  0  0  0  0  0  0  0  0
    8.8330  -13.1190   -3.7400 N   0  0  0  0  0  0  0  0  0  0  0  0
    7.5840  -13.0390   -3.1360 C   0  0  0  0  0  0  0  0  0  0  0  0
    7.0310  -14.0750   -2.4940 N   0  0  0  0  0  0  0  0  0  0  0  0
    5.8200  -13.8910   -1.9420 C   0  0  0  0  0  0  0  0  0  0  0  0
    5.1320  -12.7020   -1.9920 C   0  0  0  0  0  0  0  0  0  0  0  0
    5.7610  -11.6840   -2.6770 C   0  0  0  0  0  0  0  0  0  0  0  0
    6.9840  -11.8420   -3.2380 N   0  0  0  0  0  0  0  0  0  0  0  0
    5.1740  -10.3340   -2.8020 C   0  0  0  0  0  0  0  0  0  0  0  0
    6.0270   -9.2080   -2.7510 C   0  0  0  0  0  0  0  0  0  0  0  0
    5.5320   -7.9030   -2.8230 C   0  0  0  0  0  0  0  0  0  0  0  0
    4.1660   -7.6960   -2.9420 C   0  0  0  0  0  0  0  0  0  0  0  0
    3.5450   -6.0930   -3.0150 Cl  0  0  0  0  0  0  0  0  0  0  0  0
    3.2940   -8.7780   -3.0040 C   0  0  0  0  0  0  0  0  0  0  0  0
    3.7890  -10.0950   -2.9510 C   0  0  0  0  0  0  0  0  0  0  0  0
    2.7900  -11.2070   -3.0800 C   0  0  0  0  0  0  0  0  0  0  0  0
    1.7390  -11.0750   -4.1210 C   0  0  0  0  0  0  0  0  0  0  0  0
    2.0700  -11.1460   -5.4730 C   0  0  0  0  0  0  0  0  0  0  0  0
    3.3410  -11.3150   -5.8610 F   0  0  0  0  0  0  0  0  0  0  0  0
    1.0850  -11.0450   -6.4560 C   0  0  0  0  0  0  0  0  0  0  0  0
   -0.2490  -10.8750   -6.0860 C   0  0  0  0  0  0  0  0  0  0  0  0
   -0.5890  -10.8020   -4.7350 C   0  0  0  0  0  0  0  0  0  0  0  0
    0.4040  -10.9050   -3.7600 C   0  0  0  0  0  0  0  0  0  0  0  0
    0.0440  -10.7880   -2.4730 F   0  0  0  0  0  0  0  0  0  0  0  0
    2.7660  -12.2860   -2.3700 N   0  0  0  0  0  0  0  0  0  0  0  0
    3.7940  -12.5150   -1.3650 C   0  0  0  0  0  0  0  0  0  0  0  0
   10.2790  -11.1200   -3.5890 C   0  0  0  0  0  0  0  0  0  0  0  0
   11.1480  -10.2130   -4.2120 C   0  0  0  0  0  0  0  0  0  0  0  0
   11.1552  -11.5306   -7.3468 H   0  0  0  0  0  0  0  0  0  0  0  0
    9.6192  -13.1335   -6.2407 H   0  0  0  0  0  0  0  0  0  0  0  0
    9.1410  -14.0780   -3.7480 H   0  0  0  0  0  0  0  0  0  0  0  0
    5.3528  -14.7395   -1.4207 H   0  0  0  0  0  0  0  0  0  0  0  0
    7.1114   -9.3633   -2.6518 H   0  0  0  0  0  0  0  0  0  0  0  0
    6.2210   -7.0463   -2.7855 H   0  0  0  0  0  0  0  0  0  0  0  0
    2.2117   -8.6037   -3.0949 H   0  0  0  0  0  0  0  0  0  0  0  0
    1.3597  -11.0993   -7.5198 H   0  0  0  0  0  0  0  0  0  0  0  0
   -1.0302  -10.7988   -6.8567 H   0  0  0  0  0  0  0  0  0  0  0  0
   -1.6392  -10.6633   -4.4385 H   0  0  0  0  0  0  0  0  0  0  0  0
    3.8332  -11.6484   -0.6887 H   0  0  0  0  0  0  0  0  0  0  0  0
    3.5395  -13.4303   -0.8105 H   0  0  0  0  0  0  0  0  0  0  0  0
   10.0386  -10.9918   -2.5233 H   0  0  0  0  0  0  0  0  0  0  0  0
   11.5772   -9.3872   -3.6257 H   0  0  0  0  0  0  0  0  0  0  0  0
  1  2  2  0
  2  3  1  0
  2  4  1  0
  4  5  2  0
  5  6  1  0
  6  7  2  0
  7  8  1  0
  8  9  1  0
  9 10  2  0
 10 11  1  0
 11 12  2  0
 12 13  1  0
 13 14  2  0
 13 15  1  0
 15 16  2  0
 16 17  1  0
 17 18  2  0
 18 19  1  0
 18 20  1  0
 20 21  2  0
 21 22  1  0
 22 23  1  0
 23 24  2  0
 24 25  1  0
 24 26  1  0
 26 27  2  0
 27 28  1  0
 28 29  2  0
 29 30  1  0
 22 31  2  0
 31 32  1  0
  7 33  1  0
 33 34  2  0
 34  4  1  0
 14  9  1  0
 21 15  1  0
 29 23  1  0
 32 12  1  0
  5 35  1  0
  6 36  1  0
  8 37  1  0
 11 38  1  0
 16 39  1  0
 17 40  1  0
 20 41  1  0
 26 42  1  0
 27 43  1  0
 28 44  1  0
 32 45  1  0
 32 46  1  0
 33 47  1  0
 34 48  1  0
M  CHG  1   3  -1
M  END
>  <meeko>  (9) 
{"is_sidechain": [false], "free_energy": -8.782, "intermolecular_energy": -10.472, "internal_energy": -1.205}

$$$$
