3b65_ligand
     RDKit          3D

 39 40  0  0  0  0  0  0  0  0999 V2000
   29.3050   -0.9090    2.8630 C   0  0  0  0  0  0  0  0  0  0  0  0
   29.5540    0.3350    3.7170 C   0  0  2  0  0  0  0  0  0  0  0  0
   30.5620    1.0970    3.0280 O   0  0  0  0  0  0  0  0  0  0  0  0
   30.0630    0.0050    5.1360 C   0  0  0  0  0  0  0  0  0  0  0  0
   30.1480    1.1980    5.9230 O   0  0  0  0  0  0  0  0  0  0  0  0
   29.8580    1.0980    7.2540 C   0  0  0  0  0  0  0  0  0  0  0  0
   29.1000    2.0020    8.0010 C   0  0  0  0  0  0  0  0  0  0  0  0
   28.8780    1.7730    9.3640 C   0  0  0  0  0  0  0  0  0  0  0  0
   29.4120    0.6410    9.9890 C   0  0  0  0  0  0  0  0  0  0  0  0
   29.1800    0.4100   11.3840 C   0  0  0  0  0  0  0  0  0  0  0  0
   28.9860    0.2240   12.5130 N   0  0  0  0  0  0  0  0  0  0  0  0
   30.1700   -0.2630    9.2420 C   0  0  0  0  0  0  0  0  0  0  0  0
   30.3900   -0.0310    7.8820 C   0  0  0  0  0  0  0  0  0  0  0  0
   28.2800    1.2090    3.8470 C   0  0  0  0  0  0  0  0  0  0  0  0
   27.2000    0.6560    4.0610 O   0  0  0  0  0  0  0  0  0  0  0  0
   28.4720    2.5670    3.6590 N   0  0  0  0  0  0  0  0  0  0  0  0
   27.4940    3.5850    3.6900 C   0  0  0  0  0  0  0  0  0  0  0  0
   27.9440    4.9000    3.5270 C   0  0  0  0  0  0  0  0  0  0  0  0
   27.0440    5.9710    3.5440 C   0  0  0  0  0  0  0  0  0  0  0  0
   25.6730    5.7470    3.7230 C   0  0  0  0  0  0  0  0  0  0  0  0
   24.7960    6.8830    3.7310 C   0  0  0  0  0  0  0  0  0  0  0  0
   24.1170    7.8240    3.7280 N   0  0  0  0  0  0  0  0  0  0  0  0
   25.2200    4.4340    3.8860 C   0  0  0  0  0  0  0  0  0  0  0  0
   23.1880    3.9650    4.1630 I   0  0  0  0  0  0  0  0  0  0  0  0
   26.1270    3.3600    3.8700 C   0  0  0  0  0  0  0  0  0  0  0  0
   29.1316   -1.7751    3.5186 H   0  0  0  0  0  0  0  0  0  0  0  0
   28.4215   -0.7470    2.2281 H   0  0  0  0  0  0  0  0  0  0  0  0
   30.1828   -1.0996    2.2281 H   0  0  0  0  0  0  0  0  0  0  0  0
   30.3920    2.0380    3.2410 H   0  0  0  0  0  0  0  0  0  0  0  0
   29.3670   -0.6982    5.6168 H   0  0  0  0  0  0  0  0  0  0  0  0
   31.0632   -0.4467    5.0615 H   0  0  0  0  0  0  0  0  0  0  0  0
   28.6769    2.8951    7.5179 H   0  0  0  0  0  0  0  0  0  0  0  0
   28.2796    2.4880    9.9476 H   0  0  0  0  0  0  0  0  0  0  0  0
   30.5934   -1.1567    9.7237 H   0  0  0  0  0  0  0  0  0  0  0  0
   30.9892   -0.7457    7.2987 H   0  0  0  0  0  0  0  0  0  0  0  0
   29.4220    2.8840    3.5110 H   0  0  0  0  0  0  0  0  0  0  0  0
   29.0173    5.0937    3.3839 H   0  0  0  0  0  0  0  0  0  0  0  0
   27.4164    6.9981    3.4157 H   0  0  0  0  0  0  0  0  0  0  0  0
   25.7567    2.3324    4.0005 H   0  0  0  0  0  0  0  0  0  0  0  0
  1  2  1  0
  2  3  1  6
  2  4  1  0
  4  5  1  0
  5  6  1  0
  6  7  2  0
  7  8  1  0
  8  9  2  0
  9 10  1  0
 10 11  3  0
  9 12  1  0
 12 13  2  0
  2 14  1  0
 14 15  2  0
 14 16  1  0
 16 17  1  0
 17 18  2  0
 18 19  1  0
 19 20  2  0
 20 21  1  0
 21 22  3  0
 20 23  1  0
 23 24  1  0
 23 25  2  0
 13  6  1  0
 25 17  1  0
  1 26  1  0
  1 27  1  0
  1 28  1  0
  3 29  1  0
  4 30  1  0
  4 31  1  0
  7 32  1  0
  8 33  1  0
 12 34  1  0
 13 35  1  0
 16 36  1  0
 18 37  1  0
 19 38  1  0
 25 39  1  0
M  END
>  <meeko>  (1) 
{"is_sidechain": [false], "free_energy": -10.849, "intermolecular_energy": -14.337, "internal_energy": -0.485}

$$$$
3b65_ligand
     RDKit          3D

 39 40  0  0  0  0  0  0  0  0999 V2000
   29.9820   -1.5200    3.2290 C   0  0  0  0  0  0  0  0  0  0  0  0
   29.9110   -0.1390    3.8790 C   0  0  2  0  0  0  0  0  0  0  0  0
   30.5890    0.7610    2.9840 O   0  0  0  0  0  0  0  0  0  0  0  0
   30.5990   -0.0820    5.2590 C   0  0  0  0  0  0  0  0  0  0  0  0
   30.1420    1.0570    5.9960 O   0  0  0  0  0  0  0  0  0  0  0  0
   29.8720    0.8850    7.3230 C   0  0  0  0  0  0  0  0  0  0  0  0
   30.2700   -0.1960    8.1120 C   0  0  0  0  0  0  0  0  0  0  0  0
   29.9230   -0.2420    9.4670 C   0  0  0  0  0  0  0  0  0  0  0  0
   29.1770    0.7910   10.0430 C   0  0  0  0  0  0  0  0  0  0  0  0
   28.8260    0.7400   11.4310 C   0  0  0  0  0  0  0  0  0  0  0  0
   28.5470    0.6980   12.5570 N   0  0  0  0  0  0  0  0  0  0  0  0
   28.7770    1.8720    9.2550 C   0  0  0  0  0  0  0  0  0  0  0  0
   29.1250    1.9150    7.9020 C   0  0  0  0  0  0  0  0  0  0  0  0
   28.4460    0.3440    4.0450 C   0  0  0  0  0  0  0  0  0  0  0  0
   27.5860   -0.4710    4.3800 O   0  0  0  0  0  0  0  0  0  0  0  0
   28.2260    1.6790    3.7470 N   0  0  0  0  0  0  0  0  0  0  0  0
   26.9980    2.3750    3.7820 C   0  0  0  0  0  0  0  0  0  0  0  0
   25.8380    1.6050    3.9260 C   0  0  0  0  0  0  0  0  0  0  0  0
   24.5780    2.2120    3.9710 C   0  0  0  0  0  0  0  0  0  0  0  0
   24.4540    3.6030    3.8740 C   0  0  0  0  0  0  0  0  0  0  0  0
   23.1370    4.1710    3.9260 C   0  0  0  0  0  0  0  0  0  0  0  0
   22.0570    4.5940    3.9760 N   0  0  0  0  0  0  0  0  0  0  0  0
   25.6110    4.3760    3.7300 C   0  0  0  0  0  0  0  0  0  0  0  0
   25.5590    6.4720    3.5740 I   0  0  0  0  0  0  0  0  0  0  0  0
   26.8760    3.7630    3.6850 C   0  0  0  0  0  0  0  0  0  0  0  0
   30.0217   -2.2920    4.0116 H   0  0  0  0  0  0  0  0  0  0  0  0
   29.0908   -1.6772    2.6037 H   0  0  0  0  0  0  0  0  0  0  0  0
   30.8847   -1.5850    2.6037 H   0  0  0  0  0  0  0  0  0  0  0  0
   30.0520    1.5800    2.9540 H   0  0  0  0  0  0  0  0  0  0  0  0
   30.3610   -0.9971    5.8211 H   0  0  0  0  0  0  0  0  0  0  0  0
   31.6863   -0.0009    5.1134 H   0  0  0  0  0  0  0  0  0  0  0  0
   30.8574   -1.0130    7.6677 H   0  0  0  0  0  0  0  0  0  0  0  0
   30.2393   -1.0966   10.0831 H   0  0  0  0  0  0  0  0  0  0  0  0
   28.1887    2.6888    9.6985 H   0  0  0  0  0  0  0  0  0  0  0  0
   28.8075    2.7691    7.2858 H   0  0  0  0  0  0  0  0  0  0  0  0
   29.0340    2.2380    3.5050 H   0  0  0  0  0  0  0  0  0  0  0  0
   25.9178    0.5107    4.0047 H   0  0  0  0  0  0  0  0  0  0  0  0
   23.6772    1.5908    4.0836 H   0  0  0  0  0  0  0  0  0  0  0  0
   27.7779    4.3826    3.5723 H   0  0  0  0  0  0  0  0  0  0  0  0
  1  2  1  0
  2  3  1  6
  2  4  1  0
  4  5  1  0
  5  6  1  0
  6  7  2  0
  7  8  1  0
  8  9  2  0
  9 10  1  0
 10 11  3  0
  9 12  1  0
 12 13  2  0
  2 14  1  0
 14 15  2  0
 14 16  1  0
 16 17  1  0
 17 18  2  0
 18 19  1  0
 19 20  2  0
 20 21  1  0
 21 22  3  0
 20 23  1  0
 23 24  1  0
 23 25  2  0
 13  6  1  0
 25 17  1  0
  1 26  1  0
  1 27  1  0
  1 28  1  0
  3 29  1  0
  4 30  1  0
  4 31  1  0
  7 32  1  0
  8 33  1  0
 12 34  1  0
 13 35  1  0
 16 36  1  0
 18 37  1  0
 19 38  1  0
 25 39  1  0
M  END
>  <meeko>  (2) 
{"is_sidechain": [false], "free_energy": -9.514, "intermolecular_energy": -12.722, "internal_energy": -0.336}

$$$$
