1ydr_ligand
     RDKit          3D

 38 40  0  0  0  0  0  0  0  0999 V2000
   10.6180    8.3010    1.2570 C   0  0  0  0  0  0  0  0  0  0  0  0
   10.2090    8.2490    2.7250 C   0  0  1  0  0  0  0  0  0  0  0  0
   11.3170    7.6120    3.6050 C   0  0  0  0  0  0  0  0  0  0  0  0
   11.3820    8.2750    4.9480 N   0  0  0  0  0  0  0  0  0  0  0  0
   11.7350    9.7330    4.8710 C   0  0  0  0  0  0  0  0  0  0  0  0
   11.0180   10.4200    3.6890 C   0  0  0  0  0  0  0  0  0  0  0  0
    9.8320    9.6450    3.1850 N   0  0  0  0  0  0  0  0  0  0  0  0
    8.4330    9.6660    4.1880 S   0  0  0  0  0  0  0  0  0  0  0  0
    8.5900   10.8950    4.9500 O   0  0  0  0  0  0  0  0  0  0  0  0
    8.3520    8.3920    4.8600 O   0  0  0  0  0  0  0  0  0  0  0  0
    7.0760    9.8240    3.0610 C   0  0  0  0  0  0  0  0  0  0  0  0
    7.3870    9.9140    1.6950 C   0  0  0  0  0  0  0  0  0  0  0  0
    6.3670    9.9880    0.7540 C   0  0  0  0  0  0  0  0  0  0  0  0
    5.0400    9.9670    1.1730 C   0  0  0  0  0  0  0  0  0  0  0  0
    4.7150    9.8880    2.5390 C   0  0  0  0  0  0  0  0  0  0  0  0
    3.3830    9.8710    2.9610 C   0  0  0  0  0  0  0  0  0  0  0  0
    2.9870    9.8010    4.2490 N   0  0  0  0  0  0  0  0  0  0  0  0
    3.9570    9.7710    5.1770 C   0  0  0  0  0  0  0  0  0  0  0  0
    5.3100    9.7790    4.8720 C   0  0  0  0  0  0  0  0  0  0  0  0
    5.7300    9.8270    3.5210 C   0  0  0  0  0  0  0  0  0  0  0  0
   11.7068    8.4394    1.1844 H   0  0  0  0  0  0  0  0  0  0  0  0
   10.3344    7.3596    0.7638 H   0  0  0  0  0  0  0  0  0  0  0  0
   10.1078    9.1415    0.7638 H   0  0  0  0  0  0  0  0  0  0  0  0
    9.3296    7.5976    2.8358 H   0  0  0  0  0  0  0  0  0  0  0  0
   11.0979    6.5427    3.7416 H   0  0  0  0  0  0  0  0  0  0  0  0
   12.2855    7.7448    3.1007 H   0  0  0  0  0  0  0  0  0  0  0  0
   12.0060    7.7760    5.5930 H   0  0  0  0  0  0  0  0  0  0  0  0
   10.4350    8.2340    5.3830 H   0  0  0  0  0  0  0  0  0  0  0  0
   11.4342   10.2248    5.8078 H   0  0  0  0  0  0  0  0  0  0  0  0
   12.8208    9.8206    4.7178 H   0  0  0  0  0  0  0  0  0  0  0  0
   10.6737   11.4117    4.0175 H   0  0  0  0  0  0  0  0  0  0  0  0
   11.7405   10.4867    2.8622 H   0  0  0  0  0  0  0  0  0  0  0  0
    8.4377    9.9259    1.3696 H   0  0  0  0  0  0  0  0  0  0  0  0
    6.6073   10.0628   -0.3168 H   0  0  0  0  0  0  0  0  0  0  0  0
    4.2343   10.0128    0.4255 H   0  0  0  0  0  0  0  0  0  0  0  0
    2.6016    9.9180    2.1882 H   0  0  0  0  0  0  0  0  0  0  0  0
    3.6627    9.7383    6.2364 H   0  0  0  0  0  0  0  0  0  0  0  0
    6.0563    9.7481    5.6795 H   0  0  0  0  0  0  0  0  0  0  0  0
  1  2  1  0
  2  3  1  0
  3  4  1  0
  4  5  1  0
  5  6  1  0
  6  7  1  0
  7  8  1  0
  8  9  2  0
  8 10  2  0
  8 11  1  0
 11 12  2  0
 12 13  1  0
 13 14  2  0
 14 15  1  0
 15 16  2  0
 16 17  1  0
 17 18  2  0
 18 19  1  0
 19 20  2  0
  7  2  1  0
 20 11  1  0
 20 15  1  0
  1 21  1  0
  1 22  1  0
  1 23  1  0
  2 24  1  6
  3 25  1  0
  3 26  1  0
  4 27  1  0
  4 28  1  0
  5 29  1  0
  5 30  1  0
  6 31  1  0
  6 32  1  0
 12 33  1  0
 13 34  1  0
 14 35  1  0
 16 36  1  0
 18 37  1  0
 19 38  1  0
M  CHG  1   4   1
M  END
>  <meeko>  (1) 
{"is_sidechain": [false], "free_energy": -8.677, "intermolecular_energy": -9.692, "internal_energy": -0.503}

$$$$
1ydr_ligand
     RDKit          3D

 38 40  0  0  0  0  0  0  0  0999 V2000
   12.6880    8.2380    1.6720 C   0  0  0  0  0  0  0  0  0  0  0  0
   12.0650    7.8960    3.0220 C   0  0  1  0  0  0  0  0  0  0  0  0
   13.0870    7.2110    3.9670 C   0  0  0  0  0  0  0  0  0  0  0  0
   12.8690    7.6330    5.3890 N   0  0  0  0  0  0  0  0  0  0  0  0
   13.0660    9.1070    5.6040 C   0  0  0  0  0  0  0  0  0  0  0  0
   12.4690    9.9270    4.4410 C   0  0  0  0  0  0  0  0  0  0  0  0
   11.4690    9.1550    3.6250 N   0  0  0  0  0  0  0  0  0  0  0  0
    9.9380    8.8840    4.3640 S   0  0  0  0  0  0  0  0  0  0  0  0
    9.9260    9.8400    5.4610 O   0  0  0  0  0  0  0  0  0  0  0  0
    9.8150    7.4710    4.6230 O   0  0  0  0  0  0  0  0  0  0  0  0
    8.7560    9.3620    3.1340 C   0  0  0  0  0  0  0  0  0  0  0  0
    9.2160    9.4630    1.8120 C   0  0  0  0  0  0  0  0  0  0  0  0
    8.3280    9.7830    0.7910 C   0  0  0  0  0  0  0  0  0  0  0  0
    6.9850    9.9970    1.0870 C   0  0  0  0  0  0  0  0  0  0  0  0
    6.5140    9.9110    2.4090 C   0  0  0  0  0  0  0  0  0  0  0  0
    5.1670   10.1300    2.7080 C   0  0  0  0  0  0  0  0  0  0  0  0
    4.6360   10.0700    3.9470 N   0  0  0  0  0  0  0  0  0  0  0  0
    5.4840    9.8030    4.9530 C   0  0  0  0  0  0  0  0  0  0  0  0
    6.8380    9.5640    4.7720 C   0  0  0  0  0  0  0  0  0  0  0  0
    7.3950    9.6020    3.4710 C   0  0  0  0  0  0  0  0  0  0  0  0
   13.6422    8.7618    1.8307 H   0  0  0  0  0  0  0  0  0  0  0  0
   12.8677    7.3121    1.1060 H   0  0  0  0  0  0  0  0  0  0  0  0
   12.0033    8.8867    1.1060 H   0  0  0  0  0  0  0  0  0  0  0  0
   11.2576    7.1633    2.8765 H   0  0  0  0  0  0  0  0  0  0  0  0
   12.9699    6.1197    3.8934 H   0  0  0  0  0  0  0  0  0  0  0  0
   14.1010    7.5106    3.6636 H   0  0  0  0  0  0  0  0  0  0  0  0
   13.4360    7.0830    6.0440 H   0  0  0  0  0  0  0  0  0  0  0  0
   11.8760    7.4380    5.6430 H   0  0  0  0  0  0  0  0  0  0  0  0
   12.5716    9.4018    6.5414 H   0  0  0  0  0  0  0  0  0  0  0  0
   14.1460    9.3097    5.6538 H   0  0  0  0  0  0  0  0  0  0  0  0
   11.9697   10.8138    4.8585 H   0  0  0  0  0  0  0  0  0  0  0  0
   13.2988   10.1974    3.7714 H   0  0  0  0  0  0  0  0  0  0  0  0
   10.2779    9.2892    1.5837 H   0  0  0  0  0  0  0  0  0  0  0  0
    8.6853    9.8666   -0.2460 H   0  0  0  0  0  0  0  0  0  0  0  0
    6.2823   10.2367    0.2754 H   0  0  0  0  0  0  0  0  0  0  0  0
    4.4909   10.3684    1.8737 H   0  0  0  0  0  0  0  0  0  0  0  0
    5.0829    9.7721    5.9768 H   0  0  0  0  0  0  0  0  0  0  0  0
    7.4789    9.3450    5.6388 H   0  0  0  0  0  0  0  0  0  0  0  0
  1  2  1  0
  2  3  1  0
  3  4  1  0
  4  5  1  0
  5  6  1  0
  6  7  1  0
  7  8  1  0
  8  9  2  0
  8 10  2  0
  8 11  1  0
 11 12  2  0
 12 13  1  0
 13 14  2  0
 14 15  1  0
 15 16  2  0
 16 17  1  0
 17 18  2  0
 18 19  1  0
 19 20  2  0
  7  2  1  0
 20 11  1  0
 20 15  1  0
  1 21  1  0
  1 22  1  0
  1 23  1  0
  2 24  1  6
  3 25  1  0
  3 26  1  0
  4 27  1  0
  4 28  1  0
  5 29  1  0
  5 30  1  0
  6 31  1  0
  6 32  1  0
 12 33  1  0
 13 34  1  0
 14 35  1  0
 16 36  1  0
 18 37  1  0
 19 38  1  0
M  CHG  1   4   1
M  END
>  <meeko>  (2) 
{"is_sidechain": [false], "free_energy": -8.183, "intermolecular_energy": -9.268, "internal_energy": -0.375}

$$$$
1ydr_ligand
     RDKit          3D

 38 40  0  0  0  0  0  0  0  0999 V2000
   11.6020   10.6390    2.2450 C   0  0  0  0  0  0  0  0  0  0  0  0
   11.2920    9.1510    2.3700 C   0  0  1  0  0  0  0  0  0  0  0  0
   12.5370    8.2800    2.0560 C   0  0  0  0  0  0  0  0  0  0  0  0
   12.5730    7.0620    2.9290 N   0  0  0  0  0  0  0  0  0  0  0  0
   12.6830    7.3860    4.3920 C   0  0  0  0  0  0  0  0  0  0  0  0
   11.7990    8.5940    4.7650 C   0  0  0  0  0  0  0  0  0  0  0  0
   10.7250    8.8770    3.7510 N   0  0  0  0  0  0  0  0  0  0  0  0
    9.4010    7.7760    3.7250 S   0  0  0  0  0  0  0  0  0  0  0  0
    9.5140    7.0910    5.0030 O   0  0  0  0  0  0  0  0  0  0  0  0
    9.4650    7.0360    2.4890 O   0  0  0  0  0  0  0  0  0  0  0  0
    7.9610    8.8080    3.7190 C   0  0  0  0  0  0  0  0  0  0  0  0
    7.2850    8.9690    4.9390 C   0  0  0  0  0  0  0  0  0  0  0  0
    6.1780    9.8070    5.0140 C   0  0  0  0  0  0  0  0  0  0  0  0
    5.7490   10.4850    3.8770 C   0  0  0  0  0  0  0  0  0  0  0  0
    6.4100   10.3230    2.6460 C   0  0  0  0  0  0  0  0  0  0  0  0
    5.9770   11.0000    1.5030 C   0  0  0  0  0  0  0  0  0  0  0  0
    6.5510   10.8970    0.2870 N   0  0  0  0  0  0  0  0  0  0  0  0
    7.5960   10.0620    0.1820 C   0  0  0  0  0  0  0  0  0  0  0  0
    8.1130    9.3440    1.2510 C   0  0  0  0  0  0  0  0  0  0  0  0
    7.5290    9.4670    2.5340 C   0  0  0  0  0  0  0  0  0  0  0  0
   11.6939   11.0800    3.2485 H   0  0  0  0  0  0  0  0  0  0  0  0
   12.5471   10.7720    1.6981 H   0  0  0  0  0  0  0  0  0  0  0  0
   10.7886   11.1383    1.6981 H   0  0  0  0  0  0  0  0  0  0  0  0
   10.5358    8.8713    1.6217 H   0  0  0  0  0  0  0  0  0  0  0  0
   12.5005    7.9666    1.0022 H   0  0  0  0  0  0  0  0  0  0  0  0
   13.4406    8.8769    2.2489 H   0  0  0  0  0  0  0  0  0  0  0  0
   13.3050    6.4030    2.6390 H   0  0  0  0  0  0  0  0  0  0  0  0
   11.6710    6.5490    2.8180 H   0  0  0  0  0  0  0  0  0  0  0  0
   12.3619    6.5122    4.9779 H   0  0  0  0  0  0  0  0  0  0  0  0
   13.7301    7.6393    4.6144 H   0  0  0  0  0  0  0  0  0  0  0  0
   11.3201    8.3909    5.7342 H   0  0  0  0  0  0  0  0  0  0  0  0
   12.4526    9.4779    4.8046 H   0  0  0  0  0  0  0  0  0  0  0  0
    7.6309    8.4326    5.8349 H   0  0  0  0  0  0  0  0  0  0  0  0
    5.6440    9.9334    5.9673 H   0  0  0  0  0  0  0  0  0  0  0  0
    4.8807   11.1572    3.9418 H   0  0  0  0  0  0  0  0  0  0  0  0
    5.1059   11.6643    1.6020 H   0  0  0  0  0  0  0  0  0  0  0  0
    8.0681    9.9401   -0.8041 H   0  0  0  0  0  0  0  0  0  0  0  0
    8.9766    8.6794    1.1011 H   0  0  0  0  0  0  0  0  0  0  0  0
  1  2  1  0
  2  3  1  0
  3  4  1  0
  4  5  1  0
  5  6  1  0
  6  7  1  0
  7  8  1  0
  8  9  2  0
  8 10  2  0
  8 11  1  0
 11 12  2  0
 12 13  1  0
 13 14  2  0
 14 15  1  0
 15 16  2  0
 16 17  1  0
 17 18  2  0
 18 19  1  0
 19 20  2  0
  7  2  1  0
 20 11  1  0
 20 15  1  0
  1 21  1  0
  1 22  1  0
  1 23  1  0
  2 24  1  6
  3 25  1  0
  3 26  1  0
  4 27  1  0
  4 28  1  0
  5 29  1  0
  5 30  1  0
  6 31  1  0
  6 32  1  0
 12 33  1  0
 13 34  1  0
 14 35  1  0
 16 36  1  0
 18 37  1  0
 19 38  1  0
M  CHG  1   4   1
M  END
>  <meeko>  (3) 
{"is_sidechain": [false], "free_energy": -8.082, "intermolecular_energy": -9.342, "internal_energy": -0.188}

$$$$
1ydr_ligand
     RDKit          3D

 38 40  0  0  0  0  0  0  0  0999 V2000
   12.6370    7.2250    4.9440 C   0  0  0  0  0  0  0  0  0  0  0  0
   12.8460    8.5430    4.2060 C   0  0  1  0  0  0  0  0  0  0  0  0
   14.3300    8.7420    3.7990 C   0  0  0  0  0  0  0  0  0  0  0  0
   14.4340    9.4320    2.4720 N   0  0  0  0  0  0  0  0  0  0  0  0
   13.8220    8.6460    1.3480 C   0  0  0  0  0  0  0  0  0  0  0  0
   12.5010    7.9790    1.7850 C   0  0  0  0  0  0  0  0  0  0  0  0
   11.9040    8.6010    3.0170 N   0  0  0  0  0  0  0  0  0  0  0  0
   11.1810   10.1490    2.8090 S   0  0  0  0  0  0  0  0  0  0  0  0
   11.0160   10.2460    1.3670 O   0  0  0  0  0  0  0  0  0  0  0  0
   11.9860   11.1120    3.5200 O   0  0  0  0  0  0  0  0  0  0  0  0
    9.5980   10.0130    3.5910 C   0  0  0  0  0  0  0  0  0  0  0  0
    9.5750   10.0350    4.9940 C   0  0  0  0  0  0  0  0  0  0  0  0
    8.3610    9.9840    5.6690 C   0  0  0  0  0  0  0  0  0  0  0  0
    7.1730    9.9170    4.9470 C   0  0  0  0  0  0  0  0  0  0  0  0
    7.1830    9.8830    3.5410 C   0  0  0  0  0  0  0  0  0  0  0  0
    5.9910    9.8120    2.8160 C   0  0  0  0  0  0  0  0  0  0  0  0
    5.9140    9.7710    1.4690 N   0  0  0  0  0  0  0  0  0  0  0  0
    7.0770    9.7770    0.7990 C   0  0  0  0  0  0  0  0  0  0  0  0
    8.3170    9.8510    1.4150 C   0  0  0  0  0  0  0  0  0  0  0  0
    8.4020    9.9180    2.8270 C   0  0  0  0  0  0  0  0  0  0  0  0
   12.6654    7.4038    6.0290 H   0  0  0  0  0  0  0  0  0  0  0  0
   11.6604    6.8009    4.6677 H   0  0  0  0  0  0  0  0  0  0  0  0
   13.4345    6.5196    4.6677 H   0  0  0  0  0  0  0  0  0  0  0  0
   12.6076    9.3796    4.8793 H   0  0  0  0  0  0  0  0  0  0  0  0
   14.8339    9.3526    4.5627 H   0  0  0  0  0  0  0  0  0  0  0  0
   14.8076    7.7543    3.7194 H   0  0  0  0  0  0  0  0  0  0  0  0
   15.4000    9.7010    2.2550 H   0  0  0  0  0  0  0  0  0  0  0  0
   13.8970   10.3240    2.5210 H   0  0  0  0  0  0  0  0  0  0  0  0
   13.6197    9.3236    0.5054 H   0  0  0  0  0  0  0  0  0  0  0  0
   14.5282    7.8565    1.0514 H   0  0  0  0  0  0  0  0  0  0  0  0
   11.7760    8.0667    0.9624 H   0  0  0  0  0  0  0  0  0  0  0  0
   12.7277    6.9297    2.0250 H   0  0  0  0  0  0  0  0  0  0  0  0
   10.5170   10.0926    5.5591 H   0  0  0  0  0  0  0  0  0  0  0  0
    8.3393    9.9965    6.7687 H   0  0  0  0  0  0  0  0  0  0  0  0
    6.2130    9.8903    5.4834 H   0  0  0  0  0  0  0  0  0  0  0  0
    5.0486    9.7878    3.3828 H   0  0  0  0  0  0  0  0  0  0  0  0
    7.0446    9.7201   -0.2990 H   0  0  0  0  0  0  0  0  0  0  0  0
    9.2339    9.8577    0.8074 H   0  0  0  0  0  0  0  0  0  0  0  0
  1  2  1  0
  2  3  1  0
  3  4  1  0
  4  5  1  0
  5  6  1  0
  6  7  1  0
  7  8  1  0
  8  9  2  0
  8 10  2  0
  8 11  1  0
 11 12  2  0
 12 13  1  0
 13 14  2  0
 14 15  1  0
 15 16  2  0
 16 17  1  0
 17 18  2  0
 18 19  1  0
 19 20  2  0
  7  2  1  0
 20 11  1  0
 20 15  1  0
  1 21  1  0
  1 22  1  0
  1 23  1  0
  2 24  1  1
  3 25  1  0
  3 26  1  0
  4 27  1  0
  4 28  1  0
  5 29  1  0
  5 30  1  0
  6 31  1  0
  6 32  1  0
 12 33  1  0
 13 34  1  0
 14 35  1  0
 16 36  1  0
 18 37  1  0
 19 38  1  0
M  CHG  1   4   1
M  END
>  <meeko>  (4) 
{"is_sidechain": [false], "free_energy": -7.524, "intermolecular_energy": -8.956, "internal_energy": 0.049}

$$$$
1ydr_ligand
     RDKit          3D

 38 40  0  0  0  0  0  0  0  0999 V2000
   12.8900    9.7670    4.9380 C   0  0  0  0  0  0  0  0  0  0  0  0
   12.5280    9.6160    3.4640 C   0  0  1  0  0  0  0  0  0  0  0  0
   13.7710    9.7820    2.5500 C   0  0  0  0  0  0  0  0  0  0  0  0
   13.6920    8.8640    1.3670 N   0  0  0  0  0  0  0  0  0  0  0  0
   13.6770    7.4110    1.7460 C   0  0  0  0  0  0  0  0  0  0  0  0
   12.7970    7.1660    2.9890 C   0  0  0  0  0  0  0  0  0  0  0  0
   11.8280    8.2850    3.2580 N   0  0  0  0  0  0  0  0  0  0  0  0
   10.4820    8.3930    2.1910 S   0  0  0  0  0  0  0  0  0  0  0  0
   10.3510    7.0360    1.6850 O   0  0  0  0  0  0  0  0  0  0  0  0
   10.7200    9.4920    1.2880 O   0  0  0  0  0  0  0  0  0  0  0  0
    9.1080    8.7810    3.2410 C   0  0  0  0  0  0  0  0  0  0  0  0
    9.2690    8.5460    4.6150 C   0  0  0  0  0  0  0  0  0  0  0  0
    8.2480    8.8770    5.5000 C   0  0  0  0  0  0  0  0  0  0  0  0
    7.0740    9.4440    5.0150 C   0  0  0  0  0  0  0  0  0  0  0  0
    6.8960    9.6740    3.6390 C   0  0  0  0  0  0  0  0  0  0  0  0
    5.7150   10.2390    3.1520 C   0  0  0  0  0  0  0  0  0  0  0  0
    5.4640   10.4880    1.8490 N   0  0  0  0  0  0  0  0  0  0  0  0
    6.4190   10.1380    0.9740 C   0  0  0  0  0  0  0  0  0  0  0  0
    7.6310    9.5740    1.3460 C   0  0  0  0  0  0  0  0  0  0  0  0
    7.9080    9.3340    2.7140 C   0  0  0  0  0  0  0  0  0  0  0  0
   12.0521    9.4175    5.5590 H   0  0  0  0  0  0  0  0  0  0  0  0
   13.7853    9.1673    5.1590 H   0  0  0  0  0  0  0  0  0  0  0  0
   13.0937   10.8251    5.1590 H   0  0  0  0  0  0  0  0  0  0  0  0
   11.8359   10.4204    3.1743 H   0  0  0  0  0  0  0  0  0  0  0  0
   13.8212   10.8222    2.1959 H   0  0  0  0  0  0  0  0  0  0  0  0
   14.6704    9.5299    3.1309 H   0  0  0  0  0  0  0  0  0  0  0  0
   14.4280    9.0610    0.6790 H   0  0  0  0  0  0  0  0  0  0  0  0
   12.7900    9.0390    0.8730 H   0  0  0  0  0  0  0  0  0  0  0  0
   13.2795    6.8250    0.9042 H   0  0  0  0  0  0  0  0  0  0  0  0
   14.7061    7.1028    1.9825 H   0  0  0  0  0  0  0  0  0  0  0  0
   12.2262    6.2382    2.8361 H   0  0  0  0  0  0  0  0  0  0  0  0
   13.4687    7.0989    3.8575 H   0  0  0  0  0  0  0  0  0  0  0  0
   10.2015    8.1006    4.9919 H   0  0  0  0  0  0  0  0  0  0  0  0
    8.3684    8.6914    6.5775 H   0  0  0  0  0  0  0  0  0  0  0  0
    6.2731    9.7165    5.7180 H   0  0  0  0  0  0  0  0  0  0  0  0
    4.9342   10.4995    3.8817 H   0  0  0  0  0  0  0  0  0  0  0  0
    6.2309   10.3074   -0.0965 H   0  0  0  0  0  0  0  0  0  0  0  0
    8.3757    9.3137    0.5794 H   0  0  0  0  0  0  0  0  0  0  0  0
  1  2  1  0
  2  3  1  0
  3  4  1  0
  4  5  1  0
  5  6  1  0
  6  7  1  0
  7  8  1  0
  8  9  2  0
  8 10  2  0
  8 11  1  0
 11 12  2  0
 12 13  1  0
 13 14  2  0
 14 15  1  0
 15 16  2  0
 16 17  1  0
 17 18  2  0
 18 19  1  0
 19 20  2  0
  7  2  1  0
 20 11  1  0
 20 15  1  0
  1 21  1  0
  1 22  1  0
  1 23  1  0
  2 24  1  6
  3 25  1  0
  3 26  1  0
  4 27  1  0
  4 28  1  0
  5 29  1  0
  5 30  1  0
  6 31  1  0
  6 32  1  0
 12 33  1  0
 13 34  1  0
 14 35  1  0
 16 36  1  0
 18 37  1  0
 19 38  1  0
M  CHG  1   4   1
M  END
>  <meeko>  (5) 
{"is_sidechain": [false], "free_energy": -7.47, "intermolecular_energy": -8.388, "internal_energy": -0.459}

$$$$
1ydr_ligand
     RDKit          3D

 38 40  0  0  0  0  0  0  0  0999 V2000
   12.2760   12.7730    0.9410 C   0  0  0  0  0  0  0  0  0  0  0  0
   11.9470   11.3210    0.6120 C   0  0  1  0  0  0  0  0  0  0  0  0
   13.1690   10.5800    0.0090 C   0  0  0  0  0  0  0  0  0  0  0  0
   13.2070    9.1520    0.4660 N   0  0  0  0  0  0  0  0  0  0  0  0
   13.3600    9.0100    1.9530 C   0  0  0  0  0  0  0  0  0  0  0  0
   12.5040   10.0520    2.7040 C   0  0  0  0  0  0  0  0  0  0  0  0
   11.4100   10.6400    1.8580 N   0  0  0  0  0  0  0  0  0  0  0  0
   10.0680    9.6110    1.5340 S   0  0  0  0  0  0  0  0  0  0  0  0
   10.6490    8.2790    1.6020 O   0  0  0  0  0  0  0  0  0  0  0  0
    9.4380   10.0740    0.3220 O   0  0  0  0  0  0  0  0  0  0  0  0
    8.9700    9.8620    2.9010 C   0  0  0  0  0  0  0  0  0  0  0  0
    9.5550   10.0670    4.1600 C   0  0  0  0  0  0  0  0  0  0  0  0
    8.7510   10.3210    5.2660 C   0  0  0  0  0  0  0  0  0  0  0  0
    7.3690   10.3760    5.1150 C   0  0  0  0  0  0  0  0  0  0  0  0
    6.7690   10.1600    3.8600 C   0  0  0  0  0  0  0  0  0  0  0  0
    5.3820   10.2100    3.7090 C   0  0  0  0  0  0  0  0  0  0  0  0
    4.7290   10.0120    2.5450 N   0  0  0  0  0  0  0  0  0  0  0  0
    5.4840    9.7240    1.4730 C   0  0  0  0  0  0  0  0  0  0  0  0
    6.8690    9.6530    1.5070 C   0  0  0  0  0  0  0  0  0  0  0  0
    7.5590    9.8840    2.7210 C   0  0  0  0  0  0  0  0  0  0  0  0
   12.3057   12.9039    2.0328 H   0  0  0  0  0  0  0  0  0  0  0  0
   13.2558   13.0328    0.5138 H   0  0  0  0  0  0  0  0  0  0  0  0
   11.5039   13.4298    0.5138 H   0  0  0  0  0  0  0  0  0  0  0  0
   11.1682   11.2898   -0.1643 H   0  0  0  0  0  0  0  0  0  0  0  0
   13.1001   10.6053   -1.0885 H   0  0  0  0  0  0  0  0  0  0  0  0
   14.0872   11.0823    0.3476 H   0  0  0  0  0  0  0  0  0  0  0  0
   13.9210    8.6080   -0.0340 H   0  0  0  0  0  0  0  0  0  0  0  0
   12.2960    8.7040    0.2290 H   0  0  0  0  0  0  0  0  0  0  0  0
   13.0406    8.0007    2.2518 H   0  0  0  0  0  0  0  0  0  0  0  0
   14.4163    9.1750    2.2119 H   0  0  0  0  0  0  0  0  0  0  0  0
   12.0466    9.5645    3.5776 H   0  0  0  0  0  0  0  0  0  0  0  0
   13.1722   10.8764    2.9936 H   0  0  0  0  0  0  0  0  0  0  0  0
   10.6485   10.0268    4.2720 H   0  0  0  0  0  0  0  0  0  0  0  0
    9.2055   10.4777    6.2554 H   0  0  0  0  0  0  0  0  0  0  0  0
    6.7362   10.5913    5.9886 H   0  0  0  0  0  0  0  0  0  0  0  0
    4.7784   10.4263    4.6028 H   0  0  0  0  0  0  0  0  0  0  0  0
    4.9768    9.5340    0.5156 H   0  0  0  0  0  0  0  0  0  0  0  0
    7.4306    9.4173    0.5910 H   0  0  0  0  0  0  0  0  0  0  0  0
  1  2  1  0
  2  3  1  0
  3  4  1  0
  4  5  1  0
  5  6  1  0
  6  7  1  0
  7  8  1  0
  8  9  2  0
  8 10  2  0
  8 11  1  0
 11 12  2  0
 12 13  1  0
 13 14  2  0
 14 15  1  0
 15 16  2  0
 16 17  1  0
 17 18  2  0
 18 19  1  0
 19 20  2  0
  7  2  1  0
 20 11  1  0
 20 15  1  0
  1 21  1  0
  1 22  1  0
  1 23  1  0
  2 24  1  6
  3 25  1  0
  3 26  1  0
  4 27  1  0
  4 28  1  0
  5 29  1  0
  5 30  1  0
  6 31  1  0
  6 32  1  0
 12 33  1  0
 13 34  1  0
 14 35  1  0
 16 36  1  0
 18 37  1  0
 19 38  1  0
M  CHG  1   4   1
M  END
>  <meeko>  (6) 
{"is_sidechain": [false], "free_energy": -7.33, "intermolecular_energy": -9.189, "internal_energy": 0.498}

$$$$
1ydr_ligand
     RDKit          3D

 38 40  0  0  0  0  0  0  0  0999 V2000
   11.6740   12.0260    0.5980 C   0  0  0  0  0  0  0  0  0  0  0  0
   11.7080   10.5030    0.6830 C   0  0  1  0  0  0  0  0  0  0  0  0
   13.1160    9.9440    0.3530 C   0  0  0  0  0  0  0  0  0  0  0  0
   13.4260    8.7430    1.1950 N   0  0  0  0  0  0  0  0  0  0  0  0
   13.4620    9.0450    2.6660 C   0  0  0  0  0  0  0  0  0  0  0  0
   12.3290   10.0130    3.0650 C   0  0  0  0  0  0  0  0  0  0  0  0
   11.2180   10.0730    2.0540 N   0  0  0  0  0  0  0  0  0  0  0  0
   10.1760    8.7040    1.9930 S   0  0  0  0  0  0  0  0  0  0  0  0
   10.2830    8.1460    3.3320 O   0  0  0  0  0  0  0  0  0  0  0  0
   10.5430    7.9190    0.8400 O   0  0  0  0  0  0  0  0  0  0  0  0
    8.5580    9.3830    1.7500 C   0  0  0  0  0  0  0  0  0  0  0  0
    8.1360    9.5710    0.4250 C   0  0  0  0  0  0  0  0  0  0  0  0
    6.8580   10.0510    0.1640 C   0  0  0  0  0  0  0  0  0  0  0  0
    6.0010   10.3390    1.2220 C   0  0  0  0  0  0  0  0  0  0  0  0
    6.4150   10.1670    2.5550 C   0  0  0  0  0  0  0  0  0  0  0  0
    5.5570   10.4600    3.6180 C   0  0  0  0  0  0  0  0  0  0  0  0
    5.8770   10.3270    4.9220 N   0  0  0  0  0  0  0  0  0  0  0  0
    7.1220    9.9030    5.1970 C   0  0  0  0  0  0  0  0  0  0  0  0
    8.0530    9.5790    4.2220 C   0  0  0  0  0  0  0  0  0  0  0  0
    7.7140    9.6940    2.8520 C   0  0  0  0  0  0  0  0  0  0  0  0
   11.6645   12.4498    1.6131 H   0  0  0  0  0  0  0  0  0  0  0  0
   12.5644   12.3832    0.0598 H   0  0  0  0  0  0  0  0  0  0  0  0
   10.7686   12.3431    0.0598 H   0  0  0  0  0  0  0  0  0  0  0  0
   11.0343   10.0790   -0.0762 H   0  0  0  0  0  0  0  0  0  0  0  0
   13.1501    9.6580   -0.7086 H   0  0  0  0  0  0  0  0  0  0  0  0
   13.8622   10.7239    0.5652 H   0  0  0  0  0  0  0  0  0  0  0  0
   14.2870    8.2730    0.8910 H   0  0  0  0  0  0  0  0  0  0  0  0
   12.6640    8.0430    1.0670 H   0  0  0  0  0  0  0  0  0  0  0  0
   13.3464    8.1064    3.2279 H   0  0  0  0  0  0  0  0  0  0  0  0
   14.4255    9.5213    2.9002 H   0  0  0  0  0  0  0  0  0  0  0  0
   11.9092    9.6825    4.0266 H   0  0  0  0  0  0  0  0  0  0  0  0
   12.7670   11.0200    3.1296 H   0  0  0  0  0  0  0  0  0  0  0  0
    8.8167    9.3385   -0.4072 H   0  0  0  0  0  0  0  0  0  0  0  0
    6.5256   10.2025   -0.8736 H   0  0  0  0  0  0  0  0  0  0  0  0
    4.9855   10.7063    1.0127 H   0  0  0  0  0  0  0  0  0  0  0  0
    4.5484   10.8253    3.3744 H   0  0  0  0  0  0  0  0  0  0  0  0
    7.4184    9.8079    6.2520 H   0  0  0  0  0  0  0  0  0  0  0  0
    9.0556    9.2324    4.5129 H   0  0  0  0  0  0  0  0  0  0  0  0
  1  2  1  0
  2  3  1  0
  3  4  1  0
  4  5  1  0
  5  6  1  0
  6  7  1  0
  7  8  1  0
  8  9  2  0
  8 10  2  0
  8 11  1  0
 11 12  2  0
 12 13  1  0
 13 14  2  0
 14 15  1  0
 15 16  2  0
 16 17  1  0
 17 18  2  0
 18 19  1  0
 19 20  2  0
  7  2  1  0
 20 11  1  0
 20 15  1  0
  1 21  1  0
  1 22  1  0
  1 23  1  0
  2 24  1  6
  3 25  1  0
  3 26  1  0
  4 27  1  0
  4 28  1  0
  5 29  1  0
  5 30  1  0
  6 31  1  0
  6 32  1  0
 12 33  1  0
 13 34  1  0
 14 35  1  0
 16 36  1  0
 18 37  1  0
 19 38  1  0
M  CHG  1   4   1
M  END
>  <meeko>  (7) 
{"is_sidechain": [false], "free_energy": -7.296, "intermolecular_energy": -8.532, "internal_energy": -0.12}

$$$$
1ydr_ligand
     RDKit          3D

 38 40  0  0  0  0  0  0  0  0999 V2000
   12.7650    7.5110    4.9620 C   0  0  0  0  0  0  0  0  0  0  0  0
   13.3330    8.7010    4.1950 C   0  0  1  0  0  0  0  0  0  0  0  0
   14.8850    8.6930    4.1950 C   0  0  0  0  0  0  0  0  0  0  0  0
   15.4220    9.2020    2.8910 N   0  0  0  0  0  0  0  0  0  0  0  0
   15.0280    8.3520    1.7170 C   0  0  0  0  0  0  0  0  0  0  0  0
   13.5620    7.8840    1.8330 C   0  0  0  0  0  0  0  0  0  0  0  0
   12.7510    8.7100    2.7930 N   0  0  0  0  0  0  0  0  0  0  0  0
   12.3200   10.2880    2.2570 S   0  0  0  0  0  0  0  0  0  0  0  0
   13.3190   10.5770    1.2400 O   0  0  0  0  0  0  0  0  0  0  0  0
   12.1940   11.1320    3.4200 O   0  0  0  0  0  0  0  0  0  0  0  0
   10.7310   10.0860    1.5020 C   0  0  0  0  0  0  0  0  0  0  0  0
   10.6500   10.2970    0.1160 C   0  0  0  0  0  0  0  0  0  0  0  0
    9.4440   10.1040   -0.5460 C   0  0  0  0  0  0  0  0  0  0  0  0
    8.3220    9.6980    0.1700 C   0  0  0  0  0  0  0  0  0  0  0  0
    8.3860    9.4950    1.5600 C   0  0  0  0  0  0  0  0  0  0  0  0
    7.2590    9.0910    2.2800 C   0  0  0  0  0  0  0  0  0  0  0  0
    7.2350    8.8790    3.6120 N   0  0  0  0  0  0  0  0  0  0  0  0
    8.3800    9.1000    4.2780 C   0  0  0  0  0  0  0  0  0  0  0  0
    9.5590    9.4970    3.6650 C   0  0  0  0  0  0  0  0  0  0  0  0
    9.5940    9.6970    2.2640 C   0  0  0  0  0  0  0  0  0  0  0  0
   12.8531    7.6956    6.0428 H   0  0  0  0  0  0  0  0  0  0  0  0
   11.7056    7.3766    4.6981 H   0  0  0  0  0  0  0  0  0  0  0  0
   13.3267    6.6028    4.6981 H   0  0  0  0  0  0  0  0  0  0  0  0
   13.0406    9.6341    4.6988 H   0  0  0  0  0  0  0  0  0  0  0  0
   15.2486    9.3361    5.0100 H   0  0  0  0  0  0  0  0  0  0  0  0
   15.2314    7.6589    4.3384 H   0  0  0  0  0  0  0  0  0  0  0  0
   16.4390    9.3410    2.9240 H   0  0  0  0  0  0  0  0  0  0  0  0
   15.0150   10.1440    2.7100 H   0  0  0  0  0  0  0  0  0  0  0  0
   15.1452    8.9387    0.7940 H   0  0  0  0  0  0  0  0  0  0  0  0
   15.6764    7.4636    1.6973 H   0  0  0  0  0  0  0  0  0  0  0  0
   13.0957    7.9452    0.8386 H   0  0  0  0  0  0  0  0  0  0  0  0
   13.5770    6.8542    2.2194 H   0  0  0  0  0  0  0  0  0  0  0  0
   11.5410   10.6149   -0.4452 H   0  0  0  0  0  0  0  0  0  0  0  0
    9.3763   10.2713   -1.6311 H   0  0  0  0  0  0  0  0  0  0  0  0
    7.3716    9.5335   -0.3588 H   0  0  0  0  0  0  0  0  0  0  0  0
    6.3247    8.9346    1.7209 H   0  0  0  0  0  0  0  0  0  0  0  0
    8.3829    8.9585    5.3689 H   0  0  0  0  0  0  0  0  0  0  0  0
   10.4659    9.6563    4.2668 H   0  0  0  0  0  0  0  0  0  0  0  0
  1  2  1  0
  2  3  1  0
  3  4  1  0
  4  5  1  0
  5  6  1  0
  6  7  1  0
  7  8  1  0
  8  9  2  0
  8 10  2  0
  8 11  1  0
 11 12  2  0
 12 13  1  0
 13 14  2  0
 14 15  1  0
 15 16  2  0
 16 17  1  0
 17 18  2  0
 18 19  1  0
 19 20  2  0
  7  2  1  0
 20 11  1  0
 20 15  1  0
  1 21  1  0
  1 22  1  0
  1 23  1  0
  2 24  1  1
  3 25  1  0
  3 26  1  0
  4 27  1  0
  4 28  1  0
  5 29  1  0
  5 30  1  0
  6 31  1  0
  6 32  1  0
 12 33  1  0
 13 34  1  0
 14 35  1  0
 16 36  1  0
 18 37  1  0
 19 38  1  0
M  CHG  1   4   1
M  END
>  <meeko>  (8) 
{"is_sidechain": [false], "free_energy": -7.085, "intermolecular_energy": -8.339, "internal_energy": -0.077}

$$$$
1ydr_ligand
     RDKit          3D

 38 40  0  0  0  0  0  0  0  0999 V2000
    8.9070    6.3880    3.8450 C   0  0  0  0  0  0  0  0  0  0  0  0
    9.6230    7.7310    3.7370 C   0  0  1  0  0  0  0  0  0  0  0  0
   10.9860    7.7130    4.4780 C   0  0  0  0  0  0  0  0  0  0  0  0
   12.0040    8.5350    3.7460 N   0  0  0  0  0  0  0  0  0  0  0  0
   12.3020    8.0160    2.3680 C   0  0  0  0  0  0  0  0  0  0  0  0
   11.0160    7.5440    1.6580 C   0  0  0  0  0  0  0  0  0  0  0  0
    9.7620    8.1020    2.2720 N   0  0  0  0  0  0  0  0  0  0  0  0
    9.4480    9.7680    1.9700 S   0  0  0  0  0  0  0  0  0  0  0  0
   10.0420    9.9850    0.6600 O   0  0  0  0  0  0  0  0  0  0  0  0
    9.9040   10.5190    3.1140 O   0  0  0  0  0  0  0  0  0  0  0  0
    7.6840    9.8790    1.8590 C   0  0  0  0  0  0  0  0  0  0  0  0
    7.1170    9.7730    0.5790 C   0  0  0  0  0  0  0  0  0  0  0  0
    5.7350    9.8000    0.4280 C   0  0  0  0  0  0  0  0  0  0  0  0
    4.9210    9.9270    1.5500 C   0  0  0  0  0  0  0  0  0  0  0  0
    5.4770   10.0450    2.8370 C   0  0  0  0  0  0  0  0  0  0  0  0
    4.6610   10.1770    3.9620 C   0  0  0  0  0  0  0  0  0  0  0  0
    5.1140   10.3000    5.2280 N   0  0  0  0  0  0  0  0  0  0  0  0
    6.4460   10.3180    5.3920 C   0  0  0  0  0  0  0  0  0  0  0  0
    7.3490   10.1900    4.3470 C   0  0  0  0  0  0  0  0  0  0  0  0
    6.8780   10.0360    3.0210 C   0  0  0  0  0  0  0  0  0  0  0  0
    8.7695    6.1300    4.9054 H   0  0  0  0  0  0  0  0  0  0  0  0
    7.9251    6.4554    3.3537 H   0  0  0  0  0  0  0  0  0  0  0  0
    9.5102    5.6103    3.3537 H   0  0  0  0  0  0  0  0  0  0  0  0
    9.0232    8.5062    4.2363 H   0  0  0  0  0  0  0  0  0  0  0  0
   10.8514    8.1237    5.4896 H   0  0  0  0  0  0  0  0  0  0  0  0
   11.3443    6.6743    4.5295 H   0  0  0  0  0  0  0  0  0  0  0  0
   12.8650    8.6540    4.2920 H   0  0  0  0  0  0  0  0  0  0  0  0
   11.6200    9.4950    3.6120 H   0  0  0  0  0  0  0  0  0  0  0  0
   12.7651    8.8184    1.7750 H   0  0  0  0  0  0  0  0  0  0  0  0
   12.9838    7.1576    2.4596 H   0  0  0  0  0  0  0  0  0  0  0  0
   11.0611    7.8610    0.6056 H   0  0  0  0  0  0  0  0  0  0  0  0
   10.9701    6.4495    1.7580 H   0  0  0  0  0  0  0  0  0  0  0  0
    7.7654    9.6687   -0.3035 H   0  0  0  0  0  0  0  0  0  0  0  0
    5.2870    9.7214   -0.5736 H   0  0  0  0  0  0  0  0  0  0  0  0
    3.8277    9.9352    1.4287 H   0  0  0  0  0  0  0  0  0  0  0  0
    3.5721   10.1811    3.8060 H   0  0  0  0  0  0  0  0  0  0  0  0
    6.8431   10.4409    6.4104 H   0  0  0  0  0  0  0  0  0  0  0  0
    8.4302   10.2081    4.5485 H   0  0  0  0  0  0  0  0  0  0  0  0
  1  2  1  0
  2  3  1  0
  3  4  1  0
  4  5  1  0
  5  6  1  0
  6  7  1  0
  7  8  1  0
  8  9  2  0
  8 10  2  0
  8 11  1  0
 11 12  2  0
 12 13  1  0
 13 14  2  0
 14 15  1  0
 15 16  2  0
 16 17  1  0
 17 18  2  0
 18 19  1  0
 19 20  2  0
  7  2  1  0
 20 11  1  0
 20 15  1  0
  1 21  1  0
  1 22  1  0
  1 23  1  0
  2 24  1  1
  3 25  1  0
  3 26  1  0
  4 27  1  0
  4 28  1  0
  5 29  1  0
  5 30  1  0
  6 31  1  0
  6 32  1  0
 12 33  1  0
 13 34  1  0
 14 35  1  0
 16 36  1  0
 18 37  1  0
 19 38  1  0
M  CHG  1   4   1
M  END
>  <meeko>  (9) 
{"is_sidechain": [false], "free_energy": -7.043, "intermolecular_energy": -8.217, "internal_energy": -0.153}

$$$$
