1uto_ligand
     RDKit          3D

 21 21  0  0  0  0  0  0  0  0999 V2000
   54.0420   19.7530   40.3500 N   0  0  0  0  0  0  0  0  0  0  0  0
   54.2540   21.0480   39.6510 C   0  0  0  0  0  0  0  0  0  0  0  0
   52.9270   21.7890   39.5120 C   0  0  0  0  0  0  0  0  0  0  0  0
   52.8440   22.9220   40.4970 C   0  0  0  0  0  0  0  0  0  0  0  0
   53.9460   23.7620   40.7090 C   0  0  0  0  0  0  0  0  0  0  0  0
   53.8560   24.8320   41.6000 C   0  0  0  0  0  0  0  0  0  0  0  0
   52.6660   25.0750   42.2830 C   0  0  0  0  0  0  0  0  0  0  0  0
   51.5650   24.2460   42.0800 C   0  0  0  0  0  0  0  0  0  0  0  0
   51.6510   23.1740   41.1910 C   0  0  0  0  0  0  0  0  0  0  0  0
   53.3800   19.1500   39.8450 H   0  0  0  0  0  0  0  0  0  0  0  0
   53.6810   19.8880   41.3040 H   0  0  0  0  0  0  0  0  0  0  0  0
   54.9270   19.2340   40.4310 H   0  0  0  0  0  0  0  0  0  0  0  0
   54.9565   21.6644   40.2311 H   0  0  0  0  0  0  0  0  0  0  0  0
   54.6665   20.8548   38.6497 H   0  0  0  0  0  0  0  0  0  0  0  0
   52.8433   22.1911   38.4915 H   0  0  0  0  0  0  0  0  0  0  0  0
   52.1064   21.0848   39.7138 H   0  0  0  0  0  0  0  0  0  0  0  0
   54.8868   23.5766   40.1700 H   0  0  0  0  0  0  0  0  0  0  0  0
   54.7260   25.4849   41.7635 H   0  0  0  0  0  0  0  0  0  0  0  0
   52.5960   25.9212   42.9823 H   0  0  0  0  0  0  0  0  0  0  0  0
   50.6266   24.4368   42.6213 H   0  0  0  0  0  0  0  0  0  0  0  0
   50.7786   22.5228   41.0334 H   0  0  0  0  0  0  0  0  0  0  0  0
  1  2  1  0
  2  3  1  0
  3  4  1  0
  4  5  2  0
  5  6  1  0
  6  7  2  0
  7  8  1  0
  8  9  2  0
  9  4  1  0
  1 10  1  0
  1 11  1  0
  1 12  1  0
  2 13  1  0
  2 14  1  0
  3 15  1  0
  3 16  1  0
  5 17  1  0
  6 18  1  0
  7 19  1  0
  8 20  1  0
  9 21  1  0
M  CHG  1   1   1
M  END
>  <meeko>  (1) 
{"is_sidechain": [false], "free_energy": -4.603, "intermolecular_energy": -5.276, "internal_energy": -0.067}

$$$$
1uto_ligand
     RDKit          3D

 21 21  0  0  0  0  0  0  0  0999 V2000
   45.9170   17.2750   53.1750 N   0  0  0  0  0  0  0  0  0  0  0  0
   45.5240   18.6500   52.7720 C   0  0  0  0  0  0  0  0  0  0  0  0
   45.5190   18.7680   51.2500 C   0  0  0  0  0  0  0  0  0  0  0  0
   45.8370   20.1740   50.8230 C   0  0  0  0  0  0  0  0  0  0  0  0
   45.2840   20.7030   49.6480 C   0  0  0  0  0  0  0  0  0  0  0  0
   45.5550   22.0190   49.2710 C   0  0  0  0  0  0  0  0  0  0  0  0
   46.3750   22.8190   50.0640 C   0  0  0  0  0  0  0  0  0  0  0  0
   46.9300   22.3020   51.2330 C   0  0  0  0  0  0  0  0  0  0  0  0
   46.6630   20.9870   51.6130 C   0  0  0  0  0  0  0  0  0  0  0  0
   46.1450   16.6890   52.3610 H   0  0  0  0  0  0  0  0  0  0  0  0
   45.1710   16.8030   53.7030 H   0  0  0  0  0  0  0  0  0  0  0  0
   46.7500   17.2960   53.7790 H   0  0  0  0  0  0  0  0  0  0  0  0
   44.5172   18.8686   53.1574 H   0  0  0  0  0  0  0  0  0  0  0  0
   46.2469   19.3678   53.1869 H   0  0  0  0  0  0  0  0  0  0  0  0
   46.2735   18.0849   50.8328 H   0  0  0  0  0  0  0  0  0  0  0  0
   44.5175   18.5046   50.8790 H   0  0  0  0  0  0  0  0  0  0  0  0
   44.6330   20.0772   49.0199 H   0  0  0  0  0  0  0  0  0  0  0  0
   45.1204   22.4255   48.3459 H   0  0  0  0  0  0  0  0  0  0  0  0
   46.5840   23.8575   49.7676 H   0  0  0  0  0  0  0  0  0  0  0  0
   47.5801   22.9325   51.8574 H   0  0  0  0  0  0  0  0  0  0  0  0
   47.1028   20.5850   52.5377 H   0  0  0  0  0  0  0  0  0  0  0  0
  1  2  1  0
  2  3  1  0
  3  4  1  0
  4  5  2  0
  5  6  1  0
  6  7  2  0
  7  8  1  0
  8  9  2  0
  9  4  1  0
  1 10  1  0
  1 11  1  0
  1 12  1  0
  2 13  1  0
  2 14  1  0
  3 15  1  0
  3 16  1  0
  5 17  1  0
  6 18  1  0
  7 19  1  0
  8 20  1  0
  9 21  1  0
M  CHG  1   1   1
M  END
>  <meeko>  (2) 
{"is_sidechain": [false], "free_energy": -4.54, "intermolecular_energy": -5.21, "internal_energy": -0.06}

$$$$
1uto_ligand
     RDKit          3D

 21 21  0  0  0  0  0  0  0  0999 V2000
   45.8460   17.2350   53.1900 N   0  0  0  0  0  0  0  0  0  0  0  0
   45.4710   18.6240   52.8180 C   0  0  0  0  0  0  0  0  0  0  0  0
   45.4710   18.7760   51.2980 C   0  0  0  0  0  0  0  0  0  0  0  0
   45.7490   20.2000   50.9050 C   0  0  0  0  0  0  0  0  0  0  0  0
   46.6000   20.9990   51.6820 C   0  0  0  0  0  0  0  0  0  0  0  0
   46.8830   22.3100   51.2970 C   0  0  0  0  0  0  0  0  0  0  0  0
   46.3220   22.8340   50.1340 C   0  0  0  0  0  0  0  0  0  0  0  0
   45.4750   22.0490   49.3560 C   0  0  0  0  0  0  0  0  0  0  0  0
   45.1890   20.7370   49.7370 C   0  0  0  0  0  0  0  0  0  0  0  0
   45.8440   16.6070   52.3760 H   0  0  0  0  0  0  0  0  0  0  0  0
   45.2060   16.8420   53.8940 H   0  0  0  0  0  0  0  0  0  0  0  0
   46.7930   17.2090   53.5930 H   0  0  0  0  0  0  0  0  0  0  0  0
   44.4661   18.8464   53.2063 H   0  0  0  0  0  0  0  0  0  0  0  0
   46.2015   19.3234   53.2508 H   0  0  0  0  0  0  0  0  0  0  0  0
   46.2480   18.1254   50.8703 H   0  0  0  0  0  0  0  0  0  0  0  0
   44.4801   18.4910   50.9147 H   0  0  0  0  0  0  0  0  0  0  0  0
   47.0470   20.5900   52.6001 H   0  0  0  0  0  0  0  0  0  0  0  0
   47.5502   22.9311   51.9127 H   0  0  0  0  0  0  0  0  0  0  0  0
   46.5481   23.8669   49.8308 H   0  0  0  0  0  0  0  0  0  0  0  0
   45.0304   22.4637   48.4393 H   0  0  0  0  0  0  0  0  0  0  0  0
   44.5206   20.1209   49.1176 H   0  0  0  0  0  0  0  0  0  0  0  0
  1  2  1  0
  2  3  1  0
  3  4  1  0
  4  5  2  0
  5  6  1  0
  6  7  2  0
  7  8  1  0
  8  9  2  0
  9  4  1  0
  1 10  1  0
  1 11  1  0
  1 12  1  0
  2 13  1  0
  2 14  1  0
  3 15  1  0
  3 16  1  0
  5 17  1  0
  6 18  1  0
  7 19  1  0
  8 20  1  0
  9 21  1  0
M  CHG  1   1   1
M  END
>  <meeko>  (3) 
{"is_sidechain": [false], "free_energy": -4.459, "intermolecular_energy": -5.121, "internal_energy": -0.057}

$$$$
1uto_ligand
     RDKit          3D

 21 21  0  0  0  0  0  0  0  0999 V2000
   42.8280   22.8490   49.1070 N   0  0  0  0  0  0  0  0  0  0  0  0
   43.9530   22.2960   49.9060 C   0  0  0  0  0  0  0  0  0  0  0  0
   44.1090   20.8030   49.6260 C   0  0  0  0  0  0  0  0  0  0  0  0
   44.7060   20.0990   50.8130 C   0  0  0  0  0  0  0  0  0  0  0  0
   45.4130   20.8200   51.7860 C   0  0  0  0  0  0  0  0  0  0  0  0
   45.9380   20.1690   52.9030 C   0  0  0  0  0  0  0  0  0  0  0  0
   45.7610   18.7950   53.0600 C   0  0  0  0  0  0  0  0  0  0  0  0
   45.0610   18.0710   52.0980 C   0  0  0  0  0  0  0  0  0  0  0  0
   44.5350   18.7170   50.9790 C   0  0  0  0  0  0  0  0  0  0  0  0
   43.0200   22.8080   48.0970 H   0  0  0  0  0  0  0  0  0  0  0  0
   42.6310   23.8290   49.3500 H   0  0  0  0  0  0  0  0  0  0  0  0
   41.9650   22.3140   49.2750 H   0  0  0  0  0  0  0  0  0  0  0  0
   44.8831   22.8166   49.6342 H   0  0  0  0  0  0  0  0  0  0  0  0
   43.7420   22.4424   50.9756 H   0  0  0  0  0  0  0  0  0  0  0  0
   43.1208   20.3711   49.4095 H   0  0  0  0  0  0  0  0  0  0  0  0
   44.7796   20.6731   48.7638 H   0  0  0  0  0  0  0  0  0  0  0  0
   45.5545   21.9045   51.6681 H   0  0  0  0  0  0  0  0  0  0  0  0
   46.4927   20.7411   53.6613 H   0  0  0  0  0  0  0  0  0  0  0  0
   46.1736   18.2836   53.9422 H   0  0  0  0  0  0  0  0  0  0  0  0
   44.9225   16.9867   52.2209 H   0  0  0  0  0  0  0  0  0  0  0  0
   43.9832   18.1393   50.2228 H   0  0  0  0  0  0  0  0  0  0  0  0
  1  2  1  0
  2  3  1  0
  3  4  1  0
  4  5  2  0
  5  6  1  0
  6  7  2  0
  7  8  1  0
  8  9  2  0
  9  4  1  0
  1 10  1  0
  1 11  1  0
  1 12  1  0
  2 13  1  0
  2 14  1  0
  3 15  1  0
  3 16  1  0
  5 17  1  0
  6 18  1  0
  7 19  1  0
  8 20  1  0
  9 21  1  0
M  CHG  1   1   1
M  END
>  <meeko>  (4) 
{"is_sidechain": [false], "free_energy": -4.274, "intermolecular_energy": -4.911, "internal_energy": -0.054}

$$$$
1uto_ligand
     RDKit          3D

 21 21  0  0  0  0  0  0  0  0999 V2000
   48.5080   24.1200   42.3640 N   0  0  0  0  0  0  0  0  0  0  0  0
   49.9850   24.2680   42.2830 C   0  0  0  0  0  0  0  0  0  0  0  0
   50.6100   22.9810   41.7490 C   0  0  0  0  0  0  0  0  0  0  0  0
   52.0040   23.2360   41.2440 C   0  0  0  0  0  0  0  0  0  0  0  0
   52.6930   24.3990   41.6150 C   0  0  0  0  0  0  0  0  0  0  0  0
   53.9970   24.6180   41.1710 C   0  0  0  0  0  0  0  0  0  0  0  0
   54.6260   23.6770   40.3570 C   0  0  0  0  0  0  0  0  0  0  0  0
   53.9500   22.5190   39.9830 C   0  0  0  0  0  0  0  0  0  0  0  0
   52.6450   22.2970   40.4230 C   0  0  0  0  0  0  0  0  0  0  0  0
   48.0890   24.8140   42.9970 H   0  0  0  0  0  0  0  0  0  0  0  0
   48.2350   23.1850   42.6970 H   0  0  0  0  0  0  0  0  0  0  0  0
   48.0770   24.2500   41.4390 H   0  0  0  0  0  0  0  0  0  0  0  0
   50.2313   25.1003   41.6072 H   0  0  0  0  0  0  0  0  0  0  0  0
   50.3831   24.4731   43.2877 H   0  0  0  0  0  0  0  0  0  0  0  0
   50.6496   22.2363   42.5576 H   0  0  0  0  0  0  0  0  0  0  0  0
   49.9951   22.6084   40.9165 H   0  0  0  0  0  0  0  0  0  0  0  0
   52.2026   25.1431   42.2599 H   0  0  0  0  0  0  0  0  0  0  0  0
   54.5300   25.5347   41.4636 H   0  0  0  0  0  0  0  0  0  0  0  0
   55.6557   23.8495   40.0105 H   0  0  0  0  0  0  0  0  0  0  0  0
   54.4459   21.7776   39.3393 H   0  0  0  0  0  0  0  0  0  0  0  0
   52.1157   21.3802   40.1243 H   0  0  0  0  0  0  0  0  0  0  0  0
  1  2  1  0
  2  3  1  0
  3  4  1  0
  4  5  2  0
  5  6  1  0
  6  7  2  0
  7  8  1  0
  8  9  2  0
  9  4  1  0
  1 10  1  0
  1 11  1  0
  1 12  1  0
  2 13  1  0
  2 14  1  0
  3 15  1  0
  3 16  1  0
  5 17  1  0
  6 18  1  0
  7 19  1  0
  8 20  1  0
  9 21  1  0
M  CHG  1   1   1
M  END
>  <meeko>  (5) 
{"is_sidechain": [false], "free_energy": -4.23, "intermolecular_energy": -4.861, "internal_energy": -0.053}

$$$$
1uto_ligand
     RDKit          3D

 21 21  0  0  0  0  0  0  0  0999 V2000
   42.4500   23.2780   49.4380 N   0  0  0  0  0  0  0  0  0  0  0  0
   43.3900   22.8380   50.5010 C   0  0  0  0  0  0  0  0  0  0  0  0
   44.4980   21.9780   49.8970 C   0  0  0  0  0  0  0  0  0  0  0  0
   44.7860   20.7890   50.7710 C   0  0  0  0  0  0  0  0  0  0  0  0
   44.3200   19.5150   50.4140 C   0  0  0  0  0  0  0  0  0  0  0  0
   44.6170   18.4080   51.2090 C   0  0  0  0  0  0  0  0  0  0  0  0
   45.3820   18.5610   52.3640 C   0  0  0  0  0  0  0  0  0  0  0  0
   45.8480   19.8220   52.7270 C   0  0  0  0  0  0  0  0  0  0  0  0
   45.5540   20.9320   51.9350 C   0  0  0  0  0  0  0  0  0  0  0  0
   41.4780   23.3070   49.7750 H   0  0  0  0  0  0  0  0  0  0  0  0
   42.4800   22.6550   48.6190 H   0  0  0  0  0  0  0  0  0  0  0  0
   42.6870   24.2240   49.1100 H   0  0  0  0  0  0  0  0  0  0  0  0
   43.8358   23.7215   50.9813 H   0  0  0  0  0  0  0  0  0  0  0  0
   42.8394   22.2453   51.2464 H   0  0  0  0  0  0  0  0  0  0  0  0
   44.1816   21.6274   48.9035 H   0  0  0  0  0  0  0  0  0  0  0  0
   45.4114   22.5854   49.8151 H   0  0  0  0  0  0  0  0  0  0  0  0
   43.7173   19.3883   49.5025 H   0  0  0  0  0  0  0  0  0  0  0  0
   44.2467   17.4122   50.9238 H   0  0  0  0  0  0  0  0  0  0  0  0
   45.6174   17.6864   52.9882 H   0  0  0  0  0  0  0  0  0  0  0  0
   46.4492   19.9431   53.6402 H   0  0  0  0  0  0  0  0  0  0  0  0
   45.9269   21.9252   52.2255 H   0  0  0  0  0  0  0  0  0  0  0  0
  1  2  1  0
  2  3  1  0
  3  4  1  0
  4  5  2  0
  5  6  1  0
  6  7  2  0
  7  8  1  0
  8  9  2  0
  9  4  1  0
  1 10  1  0
  1 11  1  0
  1 12  1  0
  2 13  1  0
  2 14  1  0
  3 15  1  0
  3 16  1  0
  5 17  1  0
  6 18  1  0
  7 19  1  0
  8 20  1  0
  9 21  1  0
M  CHG  1   1   1
M  END
>  <meeko>  (6) 
{"is_sidechain": [false], "free_energy": -4.142, "intermolecular_energy": -4.776, "internal_energy": -0.038}

$$$$
1uto_ligand
     RDKit          3D

 21 21  0  0  0  0  0  0  0  0999 V2000
   47.4360   24.3740   43.4430 N   0  0  0  0  0  0  0  0  0  0  0  0
   48.8480   24.7560   43.1770 C   0  0  0  0  0  0  0  0  0  0  0  0
   49.4690   23.7900   42.1710 C   0  0  0  0  0  0  0  0  0  0  0  0
   50.9340   24.0810   41.9880 C   0  0  0  0  0  0  0  0  0  0  0  0
   51.7030   23.3200   41.0960 C   0  0  0  0  0  0  0  0  0  0  0  0
   53.0540   23.6130   40.9040 C   0  0  0  0  0  0  0  0  0  0  0  0
   53.6470   24.6670   41.5970 C   0  0  0  0  0  0  0  0  0  0  0  0
   52.8900   25.4280   42.4860 C   0  0  0  0  0  0  0  0  0  0  0  0
   51.5400   25.1380   42.6820 C   0  0  0  0  0  0  0  0  0  0  0  0
   46.7930   25.1640   43.3000 H   0  0  0  0  0  0  0  0  0  0  0  0
   47.3070   24.0330   44.4060 H   0  0  0  0  0  0  0  0  0  0  0  0
   47.1380   23.6190   42.8110 H   0  0  0  0  0  0  0  0  0  0  0  0
   48.8785   25.7769   42.7685 H   0  0  0  0  0  0  0  0  0  0  0  0
   49.4171   24.7136   44.1174 H   0  0  0  0  0  0  0  0  0  0  0  0
   49.3486   22.7600   42.5379 H   0  0  0  0  0  0  0  0  0  0  0  0
   48.9607   23.9125   41.2032 H   0  0  0  0  0  0  0  0  0  0  0  0
   51.2394   22.4884   40.5451 H   0  0  0  0  0  0  0  0  0  0  0  0
   53.6521   23.0108   40.2042 H   0  0  0  0  0  0  0  0  0  0  0  0
   54.7113   24.8979   41.4424 H   0  0  0  0  0  0  0  0  0  0  0  0
   53.3582   26.2589   43.0341 H   0  0  0  0  0  0  0  0  0  0  0  0
   50.9473   25.7418   43.3849 H   0  0  0  0  0  0  0  0  0  0  0  0
  1  2  1  0
  2  3  1  0
  3  4  1  0
  4  5  2  0
  5  6  1  0
  6  7  2  0
  7  8  1  0
  8  9  2  0
  9  4  1  0
  1 10  1  0
  1 11  1  0
  1 12  1  0
  2 13  1  0
  2 14  1  0
  3 15  1  0
  3 16  1  0
  5 17  1  0
  6 18  1  0
  7 19  1  0
  8 20  1  0
  9 21  1  0
M  CHG  1   1   1
M  END
>  <meeko>  (7) 
{"is_sidechain": [false], "free_energy": -3.929, "intermolecular_energy": -4.514, "internal_energy": -0.056}

$$$$
1uto_ligand
     RDKit          3D

 21 21  0  0  0  0  0  0  0  0999 V2000
   43.2630   23.8670   53.3600 N   0  0  0  0  0  0  0  0  0  0  0  0
   44.5130   23.6890   52.5760 C   0  0  0  0  0  0  0  0  0  0  0  0
   44.2130   22.9450   51.2760 C   0  0  0  0  0  0  0  0  0  0  0  0
   44.6920   21.5210   51.3550 C   0  0  0  0  0  0  0  0  0  0  0  0
   45.5660   21.1210   52.3760 C   0  0  0  0  0  0  0  0  0  0  0  0
   45.9820   19.7920   52.4670 C   0  0  0  0  0  0  0  0  0  0  0  0
   45.5280   18.8520   51.5430 C   0  0  0  0  0  0  0  0  0  0  0  0
   44.6600   19.2410   50.5250 C   0  0  0  0  0  0  0  0  0  0  0  0
   44.2420   20.5680   50.4300 C   0  0  0  0  0  0  0  0  0  0  0  0
   43.4520   24.2310   54.3030 H   0  0  0  0  0  0  0  0  0  0  0  0
   42.7460   22.9820   53.4620 H   0  0  0  0  0  0  0  0  0  0  0  0
   42.6330   24.5350   52.8950 H   0  0  0  0  0  0  0  0  0  0  0  0
   44.9392   24.6755   52.3411 H   0  0  0  0  0  0  0  0  0  0  0  0
   45.2311   23.1040   53.1693 H   0  0  0  0  0  0  0  0  0  0  0  0
   43.1274   22.9514   51.0987 H   0  0  0  0  0  0  0  0  0  0  0  0
   44.7377   23.4492   50.4511 H   0  0  0  0  0  0  0  0  0  0  0  0
   45.9255   21.8584   53.1088 H   0  0  0  0  0  0  0  0  0  0  0  0
   46.6694   19.4856   53.2693 H   0  0  0  0  0  0  0  0  0  0  0  0
   45.8547   17.8043   51.6176 H   0  0  0  0  0  0  0  0  0  0  0  0
   44.3036   18.4997   49.7946 H   0  0  0  0  0  0  0  0  0  0  0  0
   43.5554   20.8688   49.6249 H   0  0  0  0  0  0  0  0  0  0  0  0
  1  2  1  0
  2  3  1  0
  3  4  1  0
  4  5  2  0
  5  6  1  0
  6  7  2  0
  7  8  1  0
  8  9  2  0
  9  4  1  0
  1 10  1  0
  1 11  1  0
  1 12  1  0
  2 13  1  0
  2 14  1  0
  3 15  1  0
  3 16  1  0
  5 17  1  0
  6 18  1  0
  7 19  1  0
  8 20  1  0
  9 21  1  0
M  CHG  1   1   1
M  END
>  <meeko>  (8) 
{"is_sidechain": [false], "free_energy": -3.8, "intermolecular_energy": -4.345, "internal_energy": -0.077}

$$$$
1uto_ligand
     RDKit          3D

 21 21  0  0  0  0  0  0  0  0999 V2000
   50.9630   26.9510   42.6410 N   0  0  0  0  0  0  0  0  0  0  0  0
   51.7450   25.7950   43.1510 C   0  0  0  0  0  0  0  0  0  0  0  0
   53.1210   25.7620   42.4890 C   0  0  0  0  0  0  0  0  0  0  0  0
   53.2460   24.5710   41.5790 C   0  0  0  0  0  0  0  0  0  0  0  0
   54.4420   24.3280   40.8880 C   0  0  0  0  0  0  0  0  0  0  0  0
   54.5670   23.2040   40.0700 C   0  0  0  0  0  0  0  0  0  0  0  0
   53.5030   22.3140   39.9370 C   0  0  0  0  0  0  0  0  0  0  0  0
   52.3110   22.5480   40.6190 C   0  0  0  0  0  0  0  0  0  0  0  0
   52.1810   23.6700   41.4380 C   0  0  0  0  0  0  0  0  0  0  0  0
   50.2790   27.2850   43.3330 H   0  0  0  0  0  0  0  0  0  0  0  0
   50.4500   26.7170   41.7800 H   0  0  0  0  0  0  0  0  0  0  0  0
   51.5840   27.7420   42.4200 H   0  0  0  0  0  0  0  0  0  0  0  0
   51.8670   25.8898   44.2401 H   0  0  0  0  0  0  0  0  0  0  0  0
   51.2085   24.8641   42.9152 H   0  0  0  0  0  0  0  0  0  0  0  0
   53.2609   26.6813   41.9014 H   0  0  0  0  0  0  0  0  0  0  0  0
   53.8887   25.6892   43.2735 H   0  0  0  0  0  0  0  0  0  0  0  0
   55.2855   25.0265   40.9912 H   0  0  0  0  0  0  0  0  0  0  0  0
   55.5072   23.0204   39.5293 H   0  0  0  0  0  0  0  0  0  0  0  0
   53.6042   21.4273   39.2939 H   0  0  0  0  0  0  0  0  0  0  0  0
   51.4705   21.8466   40.5116 H   0  0  0  0  0  0  0  0  0  0  0  0
   51.2382   23.8487   41.9758 H   0  0  0  0  0  0  0  0  0  0  0  0
  1  2  1  0
  2  3  1  0
  3  4  1  0
  4  5  2  0
  5  6  1  0
  6  7  2  0
  7  8  1  0
  8  9  2  0
  9  4  1  0
  1 10  1  0
  1 11  1  0
  1 12  1  0
  2 13  1  0
  2 14  1  0
  3 15  1  0
  3 16  1  0
  5 17  1  0
  6 18  1  0
  7 19  1  0
  8 20  1  0
  9 21  1  0
M  CHG  1   1   1
M  END
>  <meeko>  (9) 
{"is_sidechain": [false], "free_energy": -3.763, "intermolecular_energy": -4.302, "internal_energy": -0.077}

$$$$
