4ea2_ligand
     RDKit          3D

 64 66  0  0  0  0  0  0  0  0999 V2000
  -27.6590  -11.3970   -8.0590 C   0  0  0  0  0  0  0  0  0  0  0  0
  -27.1980  -11.0670   -6.6650 C   0  0  0  0  0  0  0  0  0  0  0  0
  -27.9200   -9.9040   -6.0320 C   0  0  0  0  0  0  0  0  0  0  0  0
  -26.3000  -11.7830   -5.9580 C   0  0  0  0  0  0  0  0  0  0  0  0
  -25.5580  -13.0090   -6.4260 C   0  0  0  0  0  0  0  0  0  0  0  0
  -24.3710  -12.7190   -7.3640 C   0  0  0  0  0  0  0  0  0  0  0  0
  -24.2220  -13.5640   -8.6200 C   0  0  0  0  0  0  0  0  0  0  0  0
  -25.5430  -14.0360   -9.1910 C   0  0  0  0  0  0  0  0  0  0  0  0
  -23.0750  -13.8690   -9.2600 C   0  0  0  0  0  0  0  0  0  0  0  0
  -21.6880  -13.4530   -8.9130 C   0  0  0  0  0  0  0  0  0  0  0  0
  -20.6610  -14.3660   -9.5260 N   0  0  0  0  0  0  0  0  0  0  0  0
  -19.8400  -15.1580   -8.5450 C   0  0  0  0  0  0  0  0  0  0  0  0
  -19.9500  -16.6920   -8.7610 C   0  0  0  0  0  0  0  0  0  0  0  0
  -21.3610  -17.2150   -8.8820 N   0  0  0  0  0  0  0  0  0  0  0  0
  -21.9230  -18.1430   -7.8390 C   0  0  2  0  0  0  0  0  0  0  0  0
  -23.3930  -18.4840   -8.1770 C   0  0  1  0  0  0  0  0  0  0  0  0
  -23.8750  -19.5500   -7.1710 C   0  0  0  0  0  0  0  0  0  0  0  0
  -23.7900  -19.0000   -5.7340 C   0  0  2  0  0  0  0  0  0  0  0  0
  -24.6840  -17.7520   -5.6190 C   0  0  0  0  0  0  0  0  0  0  0  0
  -24.2140  -16.6770   -6.6140 C   0  0  2  0  0  0  0  0  0  0  0  0
  -24.3000  -17.2450   -8.0420 C   0  0  0  0  0  0  0  0  0  0  0  0
  -22.7570  -16.2990   -6.2960 C   0  0  0  0  0  0  0  0  0  0  0  0
  -21.8470  -17.5360   -6.4230 C   0  0  1  0  0  0  0  0  0  0  0  0
  -22.3350  -18.6050   -5.4230 C   0  0  0  0  0  0  0  0  0  0  0  0
  -28.5525  -12.0366   -8.0079 H   0  0  0  0  0  0  0  0  0  0  0  0
  -27.9035  -10.4675   -8.5940 H   0  0  0  0  0  0  0  0  0  0  0  0
  -26.8580  -11.9281   -8.5940 H   0  0  0  0  0  0  0  0  0  0  0  0
  -27.8659   -9.9911   -4.9368 H   0  0  0  0  0  0  0  0  0  0  0  0
  -27.4473   -8.9626   -6.3488 H   0  0  0  0  0  0  0  0  0  0  0  0
  -28.9734   -9.9101   -6.3488 H   0  0  0  0  0  0  0  0  0  0  0  0
  -26.0873  -11.4372   -4.9357 H   0  0  0  0  0  0  0  0  0  0  0  0
  -25.1749  -13.5374   -5.5406 H   0  0  0  0  0  0  0  0  0  0  0  0
  -26.2764  -13.6064   -7.0066 H   0  0  0  0  0  0  0  0  0  0  0  0
  -24.4581  -11.6705   -7.6852 H   0  0  0  0  0  0  0  0  0  0  0  0
  -23.4833  -12.9662   -6.7633 H   0  0  0  0  0  0  0  0  0  0  0  0
  -26.2310  -14.2818   -8.3687 H   0  0  0  0  0  0  0  0  0  0  0  0
  -25.9809  -13.2387   -9.8095 H   0  0  0  0  0  0  0  0  0  0  0  0
  -25.3765  -14.9303   -9.8095 H   0  0  0  0  0  0  0  0  0  0  0  0
  -23.1768  -14.5057  -10.1512 H   0  0  0  0  0  0  0  0  0  0  0  0
  -21.5203  -12.4302   -9.2814 H   0  0  0  0  0  0  0  0  0  0  0  0
  -21.5798  -13.5020   -7.8194 H   0  0  0  0  0  0  0  0  0  0  0  0
  -21.1570  -14.9400  -10.2160 H   0  0  0  0  0  0  0  0  0  0  0  0
  -20.0450  -13.7370  -10.0690 H   0  0  0  0  0  0  0  0  0  0  0  0
  -18.7856  -14.8636   -8.6521 H   0  0  0  0  0  0  0  0  0  0  0  0
  -20.2273  -14.9387   -7.5391 H   0  0  0  0  0  0  0  0  0  0  0  0
  -19.4102  -16.9470   -9.6849 H   0  0  0  0  0  0  0  0  0  0  0  0
  -19.5214  -17.1624   -7.8638 H   0  0  0  0  0  0  0  0  0  0  0  0
  -21.4910  -17.6550   -9.8090 H   0  0  0  0  0  0  0  0  0  0  0  0
  -21.9790  -16.3880   -8.9420 H   0  0  0  0  0  0  0  0  0  0  0  0
  -21.3117  -19.0575   -7.8464 H   0  0  0  0  0  0  0  0  0  0  0  0
  -23.4469  -18.8451   -9.2146 H   0  0  0  0  0  0  0  0  0  0  0  0
  -24.9177  -19.8180   -7.3968 H   0  0  0  0  0  0  0  0  0  0  0  0
  -23.2331  -20.4394   -7.2543 H   0  0  0  0  0  0  0  0  0  0  0  0
  -24.1252  -19.7698   -5.0233 H   0  0  0  0  0  0  0  0  0  0  0  0
  -25.7249  -18.0271   -5.8442 H   0  0  0  0  0  0  0  0  0  0  0  0
  -24.6177  -17.3523   -4.5963 H   0  0  0  0  0  0  0  0  0  0  0  0
  -24.8505  -15.7835   -6.5333 H   0  0  0  0  0  0  0  0  0  0  0  0
  -25.3401  -17.5308   -8.2574 H   0  0  0  0  0  0  0  0  0  0  0  0
  -23.9666  -16.4765   -8.7549 H   0  0  0  0  0  0  0  0  0  0  0  0
  -22.4198  -15.5257   -7.0019 H   0  0  0  0  0  0  0  0  0  0  0  0
  -22.7018  -15.9167   -5.2660 H   0  0  0  0  0  0  0  0  0  0  0  0
  -20.8106  -17.2286   -6.2197 H   0  0  0  0  0  0  0  0  0  0  0  0
  -21.6927  -19.4947   -5.5001 H   0  0  0  0  0  0  0  0  0  0  0  0
  -22.2852  -18.1926   -4.4044 H   0  0  0  0  0  0  0  0  0  0  0  0
  1  2  1  0
  2  3  1  0
  2  4  2  3
  4  5  1  0
  5  6  1  0
  6  7  1  0
  7  8  1  0
  7  9  2  0
  9 10  1  0
 10 11  1  0
 11 12  1  0
 12 13  1  0
 13 14  1  0
 14 15  1  0
 15 16  1  0
 16 17  1  0
 17 18  1  0
 18 19  1  0
 19 20  1  0
 20 21  1  0
 20 22  1  0
 22 23  1  0
 23 24  1  0
 23 15  1  0
 21 16  1  0
 24 18  1  0
  1 25  1  0
  1 26  1  0
  1 27  1  0
  3 28  1  0
  3 29  1  0
  3 30  1  0
  4 31  1  0
  5 32  1  0
  5 33  1  0
  6 34  1  0
  6 35  1  0
  8 36  1  0
  8 37  1  0
  8 38  1  0
  9 39  1  0
 10 40  1  0
 10 41  1  0
 11 42  1  0
 11 43  1  0
 12 44  1  0
 12 45  1  0
 13 46  1  0
 13 47  1  0
 14 48  1  0
 14 49  1  0
 15 50  1  6
 16 51  1  1
 17 52  1  0
 17 53  1  0
 18 54  1  6
 19 55  1  0
 19 56  1  0
 20 57  1  1
 21 58  1  0
 21 59  1  0
 22 60  1  0
 22 61  1  0
 23 62  1  6
 24 63  1  0
 24 64  1  0
M  CHG  2  11   1  14   1
M  END
>  <meeko>  (1) 
{"is_sidechain": [false], "free_energy": -8.643, "intermolecular_energy": -13.191, "internal_energy": -1.937}

$$$$
4ea2_ligand
     RDKit          3D

 64 66  0  0  0  0  0  0  0  0999 V2000
  -25.6310  -11.6590   -5.5000 C   0  0  0  0  0  0  0  0  0  0  0  0
  -25.5460  -12.9280   -4.6940 C   0  0  0  0  0  0  0  0  0  0  0  0
  -25.8850  -12.7590   -3.2340 C   0  0  0  0  0  0  0  0  0  0  0  0
  -25.3020  -14.1520   -5.2040 C   0  0  0  0  0  0  0  0  0  0  0  0
  -25.0260  -14.4860   -6.6480 C   0  0  0  0  0  0  0  0  0  0  0  0
  -23.6120  -14.1110   -7.1320 C   0  0  0  0  0  0  0  0  0  0  0  0
  -23.4170  -13.7890   -8.6060 C   0  0  0  0  0  0  0  0  0  0  0  0
  -24.7150  -13.5500   -9.3490 C   0  0  0  0  0  0  0  0  0  0  0  0
  -22.2440  -13.6580   -9.2590 C   0  0  0  0  0  0  0  0  0  0  0  0
  -20.8660  -13.7810   -8.7080 C   0  0  0  0  0  0  0  0  0  0  0  0
  -20.2030  -15.0610   -9.1440 N   0  0  0  0  0  0  0  0  0  0  0  0
  -19.5660  -15.8600   -8.0390 C   0  0  0  0  0  0  0  0  0  0  0  0
  -20.1930  -15.5770   -6.6470 C   0  0  0  0  0  0  0  0  0  0  0  0
  -21.4660  -16.3370   -6.3600 N   0  0  0  0  0  0  0  0  0  0  0  0
  -21.5610  -17.8080   -6.6650 C   0  0  2  0  0  0  0  0  0  0  0  0
  -22.1130  -18.0120   -8.0950 C   0  0  1  0  0  0  0  0  0  0  0  0
  -22.0510  -19.5190   -8.4160 C   0  0  0  0  0  0  0  0  0  0  0  0
  -22.9110  -20.3120   -7.4120 C   0  0  2  0  0  0  0  0  0  0  0  0
  -24.3700  -19.8320   -7.5100 C   0  0  0  0  0  0  0  0  0  0  0  0
  -24.4500  -18.3290   -7.1890 C   0  0  2  0  0  0  0  0  0  0  0  0
  -23.5830  -17.5550   -8.1970 C   0  0  0  0  0  0  0  0  0  0  0  0
  -23.9240  -18.0900   -5.7630 C   0  0  0  0  0  0  0  0  0  0  0  0
  -22.4580  -18.5520   -5.6540 C   0  0  1  0  0  0  0  0  0  0  0  0
  -22.3950  -20.0580   -5.9840 C   0  0  0  0  0  0  0  0  0  0  0  0
  -25.6888  -10.7961   -4.8203 H   0  0  0  0  0  0  0  0  0  0  0  0
  -24.7370  -11.5669   -6.1343 H   0  0  0  0  0  0  0  0  0  0  0  0
  -26.5293  -11.6870   -6.1343 H   0  0  0  0  0  0  0  0  0  0  0  0
  -25.0690  -13.1658   -2.6186 H   0  0  0  0  0  0  0  0  0  0  0  0
  -26.0159  -11.6902   -3.0093 H   0  0  0  0  0  0  0  0  0  0  0  0
  -26.8173  -13.2978   -3.0093 H   0  0  0  0  0  0  0  0  0  0  0  0
  -25.3046  -14.9924   -4.4943 H   0  0  0  0  0  0  0  0  0  0  0  0
  -25.1585  -15.5698   -6.7813 H   0  0  0  0  0  0  0  0  0  0  0  0
  -25.7299  -13.8895   -7.2469 H   0  0  0  0  0  0  0  0  0  0  0  0
  -23.2960  -13.2258   -6.5605 H   0  0  0  0  0  0  0  0  0  0  0  0
  -23.0190  -15.0236   -6.9723 H   0  0  0  0  0  0  0  0  0  0  0  0
  -25.5296  -13.4000   -8.6251 H   0  0  0  0  0  0  0  0  0  0  0  0
  -24.6164  -12.6549   -9.9807 H   0  0  0  0  0  0  0  0  0  0  0  0
  -24.9417  -14.4215   -9.9807 H   0  0  0  0  0  0  0  0  0  0  0  0
  -22.3141  -13.4320  -10.3332 H   0  0  0  0  0  0  0  0  0  0  0  0
  -20.2642  -12.9302   -9.0600 H   0  0  0  0  0  0  0  0  0  0  0  0
  -20.9354  -13.7879   -7.6102 H   0  0  0  0  0  0  0  0  0  0  0  0
  -20.9010  -15.5800   -9.6870 H   0  0  0  0  0  0  0  0  0  0  0  0
  -19.4800  -14.7620   -9.8200 H   0  0  0  0  0  0  0  0  0  0  0  0
  -19.6851  -16.9297   -8.2663 H   0  0  0  0  0  0  0  0  0  0  0  0
  -18.5071  -15.5665   -7.9889 H   0  0  0  0  0  0  0  0  0  0  0  0
  -19.4537  -15.8447   -5.8778 H   0  0  0  0  0  0  0  0  0  0  0  0
  -20.4606  -14.5101   -6.6388 H   0  0  0  0  0  0  0  0  0  0  0  0
  -22.2650  -15.8620   -6.8120 H   0  0  0  0  0  0  0  0  0  0  0  0
  -21.6700  -16.2040   -5.3550 H   0  0  0  0  0  0  0  0  0  0  0  0
  -20.5475  -18.2284   -6.5876 H   0  0  0  0  0  0  0  0  0  0  0  0
  -21.5117  -17.4178   -8.7989 H   0  0  0  0  0  0  0  0  0  0  0  0
  -22.4306  -19.6897   -9.4342 H   0  0  0  0  0  0  0  0  0  0  0  0
  -21.0075  -19.8594   -8.3428 H   0  0  0  0  0  0  0  0  0  0  0  0
  -22.8515  -21.3860   -7.6424 H   0  0  0  0  0  0  0  0  0  0  0  0
  -24.7440  -20.0076   -8.5295 H   0  0  0  0  0  0  0  0  0  0  0  0
  -24.9839  -20.3897   -6.7874 H   0  0  0  0  0  0  0  0  0  0  0  0
  -25.4918  -17.9828   -7.2576 H   0  0  0  0  0  0  0  0  0  0  0  0
  -23.9528  -17.7445   -9.2155 H   0  0  0  0  0  0  0  0  0  0  0  0
  -23.6417  -16.4801   -7.9707 H   0  0  0  0  0  0  0  0  0  0  0  0
  -23.9857  -17.0172   -5.5277 H   0  0  0  0  0  0  0  0  0  0  0  0
  -24.5361  -18.6652   -5.0528 H   0  0  0  0  0  0  0  0  0  0  0  0
  -22.1012  -18.3417   -4.6350 H   0  0  0  0  0  0  0  0  0  0  0  0
  -21.3535  -20.4034   -5.9073 H   0  0  0  0  0  0  0  0  0  0  0  0
  -23.0268  -20.6081   -5.2712 H   0  0  0  0  0  0  0  0  0  0  0  0
  1  2  1  0
  2  3  1  0
  2  4  2  3
  4  5  1  0
  5  6  1  0
  6  7  1  0
  7  8  1  0
  7  9  2  0
  9 10  1  0
 10 11  1  0
 11 12  1  0
 12 13  1  0
 13 14  1  0
 14 15  1  0
 15 16  1  0
 16 17  1  0
 17 18  1  0
 18 19  1  0
 19 20  1  0
 20 21  1  0
 20 22  1  0
 22 23  1  0
 23 24  1  0
 23 15  1  0
 21 16  1  0
 24 18  1  0
  1 25  1  0
  1 26  1  0
  1 27  1  0
  3 28  1  0
  3 29  1  0
  3 30  1  0
  4 31  1  0
  5 32  1  0
  5 33  1  0
  6 34  1  0
  6 35  1  0
  8 36  1  0
  8 37  1  0
  8 38  1  0
  9 39  1  0
 10 40  1  0
 10 41  1  0
 11 42  1  0
 11 43  1  0
 12 44  1  0
 12 45  1  0
 13 46  1  0
 13 47  1  0
 14 48  1  0
 14 49  1  0
 15 50  1  1
 16 51  1  1
 17 52  1  0
 17 53  1  0
 18 54  1  1
 19 55  1  0
 19 56  1  0
 20 57  1  6
 21 58  1  0
 21 59  1  0
 22 60  1  0
 22 61  1  0
 23 62  1  6
 24 63  1  0
 24 64  1  0
M  CHG  2  11   1  14   1
M  END
>  <meeko>  (2) 
{"is_sidechain": [false], "free_energy": -8.571, "intermolecular_energy": -13.487, "internal_energy": -1.531}

$$$$
4ea2_ligand
     RDKit          3D

 64 66  0  0  0  0  0  0  0  0999 V2000
  -27.5890  -11.3870   -7.2270 C   0  0  0  0  0  0  0  0  0  0  0  0
  -26.3950  -11.0100   -6.3930 C   0  0  0  0  0  0  0  0  0  0  0  0
  -26.3290   -9.5480   -6.0280 C   0  0  0  0  0  0  0  0  0  0  0  0
  -25.4940  -11.8820   -5.8960 C   0  0  0  0  0  0  0  0  0  0  0  0
  -25.4740  -13.3740   -6.1070 C   0  0  0  0  0  0  0  0  0  0  0  0
  -24.2420  -13.8960   -6.8710 C   0  0  0  0  0  0  0  0  0  0  0  0
  -24.2660  -13.8490   -8.3920 C   0  0  0  0  0  0  0  0  0  0  0  0
  -25.6570  -13.9690   -8.9790 C   0  0  0  0  0  0  0  0  0  0  0  0
  -23.2110  -13.6690   -9.2130 C   0  0  0  0  0  0  0  0  0  0  0  0
  -21.7840  -13.4620   -8.8460 C   0  0  0  0  0  0  0  0  0  0  0  0
  -20.8660  -14.3480   -9.6460 N   0  0  0  0  0  0  0  0  0  0  0  0
  -19.8620  -15.1250   -8.8400 C   0  0  0  0  0  0  0  0  0  0  0  0
  -20.2610  -15.2640   -7.3450 C   0  0  0  0  0  0  0  0  0  0  0  0
  -20.6650  -16.6560   -6.9250 N   0  0  0  0  0  0  0  0  0  0  0  0
  -22.1170  -17.0060   -6.7430 C   0  0  2  0  0  0  0  0  0  0  0  0
  -22.2460  -18.2720   -5.8650 C   0  0  1  0  0  0  0  0  0  0  0  0
  -23.7450  -18.5030   -5.5830 C   0  0  0  0  0  0  0  0  0  0  0  0
  -24.5080  -18.7120   -6.9050 C   0  0  2  0  0  0  0  0  0  0  0  0
  -23.9330  -19.9420   -7.6290 C   0  0  0  0  0  0  0  0  0  0  0  0
  -22.4380  -19.7270   -7.9210 C   0  0  2  0  0  0  0  0  0  0  0  0
  -21.6930  -19.5150   -6.5920 C   0  0  0  0  0  0  0  0  0  0  0  0
  -22.2730  -18.4820   -8.8100 C   0  0  0  0  0  0  0  0  0  0  0  0
  -22.8300  -17.2390   -8.0910 C   0  0  1  0  0  0  0  0  0  0  0  0
  -24.3280  -17.4730   -7.8010 C   0  0  0  0  0  0  0  0  0  0  0  0
  -28.4282  -11.6520   -6.5671 H   0  0  0  0  0  0  0  0  0  0  0  0
  -27.8763  -10.5359   -7.8618 H   0  0  0  0  0  0  0  0  0  0  0  0
  -27.3355  -12.2488   -7.8618 H   0  0  0  0  0  0  0  0  0  0  0  0
  -26.3243   -9.4433   -4.9330 H   0  0  0  0  0  0  0  0  0  0  0  0
  -25.4101   -9.1077   -6.4424 H   0  0  0  0  0  0  0  0  0  0  0  0
  -27.2045   -9.0267   -6.4424 H   0  0  0  0  0  0  0  0  0  0  0  0
  -24.6914  -11.4609   -5.2727 H   0  0  0  0  0  0  0  0  0  0  0  0
  -25.4980  -13.8606   -5.1208 H   0  0  0  0  0  0  0  0  0  0  0  0
  -26.3505  -13.6135   -6.7269 H   0  0  0  0  0  0  0  0  0  0  0  0
  -23.3772  -13.3022   -6.5399 H   0  0  0  0  0  0  0  0  0  0  0  0
  -24.2076  -14.9692   -6.6320 H   0  0  0  0  0  0  0  0  0  0  0  0
  -26.3942  -14.0326   -8.1651 H   0  0  0  0  0  0  0  0  0  0  0  0
  -25.8707  -13.0860   -9.5991 H   0  0  0  0  0  0  0  0  0  0  0  0
  -25.7163  -14.8756   -9.5991 H   0  0  0  0  0  0  0  0  0  0  0  0
  -23.4338  -13.6761  -10.2902 H   0  0  0  0  0  0  0  0  0  0  0  0
  -21.5171  -12.4114   -9.0332 H   0  0  0  0  0  0  0  0  0  0  0  0
  -21.6642  -13.7172   -7.7827 H   0  0  0  0  0  0  0  0  0  0  0  0
  -21.4680  -14.9300  -10.2390 H   0  0  0  0  0  0  0  0  0  0  0  0
  -20.3750  -13.7020  -10.2870 H   0  0  0  0  0  0  0  0  0  0  0  0
  -19.7685  -16.1319   -9.2730 H   0  0  0  0  0  0  0  0  0  0  0  0
  -18.9116  -14.5724   -8.8770 H   0  0  0  0  0  0  0  0  0  0  0  0
  -19.4011  -14.9574   -6.7313 H   0  0  0  0  0  0  0  0  0  0  0  0
  -21.1464  -14.6275   -7.2002 H   0  0  0  0  0  0  0  0  0  0  0  0
  -20.1600  -16.9200   -6.0620 H   0  0  0  0  0  0  0  0  0  0  0  0
  -20.2640  -17.3050   -7.6230 H   0  0  0  0  0  0  0  0  0  0  0  0
  -22.6028  -16.1519   -6.2485 H   0  0  0  0  0  0  0  0  0  0  0  0
  -21.6726  -18.1240   -4.9380 H   0  0  0  0  0  0  0  0  0  0  0  0
  -23.8626  -19.3952   -4.9504 H   0  0  0  0  0  0  0  0  0  0  0  0
  -24.1538  -17.6213   -5.0677 H   0  0  0  0  0  0  0  0  0  0  0  0
  -25.5767  -18.8649   -6.6943 H   0  0  0  0  0  0  0  0  0  0  0  0
  -24.0561  -20.8305   -6.9922 H   0  0  0  0  0  0  0  0  0  0  0  0
  -24.4699  -20.0871   -8.5781 H   0  0  0  0  0  0  0  0  0  0  0  0
  -22.0244  -20.6050   -8.4388 H   0  0  0  0  0  0  0  0  0  0  0  0
  -21.8294  -20.4003   -5.9535 H   0  0  0  0  0  0  0  0  0  0  0  0
  -20.6234  -19.3637   -6.7997 H   0  0  0  0  0  0  0  0  0  0  0  0
  -21.2055  -18.3288   -9.0267 H   0  0  0  0  0  0  0  0  0  0  0  0
  -22.8279  -18.6337   -9.7476 H   0  0  0  0  0  0  0  0  0  0  0  0
  -22.6709  -16.3627   -8.7365 H   0  0  0  0  0  0  0  0  0  0  0  0
  -24.7413  -16.5913   -7.2894 H   0  0  0  0  0  0  0  0  0  0  0  0
  -24.8566  -17.6372   -8.7516 H   0  0  0  0  0  0  0  0  0  0  0  0
  1  2  1  0
  2  3  1  0
  2  4  2  3
  4  5  1  0
  5  6  1  0
  6  7  1  0
  7  8  1  0
  7  9  2  0
  9 10  1  0
 10 11  1  0
 11 12  1  0
 12 13  1  0
 13 14  1  0
 14 15  1  0
 15 16  1  0
 16 17  1  0
 17 18  1  0
 18 19  1  0
 19 20  1  0
 20 21  1  0
 20 22  1  0
 22 23  1  0
 23 24  1  0
 23 15  1  0
 21 16  1  0
 24 18  1  0
  1 25  1  0
  1 26  1  0
  1 27  1  0
  3 28  1  0
  3 29  1  0
  3 30  1  0
  4 31  1  0
  5 32  1  0
  5 33  1  0
  6 34  1  0
  6 35  1  0
  8 36  1  0
  8 37  1  0
  8 38  1  0
  9 39  1  0
 10 40  1  0
 10 41  1  0
 11 42  1  0
 11 43  1  0
 12 44  1  0
 12 45  1  0
 13 46  1  0
 13 47  1  0
 14 48  1  0
 14 49  1  0
 15 50  1  6
 16 51  1  6
 17 52  1  0
 17 53  1  0
 18 54  1  6
 19 55  1  0
 19 56  1  0
 20 57  1  1
 21 58  1  0
 21 59  1  0
 22 60  1  0
 22 61  1  0
 23 62  1  1
 24 63  1  0
 24 64  1  0
M  CHG  2  11   1  14   1
M  END
>  <meeko>  (3) 
{"is_sidechain": [false], "free_energy": -8.399, "intermolecular_energy": -12.921, "internal_energy": -1.834}

$$$$
4ea2_ligand
     RDKit          3D

 64 66  0  0  0  0  0  0  0  0999 V2000
  -25.4190  -11.7160   -5.9220 C   0  0  0  0  0  0  0  0  0  0  0  0
  -25.3360  -13.0240   -5.1820 C   0  0  0  0  0  0  0  0  0  0  0  0
  -26.0460  -13.0300   -3.8510 C   0  0  0  0  0  0  0  0  0  0  0  0
  -24.7830  -14.1540   -5.6690 C   0  0  0  0  0  0  0  0  0  0  0  0
  -24.1110  -14.3210   -7.0080 C   0  0  0  0  0  0  0  0  0  0  0  0
  -22.6300  -14.7370   -6.9320 C   0  0  0  0  0  0  0  0  0  0  0  0
  -21.7850  -14.6250   -8.1920 C   0  0  0  0  0  0  0  0  0  0  0  0
  -22.5410  -14.0640   -9.3790 C   0  0  0  0  0  0  0  0  0  0  0  0
  -20.4750  -14.9210   -8.3190 C   0  0  0  0  0  0  0  0  0  0  0  0
  -19.5380  -15.4140   -7.2720 C   0  0  0  0  0  0  0  0  0  0  0  0
  -18.5550  -16.4110   -7.8260 N   0  0  0  0  0  0  0  0  0  0  0  0
  -19.0840  -17.2860   -8.9300 C   0  0  0  0  0  0  0  0  0  0  0  0
  -19.0610  -18.7970   -8.5690 C   0  0  0  0  0  0  0  0  0  0  0  0
  -20.0960  -19.2220   -7.5570 N   0  0  0  0  0  0  0  0  0  0  0  0
  -21.4000  -18.4800   -7.4410 C   0  0  2  0  0  0  0  0  0  0  0  0
  -22.1680  -18.9610   -6.1880 C   0  0  1  0  0  0  0  0  0  0  0  0
  -23.4190  -18.0710   -6.0290 C   0  0  0  0  0  0  0  0  0  0  0  0
  -24.3230  -18.1990   -7.2700 C   0  0  2  0  0  0  0  0  0  0  0  0
  -24.7610  -19.6670   -7.4240 C   0  0  0  0  0  0  0  0  0  0  0  0
  -23.5250  -20.5680   -7.5880 C   0  0  2  0  0  0  0  0  0  0  0  0
  -22.6310  -20.4240   -6.3430 C   0  0  0  0  0  0  0  0  0  0  0  0
  -22.7440  -20.1290   -8.8390 C   0  0  0  0  0  0  0  0  0  0  0  0
  -22.2850  -18.6660   -8.6910 C   0  0  1  0  0  0  0  0  0  0  0  0
  -23.5350  -17.7770   -8.5230 C   0  0  0  0  0  0  0  0  0  0  0  0
  -25.4715  -10.8885   -5.1992 H   0  0  0  0  0  0  0  0  0  0  0  0
  -24.5267  -11.5949   -6.5538 H   0  0  0  0  0  0  0  0  0  0  0  0
  -26.3194  -11.7087   -6.5538 H   0  0  0  0  0  0  0  0  0  0  0  0
  -25.3036  -13.0237   -3.0394 H   0  0  0  0  0  0  0  0  0  0  0  0
  -26.6837  -12.1372   -3.7715 H   0  0  0  0  0  0  0  0  0  0  0  0
  -26.6685  -13.9334   -3.7715 H   0  0  0  0  0  0  0  0  0  0  0  0
  -24.8269  -15.0437   -5.0236 H   0  0  0  0  0  0  0  0  0  0  0  0
  -24.6560  -15.0922   -7.5721 H   0  0  0  0  0  0  0  0  0  0  0  0
  -24.1343  -13.3349   -7.4948 H   0  0  0  0  0  0  0  0  0  0  0  0
  -22.1543  -14.1097   -6.1638 H   0  0  0  0  0  0  0  0  0  0  0  0
  -22.6611  -15.8160   -6.7204 H   0  0  0  0  0  0  0  0  0  0  0  0
  -23.3765  -13.4440   -9.0218 H   0  0  0  0  0  0  0  0  0  0  0  0
  -21.8625  -13.4491   -9.9885 H   0  0  0  0  0  0  0  0  0  0  0  0
  -22.9329  -14.8916   -9.9885 H   0  0  0  0  0  0  0  0  0  0  0  0
  -20.0451  -14.7806   -9.3217 H   0  0  0  0  0  0  0  0  0  0  0  0
  -18.9832  -14.5585   -6.8593 H   0  0  0  0  0  0  0  0  0  0  0  0
  -20.1300  -15.9148   -6.4917 H   0  0  0  0  0  0  0  0  0  0  0  0
  -17.7150  -15.8810   -8.0800 H   0  0  0  0  0  0  0  0  0  0  0  0
  -18.2900  -16.9930   -7.0150 H   0  0  0  0  0  0  0  0  0  0  0  0
  -20.1223  -16.9921   -9.1435 H   0  0  0  0  0  0  0  0  0  0  0  0
  -18.4304  -17.1458   -9.8036 H   0  0  0  0  0  0  0  0  0  0  0  0
  -19.2286  -19.3718   -9.4918 H   0  0  0  0  0  0  0  0  0  0  0  0
  -18.0807  -18.9903   -8.1089 H   0  0  0  0  0  0  0  0  0  0  0  0
  -19.6660  -19.2670   -6.6170 H   0  0  0  0  0  0  0  0  0  0  0  0
  -20.3080  -20.2160   -7.7490 H   0  0  0  0  0  0  0  0  0  0  0  0
  -21.1641  -17.4093   -7.3519 H   0  0  0  0  0  0  0  0  0  0  0  0
  -21.5035  -18.8951   -5.3139 H   0  0  0  0  0  0  0  0  0  0  0  0
  -23.9793  -18.3875   -5.1369 H   0  0  0  0  0  0  0  0  0  0  0  0
  -23.1030  -17.0229   -5.9212 H   0  0  0  0  0  0  0  0  0  0  0  0
  -25.2054  -17.5529   -7.1523 H   0  0  0  0  0  0  0  0  0  0  0  0
  -25.3215  -19.9761   -6.5294 H   0  0  0  0  0  0  0  0  0  0  0  0
  -25.3996  -19.7628   -8.3146 H   0  0  0  0  0  0  0  0  0  0  0  0
  -23.8349  -21.6176   -7.6993 H   0  0  0  0  0  0  0  0  0  0  0  0
  -23.2003  -20.7218   -5.4501 H   0  0  0  0  0  0  0  0  0  0  0  0
  -21.7483  -21.0703   -6.4575 H   0  0  0  0  0  0  0  0  0  0  0  0
  -21.8630  -20.7758   -8.9633 H   0  0  0  0  0  0  0  0  0  0  0  0
  -23.3980  -20.2135   -9.7194 H   0  0  0  0  0  0  0  0  0  0  0  0
  -21.7049  -18.3913   -9.5843 H   0  0  0  0  0  0  0  0  0  0  0  0
  -23.2230  -16.7272   -8.4196 H   0  0  0  0  0  0  0  0  0  0  0  0
  -24.1788  -17.8921   -9.4075 H   0  0  0  0  0  0  0  0  0  0  0  0
  1  2  1  0
  2  3  1  0
  2  4  2  3
  4  5  1  0
  5  6  1  0
  6  7  1  0
  7  8  1  0
  7  9  2  0
  9 10  1  0
 10 11  1  0
 11 12  1  0
 12 13  1  0
 13 14  1  0
 14 15  1  0
 15 16  1  0
 16 17  1  0
 17 18  1  0
 18 19  1  0
 19 20  1  0
 20 21  1  0
 20 22  1  0
 22 23  1  0
 23 24  1  0
 23 15  1  0
 21 16  1  0
 24 18  1  0
  1 25  1  0
  1 26  1  0
  1 27  1  0
  3 28  1  0
  3 29  1  0
  3 30  1  0
  4 31  1  0
  5 32  1  0
  5 33  1  0
  6 34  1  0
  6 35  1  0
  8 36  1  0
  8 37  1  0
  8 38  1  0
  9 39  1  0
 10 40  1  0
 10 41  1  0
 11 42  1  0
 11 43  1  0
 12 44  1  0
 12 45  1  0
 13 46  1  0
 13 47  1  0
 14 48  1  0
 14 49  1  0
 15 50  1  6
 16 51  1  6
 17 52  1  0
 17 53  1  0
 18 54  1  6
 19 55  1  0
 19 56  1  0
 20 57  1  1
 21 58  1  0
 21 59  1  0
 22 60  1  0
 22 61  1  0
 23 62  1  1
 24 63  1  0
 24 64  1  0
M  CHG  2  11   1  14   1
M  END
>  <meeko>  (4) 
{"is_sidechain": [false], "free_energy": -8.223, "intermolecular_energy": -12.68, "internal_energy": -1.806}

$$$$
4ea2_ligand
     RDKit          3D

 64 66  0  0  0  0  0  0  0  0999 V2000
  -28.9770   -9.7120   -5.8280 C   0  0  0  0  0  0  0  0  0  0  0  0
  -29.4490  -10.1280   -7.1950 C   0  0  0  0  0  0  0  0  0  0  0  0
  -30.8590   -9.7030   -7.5210 C   0  0  0  0  0  0  0  0  0  0  0  0
  -28.6830  -10.7310   -8.1270 C   0  0  0  0  0  0  0  0  0  0  0  0
  -27.2410  -11.1430   -7.9760 C   0  0  0  0  0  0  0  0  0  0  0  0
  -27.0180  -12.3690   -7.0700 C   0  0  0  0  0  0  0  0  0  0  0  0
  -25.5870  -12.7910   -6.7690 C   0  0  0  0  0  0  0  0  0  0  0  0
  -25.2430  -12.7530   -5.2950 C   0  0  0  0  0  0  0  0  0  0  0  0
  -24.6660  -13.2210   -7.6560 C   0  0  0  0  0  0  0  0  0  0  0  0
  -24.8160  -13.4000   -9.1260 C   0  0  0  0  0  0  0  0  0  0  0  0
  -23.4950  -13.6700   -9.7940 N   0  0  0  0  0  0  0  0  0  0  0  0
  -22.2990  -13.6500   -8.8810 C   0  0  0  0  0  0  0  0  0  0  0  0
  -21.6870  -15.0590   -8.6540 C   0  0  0  0  0  0  0  0  0  0  0  0
  -22.5360  -16.2060   -9.1470 N   0  0  0  0  0  0  0  0  0  0  0  0
  -23.5400  -16.8590   -8.2360 C   0  0  2  0  0  0  0  0  0  0  0  0
  -23.3770  -16.3140   -6.7990 C   0  0  1  0  0  0  0  0  0  0  0  0
  -24.5180  -16.8960   -5.9390 C   0  0  0  0  0  0  0  0  0  0  0  0
  -24.4370  -18.4350   -5.9210 C   0  0  2  0  0  0  0  0  0  0  0  0
  -23.0840  -18.8600   -5.3220 C   0  0  0  0  0  0  0  0  0  0  0  0
  -21.9340  -18.2900   -6.1710 C   0  0  2  0  0  0  0  0  0  0  0  0
  -22.0330  -16.7540   -6.1820 C   0  0  0  0  0  0  0  0  0  0  0  0
  -22.0540  -18.8270   -7.6070 C   0  0  0  0  0  0  0  0  0  0  0  0
  -23.3980  -18.3950   -8.2250 C   0  0  1  0  0  0  0  0  0  0  0  0
  -24.5390  -18.9700   -7.3610 C   0  0  0  0  0  0  0  0  0  0  0  0
  -29.5688  -10.2336   -5.0613 H   0  0  0  0  0  0  0  0  0  0  0  0
  -27.9148   -9.9730   -5.7117 H   0  0  0  0  0  0  0  0  0  0  0  0
  -29.1025   -8.6254   -5.7117 H   0  0  0  0  0  0  0  0  0  0  0  0
  -31.4164   -9.5350   -6.5877 H   0  0  0  0  0  0  0  0  0  0  0  0
  -30.8353   -8.7721   -8.1065 H   0  0  0  0  0  0  0  0  0  0  0  0
  -31.3537  -10.4920   -8.1065 H   0  0  0  0  0  0  0  0  0  0  0  0
  -29.1589  -10.9437   -9.0956 H   0  0  0  0  0  0  0  0  0  0  0  0
  -26.8443  -11.3773   -8.9749 H   0  0  0  0  0  0  0  0  0  0  0  0
  -26.7237  -10.3001   -7.4944 H   0  0  0  0  0  0  0  0  0  0  0  0
  -27.5043  -12.1553   -6.1068 H   0  0  0  0  0  0  0  0  0  0  0  0
  -27.4351  -13.2103   -7.6429 H   0  0  0  0  0  0  0  0  0  0  0  0
  -26.1632  -12.8547   -4.7010 H   0  0  0  0  0  0  0  0  0  0  0  0
  -24.5593  -13.5811   -5.0566 H   0  0  0  0  0  0  0  0  0  0  0  0
  -24.7565  -11.7957   -5.0566 H   0  0  0  0  0  0  0  0  0  0  0  0
  -23.6788  -13.4711   -7.2401 H   0  0  0  0  0  0  0  0  0  0  0  0
  -25.4902  -14.2485   -9.3144 H   0  0  0  0  0  0  0  0  0  0  0  0
  -25.2262  -12.4687   -9.5436 H   0  0  0  0  0  0  0  0  0  0  0  0
  -23.6070  -14.5440  -10.3180 H   0  0  0  0  0  0  0  0  0  0  0  0
  -23.4040  -12.9230  -10.5030 H   0  0  0  0  0  0  0  0  0  0  0  0
  -21.5298  -13.0008   -9.3247 H   0  0  0  0  0  0  0  0  0  0  0  0
  -22.6369  -13.2760   -7.9033 H   0  0  0  0  0  0  0  0  0  0  0  0
  -20.7199  -15.1001   -9.1765 H   0  0  0  0  0  0  0  0  0  0  0  0
  -21.5982  -15.1858   -7.5649 H   0  0  0  0  0  0  0  0  0  0  0  0
  -21.9280  -16.9450   -9.5390 H   0  0  0  0  0  0  0  0  0  0  0  0
  -23.0360  -15.8640   -9.9850 H   0  0  0  0  0  0  0  0  0  0  0  0
  -24.5419  -16.6167   -8.6201 H   0  0  0  0  0  0  0  0  0  0  0  0
  -23.4052  -15.2148   -6.8288 H   0  0  0  0  0  0  0  0  0  0  0  0
  -24.4290  -16.5151   -4.9109 H   0  0  0  0  0  0  0  0  0  0  0  0
  -25.4836  -16.5918   -6.3692 H   0  0  0  0  0  0  0  0  0  0  0  0
  -25.2610  -18.8415   -5.3162 H   0  0  0  0  0  0  0  0  0  0  0  0
  -23.0035  -18.4766   -4.2941 H   0  0  0  0  0  0  0  0  0  0  0  0
  -23.0196  -19.9581   -5.3150 H   0  0  0  0  0  0  0  0  0  0  0  0
  -20.9652  -18.5931   -5.7471 H   0  0  0  0  0  0  0  0  0  0  0  0
  -21.9655  -16.3776   -5.1506 H   0  0  0  0  0  0  0  0  0  0  0  0
  -21.2089  -16.3443   -6.7844 H   0  0  0  0  0  0  0  0  0  0  0  0
  -21.2291  -18.4270   -8.2148 H   0  0  0  0  0  0  0  0  0  0  0  0
  -22.0052  -19.9257   -7.5851 H   0  0  0  0  0  0  0  0  0  0  0  0
  -23.4417  -18.7665   -9.2595 H   0  0  0  0  0  0  0  0  0  0  0  0
  -25.5064  -18.6721   -7.7916 H   0  0  0  0  0  0  0  0  0  0  0  0
  -24.4577  -20.0668   -7.3430 H   0  0  0  0  0  0  0  0  0  0  0  0
  1  2  1  0
  2  3  1  0
  2  4  2  3
  4  5  1  0
  5  6  1  0
  6  7  1  0
  7  8  1  0
  7  9  2  0
  9 10  1  0
 10 11  1  0
 11 12  1  0
 12 13  1  0
 13 14  1  0
 14 15  1  0
 15 16  1  0
 16 17  1  0
 17 18  1  0
 18 19  1  0
 19 20  1  0
 20 21  1  0
 20 22  1  0
 22 23  1  0
 23 24  1  0
 23 15  1  0
 21 16  1  0
 24 18  1  0
  1 25  1  0
  1 26  1  0
  1 27  1  0
  3 28  1  0
  3 29  1  0
  3 30  1  0
  4 31  1  0
  5 32  1  0
  5 33  1  0
  6 34  1  0
  6 35  1  0
  8 36  1  0
  8 37  1  0
  8 38  1  0
  9 39  1  0
 10 40  1  0
 10 41  1  0
 11 42  1  0
 11 43  1  0
 12 44  1  0
 12 45  1  0
 13 46  1  0
 13 47  1  0
 14 48  1  0
 14 49  1  0
 15 50  1  1
 16 51  1  1
 17 52  1  0
 17 53  1  0
 18 54  1  6
 19 55  1  0
 19 56  1  0
 20 57  1  6
 21 58  1  0
 21 59  1  0
 22 60  1  0
 22 61  1  0
 23 62  1  1
 24 63  1  0
 24 64  1  0
M  CHG  2  11   1  14   1
M  END
>  <meeko>  (5) 
{"is_sidechain": [false], "free_energy": -7.769, "intermolecular_energy": -13.282, "internal_energy": -0.511}

$$$$
4ea2_ligand
     RDKit          3D

 64 66  0  0  0  0  0  0  0  0999 V2000
  -24.8870  -13.9160   -9.3570 C   0  0  0  0  0  0  0  0  0  0  0  0
  -24.0150  -13.4950   -8.2050 C   0  0  0  0  0  0  0  0  0  0  0  0
  -24.7670  -12.8890   -7.0470 C   0  0  0  0  0  0  0  0  0  0  0  0
  -22.6880  -13.7190   -8.1180 C   0  0  0  0  0  0  0  0  0  0  0  0
  -21.8180  -14.3820   -9.1550 C   0  0  0  0  0  0  0  0  0  0  0  0
  -20.3060  -14.2950   -8.8720 C   0  0  0  0  0  0  0  0  0  0  0  0
  -19.6870  -15.3300   -7.9450 C   0  0  0  0  0  0  0  0  0  0  0  0
  -19.6630  -14.9040   -6.4920 C   0  0  0  0  0  0  0  0  0  0  0  0
  -19.2270  -16.5520   -8.2860 C   0  0  0  0  0  0  0  0  0  0  0  0
  -19.2210  -17.1900   -9.6310 C   0  0  0  0  0  0  0  0  0  0  0  0
  -19.1250  -18.6890   -9.5370 N   0  0  0  0  0  0  0  0  0  0  0  0
  -20.1230  -19.4480  -10.3690 C   0  0  0  0  0  0  0  0  0  0  0  0
  -21.2170  -20.1480   -9.5160 C   0  0  0  0  0  0  0  0  0  0  0  0
  -21.3480  -19.6270   -8.1050 N   0  0  0  0  0  0  0  0  0  0  0  0
  -22.1760  -18.4040   -7.8180 C   0  0  2  0  0  0  0  0  0  0  0  0
  -21.9540  -17.9520   -6.3560 C   0  0  1  0  0  0  0  0  0  0  0  0
  -22.7000  -16.6170   -6.1550 C   0  0  0  0  0  0  0  0  0  0  0  0
  -24.2080  -16.8080   -6.4120 C   0  0  2  0  0  0  0  0  0  0  0  0
  -24.7590  -17.8510   -5.4250 C   0  0  0  0  0  0  0  0  0  0  0  0
  -24.0260  -19.1910   -5.6150 C   0  0  2  0  0  0  0  0  0  0  0  0
  -22.5240  -18.9810   -5.3590 C   0  0  0  0  0  0  0  0  0  0  0  0
  -24.2420  -19.6820   -7.0570 C   0  0  0  0  0  0  0  0  0  0  0  0
  -23.6800  -18.6540   -8.0570 C   0  0  1  0  0  0  0  0  0  0  0  0
  -24.4210  -17.3160   -7.8500 C   0  0  0  0  0  0  0  0  0  0  0  0
  -25.8144  -14.3637   -8.9704 H   0  0  0  0  0  0  0  0  0  0  0  0
  -25.1325  -13.0372   -9.9713 H   0  0  0  0  0  0  0  0  0  0  0  0
  -24.3515  -14.6548   -9.9713 H   0  0  0  0  0  0  0  0  0  0  0  0
  -24.3297  -13.2414   -6.1012 H   0  0  0  0  0  0  0  0  0  0  0  0
  -24.6964  -11.7924   -7.0975 H   0  0  0  0  0  0  0  0  0  0  0  0
  -25.8235  -13.1911   -7.0975 H   0  0  0  0  0  0  0  0  0  0  0  0
  -22.1898  -13.3837   -7.1964 H   0  0  0  0  0  0  0  0  0  0  0  0
  -22.0968  -15.4447   -9.2085 H   0  0  0  0  0  0  0  0  0  0  0  0
  -21.9908  -13.8435  -10.0985 H   0  0  0  0  0  0  0  0  0  0  0  0
  -19.7882  -14.3726   -9.8394 H   0  0  0  0  0  0  0  0  0  0  0  0
  -20.1836  -13.3420   -8.3365 H   0  0  0  0  0  0  0  0  0  0  0  0
  -19.7132  -15.7944   -5.8480 H   0  0  0  0  0  0  0  0  0  0  0  0
  -18.7325  -14.3546   -6.2863 H   0  0  0  0  0  0  0  0  0  0  0  0
  -20.5259  -14.2536   -6.2863 H   0  0  0  0  0  0  0  0  0  0  0  0
  -18.8032  -17.1520   -7.4672 H   0  0  0  0  0  0  0  0  0  0  0  0
  -20.1509  -16.9248  -10.1553 H   0  0  0  0  0  0  0  0  0  0  0  0
  -18.3404  -16.8243  -10.1795 H   0  0  0  0  0  0  0  0  0  0  0  0
  -18.1480  -18.9310   -9.7320 H   0  0  0  0  0  0  0  0  0  0  0  0
  -19.2750  -18.8980   -8.5360 H   0  0  0  0  0  0  0  0  0  0  0  0
  -20.6127  -18.7440  -11.0579 H   0  0  0  0  0  0  0  0  0  0  0  0
  -19.5728  -20.2337  -10.9075 H   0  0  0  0  0  0  0  0  0  0  0  0
  -22.1843  -20.0129  -10.0220 H   0  0  0  0  0  0  0  0  0  0  0  0
  -20.9160  -21.2026   -9.4305 H   0  0  0  0  0  0  0  0  0  0  0  0
  -20.4080  -19.4830   -7.6990 H   0  0  0  0  0  0  0  0  0  0  0  0
  -21.7180  -20.4070   -7.5350 H   0  0  0  0  0  0  0  0  0  0  0  0
  -21.8514  -17.6145   -8.5118 H   0  0  0  0  0  0  0  0  0  0  0  0
  -20.8741  -17.8500   -6.1733 H   0  0  0  0  0  0  0  0  0  0  0  0
  -22.5483  -16.2674   -5.1231 H   0  0  0  0  0  0  0  0  0  0  0  0
  -22.3055  -15.8742   -6.8640 H   0  0  0  0  0  0  0  0  0  0  0  0
  -24.7302  -15.8494   -6.2760 H   0  0  0  0  0  0  0  0  0  0  0  0
  -24.6068  -17.4949   -4.3954 H   0  0  0  0  0  0  0  0  0  0  0  0
  -25.8330  -17.9959   -5.6136 H   0  0  0  0  0  0  0  0  0  0  0  0
  -24.4176  -19.9396   -4.9106 H   0  0  0  0  0  0  0  0  0  0  0  0
  -22.3781  -18.6125   -4.3329 H   0  0  0  0  0  0  0  0  0  0  0  0
  -21.9994  -19.9387   -5.4915 H   0  0  0  0  0  0  0  0  0  0  0  0
  -23.7256  -20.6434   -7.1950 H   0  0  0  0  0  0  0  0  0  0  0  0
  -25.3200  -19.8064   -7.2368 H   0  0  0  0  0  0  0  0  0  0  0  0
  -23.8206  -19.0463   -9.0750 H   0  0  0  0  0  0  0  0  0  0  0  0
  -24.0318  -16.5713   -8.5600 H   0  0  0  0  0  0  0  0  0  0  0  0
  -25.4966  -17.4708   -8.0207 H   0  0  0  0  0  0  0  0  0  0  0  0
  1  2  1  0
  2  3  1  0
  2  4  2  3
  4  5  1  0
  5  6  1  0
  6  7  1  0
  7  8  1  0
  7  9  2  0
  9 10  1  0
 10 11  1  0
 11 12  1  0
 12 13  1  0
 13 14  1  0
 14 15  1  0
 15 16  1  0
 16 17  1  0
 17 18  1  0
 18 19  1  0
 19 20  1  0
 20 21  1  0
 20 22  1  0
 22 23  1  0
 23 24  1  0
 23 15  1  0
 21 16  1  0
 24 18  1  0
  1 25  1  0
  1 26  1  0
  1 27  1  0
  3 28  1  0
  3 29  1  0
  3 30  1  0
  4 31  1  0
  5 32  1  0
  5 33  1  0
  6 34  1  0
  6 35  1  0
  8 36  1  0
  8 37  1  0
  8 38  1  0
  9 39  1  0
 10 40  1  0
 10 41  1  0
 11 42  1  0
 11 43  1  0
 12 44  1  0
 12 45  1  0
 13 46  1  0
 13 47  1  0
 14 48  1  0
 14 49  1  0
 15 50  1  1
 16 51  1  6
 17 52  1  0
 17 53  1  0
 18 54  1  1
 19 55  1  0
 19 56  1  0
 20 57  1  6
 21 58  1  0
 21 59  1  0
 22 60  1  0
 22 61  1  0
 23 62  1  1
 24 63  1  0
 24 64  1  0
M  CHG  2  11   1  14   1
M  END
>  <meeko>  (6) 
{"is_sidechain": [false], "free_energy": -7.736, "intermolecular_energy": -11.515, "internal_energy": -2.229}

$$$$
4ea2_ligand
     RDKit          3D

 64 66  0  0  0  0  0  0  0  0999 V2000
  -29.0890   -9.4700   -5.9720 C   0  0  0  0  0  0  0  0  0  0  0  0
  -28.5310  -10.3900   -7.0230 C   0  0  0  0  0  0  0  0  0  0  0  0
  -29.2340  -10.3090   -8.3560 C   0  0  0  0  0  0  0  0  0  0  0  0
  -27.4320  -11.1580   -6.8740 C   0  0  0  0  0  0  0  0  0  0  0  0
  -26.5830  -11.2820   -5.6350 C   0  0  0  0  0  0  0  0  0  0  0  0
  -25.2050  -11.9320   -5.8660 C   0  0  0  0  0  0  0  0  0  0  0  0
  -25.1600  -13.3950   -6.2810 C   0  0  0  0  0  0  0  0  0  0  0  0
  -25.6810  -14.3400   -5.2190 C   0  0  0  0  0  0  0  0  0  0  0  0
  -24.7620  -13.8880   -7.4720 C   0  0  0  0  0  0  0  0  0  0  0  0
  -24.2860  -13.1370   -8.6660 C   0  0  0  0  0  0  0  0  0  0  0  0
  -22.9820  -13.6810   -9.1840 N   0  0  0  0  0  0  0  0  0  0  0  0
  -22.8930  -15.1810   -9.2460 C   0  0  0  0  0  0  0  0  0  0  0  0
  -21.7510  -15.7580   -8.3640 C   0  0  0  0  0  0  0  0  0  0  0  0
  -22.0900  -15.8930   -6.8990 N   0  0  0  0  0  0  0  0  0  0  0  0
  -22.1530  -17.2490   -6.2520 C   0  0  2  0  0  0  0  0  0  0  0  0
  -21.5880  -18.3180   -7.2160 C   0  0  1  0  0  0  0  0  0  0  0  0
  -21.5340  -19.6600   -6.4570 C   0  0  0  0  0  0  0  0  0  0  0  0
  -22.9480  -20.0700   -6.0020 C   0  0  2  0  0  0  0  0  0  0  0  0
  -23.8500  -20.2240   -7.2390 C   0  0  0  0  0  0  0  0  0  0  0  0
  -23.9180  -18.8920   -8.0060 C   0  0  2  0  0  0  0  0  0  0  0  0
  -22.4980  -18.4950   -8.4490 C   0  0  0  0  0  0  0  0  0  0  0  0
  -24.4940  -17.8070   -7.0810 C   0  0  0  0  0  0  0  0  0  0  0  0
  -23.5910  -17.6300   -5.8440 C   0  0  1  0  0  0  0  0  0  0  0  0
  -23.5300  -18.9750   -5.0900 C   0  0  0  0  0  0  0  0  0  0  0  0
  -28.8492   -9.8653   -4.9739 H   0  0  0  0  0  0  0  0  0  0  0  0
  -28.6450   -8.4702   -6.0867 H   0  0  0  0  0  0  0  0  0  0  0  0
  -30.1809   -9.4017   -6.0867 H   0  0  0  0  0  0  0  0  0  0  0  0
  -30.3148  -10.1845   -8.1936 H   0  0  0  0  0  0  0  0  0  0  0  0
  -28.8470   -9.4495   -8.9230 H   0  0  0  0  0  0  0  0  0  0  0  0
  -29.0526  -11.2340   -8.9230 H   0  0  0  0  0  0  0  0  0  0  0  0
  -27.1242  -11.7544   -7.7455 H   0  0  0  0  0  0  0  0  0  0  0  0
  -26.4228  -10.2735   -5.2261 H   0  0  0  0  0  0  0  0  0  0  0  0
  -27.1293  -11.9438   -4.9468 H   0  0  0  0  0  0  0  0  0  0  0  0
  -24.6998  -11.3540   -6.6538 H   0  0  0  0  0  0  0  0  0  0  0  0
  -24.7265  -11.9151   -4.8757 H   0  0  0  0  0  0  0  0  0  0  0  0
  -25.4560  -13.9318   -4.2226 H   0  0  0  0  0  0  0  0  0  0  0  0
  -26.7693  -14.4538   -5.3314 H   0  0  0  0  0  0  0  0  0  0  0  0
  -25.1963  -15.3210   -5.3314 H   0  0  0  0  0  0  0  0  0  0  0  0
  -24.7931  -14.9828   -7.5737 H   0  0  0  0  0  0  0  0  0  0  0  0
  -25.0439  -13.2124   -9.4597 H   0  0  0  0  0  0  0  0  0  0  0  0
  -24.1266  -12.0895   -8.3704 H   0  0  0  0  0  0  0  0  0  0  0  0
  -22.8080  -13.2140  -10.0810 H   0  0  0  0  0  0  0  0  0  0  0  0
  -22.2690  -13.3150   -8.5300 H   0  0  0  0  0  0  0  0  0  0  0  0
  -23.8488  -15.6034   -8.9026 H   0  0  0  0  0  0  0  0  0  0  0  0
  -22.6742  -15.4550  -10.2886 H   0  0  0  0  0  0  0  0  0  0  0  0
  -21.4920  -16.7554   -8.7488 H   0  0  0  0  0  0  0  0  0  0  0  0
  -20.9196  -15.0403   -8.4249 H   0  0  0  0  0  0  0  0  0  0  0  0
  -22.9770  -15.3990   -6.7000 H   0  0  0  0  0  0  0  0  0  0  0  0
  -21.4000  -15.3220   -6.3820 H   0  0  0  0  0  0  0  0  0  0  0  0
  -21.5442  -17.2066   -5.3368 H   0  0  0  0  0  0  0  0  0  0  0  0
  -20.5919  -18.0005   -7.5581 H   0  0  0  0  0  0  0  0  0  0  0  0
  -21.1261  -20.4368   -7.1205 H   0  0  0  0  0  0  0  0  0  0  0  0
  -20.8904  -19.5468   -5.5721 H   0  0  0  0  0  0  0  0  0  0  0  0
  -22.8974  -21.0215   -5.4524 H   0  0  0  0  0  0  0  0  0  0  0  0
  -23.4372  -21.0031   -7.8968 H   0  0  0  0  0  0  0  0  0  0  0  0
  -24.8624  -20.5083   -6.9161 H   0  0  0  0  0  0  0  0  0  0  0  0
  -24.5628  -18.9984   -8.8908 H   0  0  0  0  0  0  0  0  0  0  0  0
  -22.0850  -19.2831   -9.0958 H   0  0  0  0  0  0  0  0  0  0  0  0
  -22.5455  -17.5446   -9.0008 H   0  0  0  0  0  0  0  0  0  0  0  0
  -24.5510  -16.8548   -7.6288 H   0  0  0  0  0  0  0  0  0  0  0  0
  -25.4988  -18.1110   -6.7523 H   0  0  0  0  0  0  0  0  0  0  0  0
  -24.0094  -16.8286   -5.2173 H   0  0  0  0  0  0  0  0  0  0  0  0
  -22.8910  -18.8647   -4.2014 H   0  0  0  0  0  0  0  0  0  0  0  0
  -24.5476  -19.2633   -4.7875 H   0  0  0  0  0  0  0  0  0  0  0  0
  1  2  1  0
  2  3  1  0
  2  4  2  3
  4  5  1  0
  5  6  1  0
  6  7  1  0
  7  8  1  0
  7  9  2  0
  9 10  1  0
 10 11  1  0
 11 12  1  0
 12 13  1  0
 13 14  1  0
 14 15  1  0
 15 16  1  0
 16 17  1  0
 17 18  1  0
 18 19  1  0
 19 20  1  0
 20 21  1  0
 20 22  1  0
 22 23  1  0
 23 24  1  0
 23 15  1  0
 21 16  1  0
 24 18  1  0
  1 25  1  0
  1 26  1  0
  1 27  1  0
  3 28  1  0
  3 29  1  0
  3 30  1  0
  4 31  1  0
  5 32  1  0
  5 33  1  0
  6 34  1  0
  6 35  1  0
  8 36  1  0
  8 37  1  0
  8 38  1  0
  9 39  1  0
 10 40  1  0
 10 41  1  0
 11 42  1  0
 11 43  1  0
 12 44  1  0
 12 45  1  0
 13 46  1  0
 13 47  1  0
 14 48  1  0
 14 49  1  0
 15 50  1  6
 16 51  1  1
 17 52  1  0
 17 53  1  0
 18 54  1  6
 19 55  1  0
 19 56  1  0
 20 57  1  1
 21 58  1  0
 21 59  1  0
 22 60  1  0
 22 61  1  0
 23 62  1  6
 24 63  1  0
 24 64  1  0
M  CHG  2  11   1  14   1
M  END
>  <meeko>  (7) 
{"is_sidechain": [false], "free_energy": -7.333, "intermolecular_energy": -12.804, "internal_energy": -0.324}

$$$$
4ea2_ligand
     RDKit          3D

 64 66  0  0  0  0  0  0  0  0999 V2000
  -25.1890  -13.4480   -5.7390 C   0  0  0  0  0  0  0  0  0  0  0  0
  -25.3620  -13.0720   -7.1850 C   0  0  0  0  0  0  0  0  0  0  0  0
  -26.3710  -11.9770   -7.4260 C   0  0  0  0  0  0  0  0  0  0  0  0
  -24.6260  -13.5620   -8.2050 C   0  0  0  0  0  0  0  0  0  0  0  0
  -23.5340  -14.5960   -8.1090 C   0  0  0  0  0  0  0  0  0  0  0  0
  -22.4890  -14.5270   -9.2400 C   0  0  0  0  0  0  0  0  0  0  0  0
  -21.1070  -13.9810   -8.9110 C   0  0  0  0  0  0  0  0  0  0  0  0
  -21.1030  -12.5000   -8.5920 C   0  0  0  0  0  0  0  0  0  0  0  0
  -19.9560  -14.6800   -8.8360 C   0  0  0  0  0  0  0  0  0  0  0  0
  -19.7520  -16.1400   -9.0410 C   0  0  0  0  0  0  0  0  0  0  0  0
  -18.6760  -16.6850   -8.1390 N   0  0  0  0  0  0  0  0  0  0  0  0
  -18.5490  -18.1840   -8.1280 C   0  0  0  0  0  0  0  0  0  0  0  0
  -19.7150  -18.8980   -8.8650 C   0  0  0  0  0  0  0  0  0  0  0  0
  -20.6110  -19.7280   -7.9770 N   0  0  0  0  0  0  0  0  0  0  0  0
  -21.3840  -19.0850   -6.8580 C   0  0  2  0  0  0  0  0  0  0  0  0
  -22.3870  -20.0990   -6.2620 C   0  0  1  0  0  0  0  0  0  0  0  0
  -23.0460  -19.4470   -5.0290 C   0  0  0  0  0  0  0  0  0  0  0  0
  -23.7930  -18.1640   -5.4430 C   0  0  2  0  0  0  0  0  0  0  0  0
  -24.8820  -18.5250   -6.4680 C   0  0  0  0  0  0  0  0  0  0  0  0
  -24.2420  -19.1750   -7.7070 C   0  0  2  0  0  0  0  0  0  0  0  0
  -23.4970  -20.4500   -7.2750 C   0  0  0  0  0  0  0  0  0  0  0  0
  -23.2490  -18.1840   -8.3380 C   0  0  0  0  0  0  0  0  0  0  0  0
  -22.1420  -17.8250   -7.3280 C   0  0  1  0  0  0  0  0  0  0  0  0
  -22.8010  -17.1800   -6.0910 C   0  0  0  0  0  0  0  0  0  0  0  0
  -25.5636  -12.6339   -5.1011 H   0  0  0  0  0  0  0  0  0  0  0  0
  -25.7544  -14.3680   -5.5292 H   0  0  0  0  0  0  0  0  0  0  0  0
  -24.1225  -13.6171   -5.5292 H   0  0  0  0  0  0  0  0  0  0  0  0
  -26.7286  -11.5890   -6.4608 H   0  0  0  0  0  0  0  0  0  0  0  0
  -25.8996  -11.1631   -7.9965 H   0  0  0  0  0  0  0  0  0  0  0  0
  -27.2206  -12.3804   -7.9965 H   0  0  0  0  0  0  0  0  0  0  0  0
  -24.8456  -13.1665   -9.2077 H   0  0  0  0  0  0  0  0  0  0  0  0
  -23.0127  -14.4575   -7.1503 H   0  0  0  0  0  0  0  0  0  0  0  0
  -24.0234  -15.5775   -8.1939 H   0  0  0  0  0  0  0  0  0  0  0  0
  -22.3531  -15.5499   -9.6212 H   0  0  0  0  0  0  0  0  0  0  0  0
  -22.9064  -13.8000   -9.9522 H   0  0  0  0  0  0  0  0  0  0  0  0
  -21.1026  -12.3599   -7.5010 H   0  0  0  0  0  0  0  0  0  0  0  0
  -20.2036  -12.0348   -9.0217 H   0  0  0  0  0  0  0  0  0  0  0  0
  -21.9999  -12.0299   -9.0217 H   0  0  0  0  0  0  0  0  0  0  0  0
  -19.0548  -14.0980   -8.5928 H   0  0  0  0  0  0  0  0  0  0  0  0
  -20.6950  -16.6649   -8.8282 H   0  0  0  0  0  0  0  0  0  0  0  0
  -19.4383  -16.2990  -10.0833 H   0  0  0  0  0  0  0  0  0  0  0  0
  -17.8110  -16.1940   -8.3880 H   0  0  0  0  0  0  0  0  0  0  0  0
  -18.9320  -16.3490   -7.1960 H   0  0  0  0  0  0  0  0  0  0  0  0
  -17.6037  -18.4592   -8.6186 H   0  0  0  0  0  0  0  0  0  0  0  0
  -18.5765  -18.5085   -7.0773 H   0  0  0  0  0  0  0  0  0  0  0  0
  -20.3331  -18.1298   -9.3527 H   0  0  0  0  0  0  0  0  0  0  0  0
  -19.2503  -19.5968   -9.5762 H   0  0  0  0  0  0  0  0  0  0  0  0
  -20.0730  -20.5190   -7.5840 H   0  0  0  0  0  0  0  0  0  0  0  0
  -21.2840  -20.2060   -8.6000 H   0  0  0  0  0  0  0  0  0  0  0  0
  -20.6591  -18.7756   -6.0907 H   0  0  0  0  0  0  0  0  0  0  0  0
  -21.8479  -21.0211   -5.9991 H   0  0  0  0  0  0  0  0  0  0  0  0
  -23.7592  -20.1546   -4.5810 H   0  0  0  0  0  0  0  0  0  0  0  0
  -22.2653  -19.1888   -4.2983 H   0  0  0  0  0  0  0  0  0  0  0  0
  -24.2491  -17.6999   -4.5561 H   0  0  0  0  0  0  0  0  0  0  0  0
  -25.5922  -19.2305   -6.0121 H   0  0  0  0  0  0  0  0  0  0  0  0
  -25.4101  -17.6093   -6.7722 H   0  0  0  0  0  0  0  0  0  0  0  0
  -25.0183  -19.4339   -8.4421 H   0  0  0  0  0  0  0  0  0  0  0  0
  -24.2088  -21.1465   -6.8078 H   0  0  0  0  0  0  0  0  0  0  0  0
  -23.0414  -20.9178   -8.1602 H   0  0  0  0  0  0  0  0  0  0  0  0
  -22.7939  -18.6427   -9.2282 H   0  0  0  0  0  0  0  0  0  0  0  0
  -23.7874  -17.2676   -8.6216 H   0  0  0  0  0  0  0  0  0  0  0  0
  -21.4326  -17.1409   -7.8166 H   0  0  0  0  0  0  0  0  0  0  0  0
  -22.0221  -16.9156   -5.3607 H   0  0  0  0  0  0  0  0  0  0  0  0
  -23.3446  -16.2764   -6.4041 H   0  0  0  0  0  0  0  0  0  0  0  0
  1  2  1  0
  2  3  1  0
  2  4  2  3
  4  5  1  0
  5  6  1  0
  6  7  1  0
  7  8  1  0
  7  9  2  0
  9 10  1  0
 10 11  1  0
 11 12  1  0
 12 13  1  0
 13 14  1  0
 14 15  1  0
 15 16  1  0
 16 17  1  0
 17 18  1  0
 18 19  1  0
 19 20  1  0
 20 21  1  0
 20 22  1  0
 22 23  1  0
 23 24  1  0
 23 15  1  0
 21 16  1  0
 24 18  1  0
  1 25  1  0
  1 26  1  0
  1 27  1  0
  3 28  1  0
  3 29  1  0
  3 30  1  0
  4 31  1  0
  5 32  1  0
  5 33  1  0
  6 34  1  0
  6 35  1  0
  8 36  1  0
  8 37  1  0
  8 38  1  0
  9 39  1  0
 10 40  1  0
 10 41  1  0
 11 42  1  0
 11 43  1  0
 12 44  1  0
 12 45  1  0
 13 46  1  0
 13 47  1  0
 14 48  1  0
 14 49  1  0
 15 50  1  6
 16 51  1  6
 17 52  1  0
 17 53  1  0
 18 54  1  6
 19 55  1  0
 19 56  1  0
 20 57  1  1
 21 58  1  0
 21 59  1  0
 22 60  1  0
 22 61  1  0
 23 62  1  1
 24 63  1  0
 24 64  1  0
M  CHG  2  11   1  14   1
M  END
>  <meeko>  (8) 
{"is_sidechain": [false], "free_energy": -7.25, "intermolecular_energy": -11.564, "internal_energy": -1.438}

$$$$
4ea2_ligand
     RDKit          3D

 64 66  0  0  0  0  0  0  0  0999 V2000
  -21.4360  -19.9000   -5.6940 C   0  0  0  0  0  0  0  0  0  0  0  0
  -22.8900  -19.6940   -6.0210 C   0  0  0  0  0  0  0  0  0  0  0  0
  -23.7200  -19.1900   -4.8670 C   0  0  0  0  0  0  0  0  0  0  0  0
  -23.4330  -19.8280   -7.2480 C   0  0  0  0  0  0  0  0  0  0  0  0
  -22.7170  -20.2450   -8.5080 C   0  0  0  0  0  0  0  0  0  0  0  0
  -21.8520  -19.1410   -9.1460 C   0  0  0  0  0  0  0  0  0  0  0  0
  -20.4700  -19.5160   -9.6600 C   0  0  0  0  0  0  0  0  0  0  0  0
  -20.4940  -20.5810  -10.7370 C   0  0  0  0  0  0  0  0  0  0  0  0
  -19.2920  -18.9720   -9.2900 C   0  0  0  0  0  0  0  0  0  0  0  0
  -19.0520  -17.8760   -8.3110 C   0  0  0  0  0  0  0  0  0  0  0  0
  -19.2250  -16.5190   -8.9390 N   0  0  0  0  0  0  0  0  0  0  0  0
  -19.2590  -15.3660   -7.9730 C   0  0  0  0  0  0  0  0  0  0  0  0
  -19.7750  -15.7700   -6.5650 C   0  0  0  0  0  0  0  0  0  0  0  0
  -21.2070  -15.3850   -6.2810 N   0  0  0  0  0  0  0  0  0  0  0  0
  -22.3310  -15.9860   -7.0800 C   0  0  2  0  0  0  0  0  0  0  0  0
  -22.3590  -15.3670   -8.4960 C   0  0  1  0  0  0  0  0  0  0  0  0
  -23.4240  -16.1180   -9.3210 C   0  0  0  0  0  0  0  0  0  0  0  0
  -24.8090  -15.9650   -8.6640 C   0  0  2  0  0  0  0  0  0  0  0  0
  -25.1750  -14.4710   -8.6030 C   0  0  0  0  0  0  0  0  0  0  0  0
  -24.1230  -13.7070   -7.7800 C   0  0  2  0  0  0  0  0  0  0  0  0
  -22.7470  -13.8750   -8.4470 C   0  0  0  0  0  0  0  0  0  0  0  0
  -24.0810  -14.2860   -6.3550 C   0  0  0  0  0  0  0  0  0  0  0  0
  -23.7000  -15.7780   -6.3990 C   0  0  1  0  0  0  0  0  0  0  0  0
  -24.7610  -16.5290   -7.2320 C   0  0  0  0  0  0  0  0  0  0  0  0
  -21.3048  -19.9186   -4.6020 H   0  0  0  0  0  0  0  0  0  0  0  0
  -21.0960  -20.8553   -6.1205 H   0  0  0  0  0  0  0  0  0  0  0  0
  -20.8441  -19.0768   -6.1205 H   0  0  0  0  0  0  0  0  0  0  0  0
  -23.2435  -19.4793   -3.9187 H   0  0  0  0  0  0  0  0  0  0  0  0
  -23.7948  -18.0938   -4.9203 H   0  0  0  0  0  0  0  0  0  0  0  0
  -24.7271  -19.6292   -4.9203 H   0  0  0  0  0  0  0  0  0  0  0  0
  -24.5075  -19.6111   -7.3391 H   0  0  0  0  0  0  0  0  0  0  0  0
  -22.0640  -21.0966   -8.2664 H   0  0  0  0  0  0  0  0  0  0  0  0
  -23.4964  -20.4957   -9.2426 H   0  0  0  0  0  0  0  0  0  0  0  0
  -22.4175  -18.7353   -9.9978 H   0  0  0  0  0  0  0  0  0  0  0  0
  -21.6547  -18.4396   -8.3219 H   0  0  0  0  0  0  0  0  0  0  0  0
  -20.5164  -21.5759  -10.2684 H   0  0  0  0  0  0  0  0  0  0  0  0
  -21.3894  -20.4500  -11.3623 H   0  0  0  0  0  0  0  0  0  0  0  0
  -19.5936  -20.4904  -11.3623 H   0  0  0  0  0  0  0  0  0  0  0  0
  -18.3964  -19.3908   -9.7722 H   0  0  0  0  0  0  0  0  0  0  0  0
  -19.7658  -17.9777   -7.4803 H   0  0  0  0  0  0  0  0  0  0  0  0
  -18.0151  -17.9578   -7.9529 H   0  0  0  0  0  0  0  0  0  0  0  0
  -18.5010  -16.4380   -9.6610 H   0  0  0  0  0  0  0  0  0  0  0  0
  -20.1250  -16.5780   -9.4440 H   0  0  0  0  0  0  0  0  0  0  0  0
  -18.2403  -14.9638   -7.8710 H   0  0  0  0  0  0  0  0  0  0  0  0
  -19.9568  -14.6180   -8.3774 H   0  0  0  0  0  0  0  0  0  0  0  0
  -19.6890  -16.8625   -6.4695 H   0  0  0  0  0  0  0  0  0  0  0  0
  -19.1570  -15.2209   -5.8394 H   0  0  0  0  0  0  0  0  0  0  0  0
  -21.3030  -14.3560   -6.3130 H   0  0  0  0  0  0  0  0  0  0  0  0
  -21.3760  -15.5910   -5.2820 H   0  0  0  0  0  0  0  0  0  0  0  0
  -22.1479  -17.0687   -7.1452 H   0  0  0  0  0  0  0  0  0  0  0  0
  -21.3579  -15.4536   -8.9435 H   0  0  0  0  0  0  0  0  0  0  0  0
  -23.4562  -15.7014  -10.3385 H   0  0  0  0  0  0  0  0  0  0  0  0
  -23.1610  -17.1853   -9.3612 H   0  0  0  0  0  0  0  0  0  0  0  0
  -25.5597  -16.5124   -9.2528 H   0  0  0  0  0  0  0  0  0  0  0  0
  -25.2075  -14.0615   -9.6234 H   0  0  0  0  0  0  0  0  0  0  0  0
  -26.1596  -14.3587   -8.1256 H   0  0  0  0  0  0  0  0  0  0  0  0
  -24.3820  -12.6389   -7.7340 H   0  0  0  0  0  0  0  0  0  0  0  0
  -22.7883  -13.4762   -9.4713 H   0  0  0  0  0  0  0  0  0  0  0  0
  -21.9943  -13.3268   -7.8614 H   0  0  0  0  0  0  0  0  0  0  0  0
  -23.3346  -13.7376   -5.7616 H   0  0  0  0  0  0  0  0  0  0  0  0
  -25.0751  -14.1824   -5.8956 H   0  0  0  0  0  0  0  0  0  0  0  0
  -23.6486  -16.1545   -5.3667 H   0  0  0  0  0  0  0  0  0  0  0  0
  -24.5030  -17.5976   -7.2707 H   0  0  0  0  0  0  0  0  0  0  0  0
  -25.7464  -16.3976   -6.7610 H   0  0  0  0  0  0  0  0  0  0  0  0
  1  2  1  0
  2  3  1  0
  2  4  2  3
  4  5  1  0
  5  6  1  0
  6  7  1  0
  7  8  1  0
  7  9  2  0
  9 10  1  0
 10 11  1  0
 11 12  1  0
 12 13  1  0
 13 14  1  0
 14 15  1  0
 15 16  1  0
 16 17  1  0
 17 18  1  0
 18 19  1  0
 19 20  1  0
 20 21  1  0
 20 22  1  0
 22 23  1  0
 23 24  1  0
 23 15  1  0
 21 16  1  0
 24 18  1  0
  1 25  1  0
  1 26  1  0
  1 27  1  0
  3 28  1  0
  3 29  1  0
  3 30  1  0
  4 31  1  0
  5 32  1  0
  5 33  1  0
  6 34  1  0
  6 35  1  0
  8 36  1  0
  8 37  1  0
  8 38  1  0
  9 39  1  0
 10 40  1  0
 10 41  1  0
 11 42  1  0
 11 43  1  0
 12 44  1  0
 12 45  1  0
 13 46  1  0
 13 47  1  0
 14 48  1  0
 14 49  1  0
 15 50  1  1
 16 51  1  1
 17 52  1  0
 17 53  1  0
 18 54  1  1
 19 55  1  0
 19 56  1  0
 20 57  1  6
 21 58  1  0
 21 59  1  0
 22 60  1  0
 22 61  1  0
 23 62  1  6
 24 63  1  0
 24 64  1  0
M  CHG  2  11   1  14   1
M  END
>  <meeko>  (9) 
{"is_sidechain": [false], "free_energy": -7.244, "intermolecular_energy": -11.33, "internal_energy": -1.662}

$$$$
