3uev_ligand
     RDKit          3D

 43 42  0  0  0  0  0  0  0  0999 V2000
  -13.9830   12.6030   57.8060 C   0  0  0  0  0  0  0  0  0  0  0  0
  -12.7090   12.1120   57.1370 C   0  0  0  0  0  0  0  0  0  0  0  0
  -12.9720   10.8700   56.2830 C   0  0  0  0  0  0  0  0  0  0  0  0
  -12.0030    9.7170   56.5670 C   0  0  0  0  0  0  0  0  0  0  0  0
  -10.6180   10.1870   57.0220 C   0  0  0  0  0  0  0  0  0  0  0  0
   -9.4710    9.5990   56.1890 C   0  0  0  0  0  0  0  0  0  0  0  0
   -9.8820    8.3790   55.3620 C   0  0  0  0  0  0  0  0  0  0  0  0
   -8.7100    7.4500   55.0220 C   0  0  0  0  0  0  0  0  0  0  0  0
   -7.9150    6.9990   56.2500 C   0  0  0  0  0  0  0  0  0  0  0  0
   -6.6080    6.2780   55.8990 C   0  0  0  0  0  0  0  0  0  0  0  0
   -6.2760    6.3120   54.4040 C   0  0  0  0  0  0  0  0  0  0  0  0
   -5.0070    5.5320   54.0460 C   0  0  0  0  0  0  0  0  0  0  0  0
   -4.8170    4.2630   54.8730 C   0  0  0  0  0  0  0  0  0  0  0  0
   -4.5280    2.9960   54.0590 C   0  0  0  0  0  0  0  0  0  0  0  0
   -5.1450    1.9510   54.4000 O   0  0  0  0  0  0  0  0  0  0  0  0
   -3.6920    3.1640   53.1240 O   0  0  0  0  0  0  0  0  0  0  0  0
  -13.8644   12.5573   58.8986 H   0  0  0  0  0  0  0  0  0  0  0  0
  -14.1801   13.6415   57.5017 H   0  0  0  0  0  0  0  0  0  0  0  0
  -14.8261   11.9654   57.5017 H   0  0  0  0  0  0  0  0  0  0  0  0
  -12.3111   12.9110   56.4942 H   0  0  0  0  0  0  0  0  0  0  0  0
  -11.9852   11.8466   57.9216 H   0  0  0  0  0  0  0  0  0  0  0  0
  -13.9961   10.5212   56.4817 H   0  0  0  0  0  0  0  0  0  0  0  0
  -12.8277   11.1629   55.2326 H   0  0  0  0  0  0  0  0  0  0  0  0
  -12.4343    9.0852   57.3575 H   0  0  0  0  0  0  0  0  0  0  0  0
  -11.8666    9.1666   55.6244 H   0  0  0  0  0  0  0  0  0  0  0  0
  -10.5789   11.2836   56.9442 H   0  0  0  0  0  0  0  0  0  0  0  0
  -10.4802    9.8384   58.0562 H   0  0  0  0  0  0  0  0  0  0  0  0
   -9.1039   10.3770   55.5035 H   0  0  0  0  0  0  0  0  0  0  0  0
   -8.6957    9.2659   56.8946 H   0  0  0  0  0  0  0  0  0  0  0  0
  -10.6270    7.8056   55.9332 H   0  0  0  0  0  0  0  0  0  0  0  0
  -10.2859    8.7535   54.4099 H   0  0  0  0  0  0  0  0  0  0  0  0
   -9.1079    6.5573   54.5172 H   0  0  0  0  0  0  0  0  0  0  0  0
   -8.0209    8.0185   54.3802 H   0  0  0  0  0  0  0  0  0  0  0  0
   -7.6725    7.8862   56.8533 H   0  0  0  0  0  0  0  0  0  0  0  0
   -8.5439    6.2821   56.7983 H   0  0  0  0  0  0  0  0  0  0  0  0
   -5.7860    6.7588   56.4496 H   0  0  0  0  0  0  0  0  0  0  0  0
   -6.7349    5.2219   56.1791 H   0  0  0  0  0  0  0  0  0  0  0  0
   -7.1207    5.8778   53.8490 H   0  0  0  0  0  0  0  0  0  0  0  0
   -6.0986    7.3635   54.1340 H   0  0  0  0  0  0  0  0  0  0  0  0
   -5.0596    5.2505   52.9839 H   0  0  0  0  0  0  0  0  0  0  0  0
   -4.1520    6.1894   54.2622 H   0  0  0  0  0  0  0  0  0  0  0  0
   -3.9739    4.4267   55.5603 H   0  0  0  0  0  0  0  0  0  0  0  0
   -5.7726    4.0860   55.3882 H   0  0  0  0  0  0  0  0  0  0  0  0
  1  2  1  0
  2  3  1  0
  3  4  1  0
  4  5  1  0
  5  6  1  0
  6  7  1  0
  7  8  1  0
  8  9  1  0
  9 10  1  0
 10 11  1  0
 11 12  1  0
 12 13  1  0
 13 14  1  0
 14 15  2  0
 14 16  1  0
  1 17  1  0
  1 18  1  0
  1 19  1  0
  2 20  1  0
  2 21  1  0
  3 22  1  0
  3 23  1  0
  4 24  1  0
  4 25  1  0
  5 26  1  0
  5 27  1  0
  6 28  1  0
  6 29  1  0
  7 30  1  0
  7 31  1  0
  8 32  1  0
  8 33  1  0
  9 34  1  0
  9 35  1  0
 10 36  1  0
 10 37  1  0
 11 38  1  0
 11 39  1  0
 12 40  1  0
 12 41  1  0
 13 42  1  0
 13 43  1  0
M  CHG  1  16  -1
M  END
>  <meeko>  (1) 
{"is_sidechain": [false], "free_energy": -6.457, "intermolecular_energy": -10.987, "internal_energy": -0.655}

$$$$
3uev_ligand
     RDKit          3D

 43 42  0  0  0  0  0  0  0  0999 V2000
  -13.8700   12.4210   57.6440 C   0  0  0  0  0  0  0  0  0  0  0  0
  -12.6900   12.0020   56.7800 C   0  0  0  0  0  0  0  0  0  0  0  0
  -12.9160   10.6220   56.1590 C   0  0  0  0  0  0  0  0  0  0  0  0
  -11.7460    9.6560   56.3760 C   0  0  0  0  0  0  0  0  0  0  0  0
  -10.3810   10.3500   56.3880 C   0  0  0  0  0  0  0  0  0  0  0  0
   -9.2040    9.3810   56.2220 C   0  0  0  0  0  0  0  0  0  0  0  0
   -9.5020    8.2170   55.2730 C   0  0  0  0  0  0  0  0  0  0  0  0
   -8.7570    6.9270   55.6380 C   0  0  0  0  0  0  0  0  0  0  0  0
   -7.4070    7.1740   56.3160 C   0  0  0  0  0  0  0  0  0  0  0  0
   -6.2080    6.9320   55.3910 C   0  0  0  0  0  0  0  0  0  0  0  0
   -5.5780    5.5470   55.5590 C   0  0  0  0  0  0  0  0  0  0  0  0
   -5.7500    4.6490   54.3300 C   0  0  0  0  0  0  0  0  0  0  0  0
   -5.0140    3.3160   54.4400 C   0  0  0  0  0  0  0  0  0  0  0  0
   -3.8290    3.1500   53.4810 C   0  0  0  0  0  0  0  0  0  0  0  0
   -3.3380    4.2060   52.9980 O   0  0  0  0  0  0  0  0  0  0  0  0
   -3.4810    1.9470   53.2960 O   0  0  0  0  0  0  0  0  0  0  0  0
  -13.5994   12.3249   58.7058 H   0  0  0  0  0  0  0  0  0  0  0  0
  -14.1314   13.4669   57.4254 H   0  0  0  0  0  0  0  0  0  0  0  0
  -14.7325   11.7742   57.4254 H   0  0  0  0  0  0  0  0  0  0  0  0
  -12.5561   12.7394   55.9748 H   0  0  0  0  0  0  0  0  0  0  0  0
  -11.7944   11.9530   57.4168 H   0  0  0  0  0  0  0  0  0  0  0  0
  -13.8189   10.1819   56.6074 H   0  0  0  0  0  0  0  0  0  0  0  0
  -13.0186   10.7680   55.0736 H   0  0  0  0  0  0  0  0  0  0  0  0
  -11.8876    9.1476   57.3411 H   0  0  0  0  0  0  0  0  0  0  0  0
  -11.7452    8.9508   55.5318 H   0  0  0  0  0  0  0  0  0  0  0  0
  -10.3525   11.0778   55.5636 H   0  0  0  0  0  0  0  0  0  0  0  0
  -10.2697   10.8310   57.3710 H   0  0  0  0  0  0  0  0  0  0  0  0
   -8.3442    9.9417   55.8265 H   0  0  0  0  0  0  0  0  0  0  0  0
   -8.9989    8.9476   57.2120 H   0  0  0  0  0  0  0  0  0  0  0  0
  -10.5829    8.0144   55.2984 H   0  0  0  0  0  0  0  0  0  0  0  0
   -9.1586    8.5180   54.2723 H   0  0  0  0  0  0  0  0  0  0  0  0
   -9.3886    6.3416   56.3224 H   0  0  0  0  0  0  0  0  0  0  0  0
   -8.5547    6.3926   54.6981 H   0  0  0  0  0  0  0  0  0  0  0  0
   -7.3760    8.2179   56.6613 H   0  0  0  0  0  0  0  0  0  0  0  0
   -7.3254    6.4586   57.1476 H   0  0  0  0  0  0  0  0  0  0  0  0
   -6.5449    7.0374   54.3492 H   0  0  0  0  0  0  0  0  0  0  0  0
   -5.4390    7.6721   55.6572 H   0  0  0  0  0  0  0  0  0  0  0  0
   -4.5023    5.6739   55.7507 H   0  0  0  0  0  0  0  0  0  0  0  0
   -6.0935    5.0544   56.3966 H   0  0  0  0  0  0  0  0  0  0  0  0
   -6.8224    4.4442   54.1961 H   0  0  0  0  0  0  0  0  0  0  0  0
   -5.3171    5.1871   53.4738 H   0  0  0  0  0  0  0  0  0  0  0  0
   -4.6370    3.2180   55.4687 H   0  0  0  0  0  0  0  0  0  0  0  0
   -5.7426    2.5386   54.1665 H   0  0  0  0  0  0  0  0  0  0  0  0
  1  2  1  0
  2  3  1  0
  3  4  1  0
  4  5  1  0
  5  6  1  0
  6  7  1  0
  7  8  1  0
  8  9  1  0
  9 10  1  0
 10 11  1  0
 11 12  1  0
 12 13  1  0
 13 14  1  0
 14 15  2  0
 14 16  1  0
  1 17  1  0
  1 18  1  0
  1 19  1  0
  2 20  1  0
  2 21  1  0
  3 22  1  0
  3 23  1  0
  4 24  1  0
  4 25  1  0
  5 26  1  0
  5 27  1  0
  6 28  1  0
  6 29  1  0
  7 30  1  0
  7 31  1  0
  8 32  1  0
  8 33  1  0
  9 34  1  0
  9 35  1  0
 10 36  1  0
 10 37  1  0
 11 38  1  0
 11 39  1  0
 12 40  1  0
 12 41  1  0
 13 42  1  0
 13 43  1  0
M  CHG  1  16  -1
M  END
>  <meeko>  (2) 
{"is_sidechain": [false], "free_energy": -6.446, "intermolecular_energy": -11.016, "internal_energy": -0.607}

$$$$
3uev_ligand
     RDKit          3D

 43 42  0  0  0  0  0  0  0  0999 V2000
  -13.2630   11.8840   56.6310 C   0  0  0  0  0  0  0  0  0  0  0  0
  -11.9580   11.1050   56.6090 C   0  0  0  0  0  0  0  0  0  0  0  0
  -12.1300    9.7470   55.9260 C   0  0  0  0  0  0  0  0  0  0  0  0
  -10.8210    8.9610   55.7880 C   0  0  0  0  0  0  0  0  0  0  0  0
   -9.6080    9.6990   56.3620 C   0  0  0  0  0  0  0  0  0  0  0  0
   -8.2660    9.1290   55.8860 C   0  0  0  0  0  0  0  0  0  0  0  0
   -8.3410    7.6540   55.4800 C   0  0  0  0  0  0  0  0  0  0  0  0
   -7.6540    6.7130   56.4770 C   0  0  0  0  0  0  0  0  0  0  0  0
   -6.3220    6.1550   55.9710 C   0  0  0  0  0  0  0  0  0  0  0  0
   -5.9670    6.6190   54.5530 C   0  0  0  0  0  0  0  0  0  0  0  0
   -4.5200    6.3100   54.1560 C   0  0  0  0  0  0  0  0  0  0  0  0
   -3.4850    6.9940   55.0560 C   0  0  0  0  0  0  0  0  0  0  0  0
   -2.9370    8.2950   54.4760 C   0  0  0  0  0  0  0  0  0  0  0  0
   -1.5840    8.7390   55.0470 C   0  0  0  0  0  0  0  0  0  0  0  0
   -1.0710    9.7760   54.5460 O   0  0  0  0  0  0  0  0  0  0  0  0
   -1.1470    7.9960   55.9730 O   0  0  0  0  0  0  0  0  0  0  0  0
  -13.5649   12.0642   57.6733 H   0  0  0  0  0  0  0  0  0  0  0  0
  -13.1239   12.8470   56.1178 H   0  0  0  0  0  0  0  0  0  0  0  0
  -14.0446   11.3046   56.1178 H   0  0  0  0  0  0  0  0  0  0  0  0
  -11.2025   11.6878   56.0616 H   0  0  0  0  0  0  0  0  0  0  0  0
  -11.6404   10.9322   57.6479 H   0  0  0  0  0  0  0  0  0  0  0  0
  -12.8358    9.1463   56.5185 H   0  0  0  0  0  0  0  0  0  0  0  0
  -12.4991    9.9415   54.9082 H   0  0  0  0  0  0  0  0  0  0  0  0
  -10.9308    8.0039   56.3190 H   0  0  0  0  0  0  0  0  0  0  0  0
  -10.6376    8.8197   54.7126 H   0  0  0  0  0  0  0  0  0  0  0  0
   -9.6660   10.7544   56.0576 H   0  0  0  0  0  0  0  0  0  0  0  0
   -9.6423    9.5786   57.4549 H   0  0  0  0  0  0  0  0  0  0  0  0
   -7.9276    9.7129   55.0174 H   0  0  0  0  0  0  0  0  0  0  0  0
   -7.5659    9.1977   56.7316 H   0  0  0  0  0  0  0  0  0  0  0  0
   -9.4001    7.3670   55.4024 H   0  0  0  0  0  0  0  0  0  0  0  0
   -7.8120    7.5536   54.5208 H   0  0  0  0  0  0  0  0  0  0  0  0
   -7.4677    7.2681   57.4082 H   0  0  0  0  0  0  0  0  0  0  0  0
   -8.3267    5.8562   56.6297 H   0  0  0  0  0  0  0  0  0  0  0  0
   -5.5247    6.4818   56.6547 H   0  0  0  0  0  0  0  0  0  0  0  0
   -6.4195    5.0598   55.9396 H   0  0  0  0  0  0  0  0  0  0  0  0
   -6.6387    6.1147   53.8427 H   0  0  0  0  0  0  0  0  0  0  0  0
   -6.0834    7.7126   54.5306 H   0  0  0  0  0  0  0  0  0  0  0  0
   -4.3672    5.2221   54.2125 H   0  0  0  0  0  0  0  0  0  0  0  0
   -4.3721    6.6970   53.1370 H   0  0  0  0  0  0  0  0  0  0  0  0
   -3.9584    7.2166   56.0237 H   0  0  0  0  0  0  0  0  0  0  0  0
   -2.6359    6.3018   55.1556 H   0  0  0  0  0  0  0  0  0  0  0  0
   -2.8226    8.1632   53.3899 H   0  0  0  0  0  0  0  0  0  0  0  0
   -3.6580    9.0805   54.7464 H   0  0  0  0  0  0  0  0  0  0  0  0
  1  2  1  0
  2  3  1  0
  3  4  1  0
  4  5  1  0
  5  6  1  0
  6  7  1  0
  7  8  1  0
  8  9  1  0
  9 10  1  0
 10 11  1  0
 11 12  1  0
 12 13  1  0
 13 14  1  0
 14 15  2  0
 14 16  1  0
  1 17  1  0
  1 18  1  0
  1 19  1  0
  2 20  1  0
  2 21  1  0
  3 22  1  0
  3 23  1  0
  4 24  1  0
  4 25  1  0
  5 26  1  0
  5 27  1  0
  6 28  1  0
  6 29  1  0
  7 30  1  0
  7 31  1  0
  8 32  1  0
  8 33  1  0
  9 34  1  0
  9 35  1  0
 10 36  1  0
 10 37  1  0
 11 38  1  0
 11 39  1  0
 12 40  1  0
 12 41  1  0
 13 42  1  0
 13 43  1  0
M  CHG  1  16  -1
M  END
>  <meeko>  (3) 
{"is_sidechain": [false], "free_energy": -6.175, "intermolecular_energy": -10.525, "internal_energy": -0.636}

$$$$
3uev_ligand
     RDKit          3D

 43 42  0  0  0  0  0  0  0  0999 V2000
  -12.8680   12.3520   57.0730 C   0  0  0  0  0  0  0  0  0  0  0  0
  -12.9710   11.0910   56.2290 C   0  0  0  0  0  0  0  0  0  0  0  0
  -11.8190   10.1290   56.5240 C   0  0  0  0  0  0  0  0  0  0  0  0
  -11.7670    8.9280   55.5720 C   0  0  0  0  0  0  0  0  0  0  0  0
  -10.3480    8.4020   55.3370 C   0  0  0  0  0  0  0  0  0  0  0  0
   -9.2550    9.3390   55.8690 C   0  0  0  0  0  0  0  0  0  0  0  0
   -7.9920    8.6040   56.3250 C   0  0  0  0  0  0  0  0  0  0  0  0
   -8.0680    7.0840   56.1320 C   0  0  0  0  0  0  0  0  0  0  0  0
   -6.7180    6.3810   56.3000 C   0  0  0  0  0  0  0  0  0  0  0  0
   -6.0810    5.9600   54.9700 C   0  0  0  0  0  0  0  0  0  0  0  0
   -4.7420    5.2370   55.1390 C   0  0  0  0  0  0  0  0  0  0  0  0
   -3.8910    5.7940   56.2850 C   0  0  0  0  0  0  0  0  0  0  0  0
   -2.4820    6.1970   55.8600 C   0  0  0  0  0  0  0  0  0  0  0  0
   -2.1360    7.6750   56.0780 C   0  0  0  0  0  0  0  0  0  0  0  0
   -1.2650    7.9290   56.9530 O   0  0  0  0  0  0  0  0  0  0  0  0
   -2.7800    8.4700   55.3330 O   0  0  0  0  0  0  0  0  0  0  0  0
  -12.8900   12.0824   58.1392 H   0  0  0  0  0  0  0  0  0  0  0  0
  -11.9246   12.8697   56.8451 H   0  0  0  0  0  0  0  0  0  0  0  0
  -13.7149   13.0159   56.8451 H   0  0  0  0  0  0  0  0  0  0  0  0
  -13.9237   10.5880   56.4512 H   0  0  0  0  0  0  0  0  0  0  0  0
  -12.9205   11.3781   55.1683 H   0  0  0  0  0  0  0  0  0  0  0  0
  -10.8723   10.6826   56.4384 H   0  0  0  0  0  0  0  0  0  0  0  0
  -11.9797    9.7323   57.5373 H   0  0  0  0  0  0  0  0  0  0  0  0
  -12.3737    8.1165   56.0003 H   0  0  0  0  0  0  0  0  0  0  0  0
  -12.1542    9.2662   54.5995 H   0  0  0  0  0  0  0  0  0  0  0  0
  -10.2488    7.4291   55.8407 H   0  0  0  0  0  0  0  0  0  0  0  0
  -10.2069    8.3230   54.2490 H   0  0  0  0  0  0  0  0  0  0  0  0
   -8.9794   10.0424   55.0694 H   0  0  0  0  0  0  0  0  0  0  0  0
   -9.6680    9.8517   56.7503 H   0  0  0  0  0  0  0  0  0  0  0  0
   -7.1381    8.9866   55.7467 H   0  0  0  0  0  0  0  0  0  0  0  0
   -7.8803    8.7890   57.4036 H   0  0  0  0  0  0  0  0  0  0  0  0
   -8.7696    6.6732   56.8729 H   0  0  0  0  0  0  0  0  0  0  0  0
   -8.4012    6.9042   55.0992 H   0  0  0  0  0  0  0  0  0  0  0  0
   -6.0293    7.0670   56.8148 H   0  0  0  0  0  0  0  0  0  0  0  0
   -6.8996    5.4630   56.8781 H   0  0  0  0  0  0  0  0  0  0  0  0
   -6.7770    5.2872   54.4476 H   0  0  0  0  0  0  0  0  0  0  0  0
   -5.8839    6.8793   54.3990 H   0  0  0  0  0  0  0  0  0  0  0  0
   -4.9423    4.1739   55.3381 H   0  0  0  0  0  0  0  0  0  0  0  0
   -4.1728    5.3855   54.2095 H   0  0  0  0  0  0  0  0  0  0  0  0
   -4.3973    6.6803   56.6951 H   0  0  0  0  0  0  0  0  0  0  0  0
   -3.7860    4.9904   57.0287 H   0  0  0  0  0  0  0  0  0  0  0  0
   -1.7660    5.5908   56.4344 H   0  0  0  0  0  0  0  0  0  0  0  0
   -2.4280    6.0259   54.7747 H   0  0  0  0  0  0  0  0  0  0  0  0
  1  2  1  0
  2  3  1  0
  3  4  1  0
  4  5  1  0
  5  6  1  0
  6  7  1  0
  7  8  1  0
  8  9  1  0
  9 10  1  0
 10 11  1  0
 11 12  1  0
 12 13  1  0
 13 14  1  0
 14 15  2  0
 14 16  1  0
  1 17  1  0
  1 18  1  0
  1 19  1  0
  2 20  1  0
  2 21  1  0
  3 22  1  0
  3 23  1  0
  4 24  1  0
  4 25  1  0
  5 26  1  0
  5 27  1  0
  6 28  1  0
  6 29  1  0
  7 30  1  0
  7 31  1  0
  8 32  1  0
  8 33  1  0
  9 34  1  0
  9 35  1  0
 10 36  1  0
 10 37  1  0
 11 38  1  0
 11 39  1  0
 12 40  1  0
 12 41  1  0
 13 42  1  0
 13 43  1  0
M  CHG  1  16  -1
M  END
>  <meeko>  (4) 
{"is_sidechain": [false], "free_energy": -6.097, "intermolecular_energy": -10.404, "internal_energy": -0.625}

$$$$
3uev_ligand
     RDKit          3D

 43 42  0  0  0  0  0  0  0  0999 V2000
  -14.9840   13.4370   58.8830 C   0  0  0  0  0  0  0  0  0  0  0  0
  -14.3990   12.1490   58.3260 C   0  0  0  0  0  0  0  0  0  0  0  0
  -13.4230   12.4300   57.1820 C   0  0  0  0  0  0  0  0  0  0  0  0
  -13.2480   11.2470   56.2230 C   0  0  0  0  0  0  0  0  0  0  0  0
  -12.1830   10.2470   56.6820 C   0  0  0  0  0  0  0  0  0  0  0  0
  -10.7540   10.8010   56.6060 C   0  0  0  0  0  0  0  0  0  0  0  0
   -9.7030    9.7330   56.2940 C   0  0  0  0  0  0  0  0  0  0  0  0
  -10.2380    8.5850   55.4290 C   0  0  0  0  0  0  0  0  0  0  0  0
   -9.2710    7.4030   55.3190 C   0  0  0  0  0  0  0  0  0  0  0  0
   -7.8700    7.7100   55.8620 C   0  0  0  0  0  0  0  0  0  0  0  0
   -7.1120    6.4640   56.3290 C   0  0  0  0  0  0  0  0  0  0  0  0
   -6.0770    5.9670   55.3130 C   0  0  0  0  0  0  0  0  0  0  0  0
   -4.6920    5.7420   55.9130 C   0  0  0  0  0  0  0  0  0  0  0  0
   -3.5580    6.5220   55.2380 C   0  0  0  0  0  0  0  0  0  0  0  0
   -2.5080    5.8780   54.9710 O   0  0  0  0  0  0  0  0  0  0  0  0
   -3.8280    7.7400   55.0230 O   0  0  0  0  0  0  0  0  0  0  0  0
  -14.9680   13.4017   59.9823 H   0  0  0  0  0  0  0  0  0  0  0  0
  -14.3859   14.2920   58.5348 H   0  0  0  0  0  0  0  0  0  0  0  0
  -16.0214   13.5492   58.5348 H   0  0  0  0  0  0  0  0  0  0  0  0
  -13.8658   11.6207   59.1301 H   0  0  0  0  0  0  0  0  0  0  0  0
  -15.2233   11.5340   57.9356 H   0  0  0  0  0  0  0  0  0  0  0  0
  -13.7974   13.2907   56.6084 H   0  0  0  0  0  0  0  0  0  0  0  0
  -12.4405   12.6266   57.6359 H   0  0  0  0  0  0  0  0  0  0  0  0
  -14.2097   10.7194   56.1404 H   0  0  0  0  0  0  0  0  0  0  0  0
  -12.9155   11.6567   55.2578 H   0  0  0  0  0  0  0  0  0  0  0  0
  -12.3936    9.9674   57.7248 H   0  0  0  0  0  0  0  0  0  0  0  0
  -12.2333    9.3839   56.0019 H   0  0  0  0  0  0  0  0  0  0  0  0
  -10.7184   11.5662   55.8165 H   0  0  0  0  0  0  0  0  0  0  0  0
  -10.5129   11.2137   57.5968 H   0  0  0  0  0  0  0  0  0  0  0  0
   -8.8679   10.2111   55.7610 H   0  0  0  0  0  0  0  0  0  0  0  0
   -9.3890    9.2968   57.2538 H   0  0  0  0  0  0  0  0  0  0  0  0
  -11.1791    8.2253   55.8706 H   0  0  0  0  0  0  0  0  0  0  0  0
  -10.3799    8.9833   54.4135 H   0  0  0  0  0  0  0  0  0  0  0  0
   -9.6875    6.5577   55.8865 H   0  0  0  0  0  0  0  0  0  0  0  0
   -9.1612    7.1716   54.2492 H   0  0  0  0  0  0  0  0  0  0  0  0
   -7.2862    8.1953   55.0660 H   0  0  0  0  0  0  0  0  0  0  0  0
   -7.9974    8.3605   56.7398 H   0  0  0  0  0  0  0  0  0  0  0  0
   -6.5920    6.7034   57.2683 H   0  0  0  0  0  0  0  0  0  0  0  0
   -7.8530    5.6614   56.4581 H   0  0  0  0  0  0  0  0  0  0  0  0
   -6.4324    5.0151   54.8917 H   0  0  0  0  0  0  0  0  0  0  0  0
   -5.9739    6.7503   54.5477 H   0  0  0  0  0  0  0  0  0  0  0  0
   -4.7267    6.0384   56.9717 H   0  0  0  0  0  0  0  0  0  0  0  0
   -4.4625    4.6765   55.7645 H   0  0  0  0  0  0  0  0  0  0  0  0
  1  2  1  0
  2  3  1  0
  3  4  1  0
  4  5  1  0
  5  6  1  0
  6  7  1  0
  7  8  1  0
  8  9  1  0
  9 10  1  0
 10 11  1  0
 11 12  1  0
 12 13  1  0
 13 14  1  0
 14 15  2  0
 14 16  1  0
  1 17  1  0
  1 18  1  0
  1 19  1  0
  2 20  1  0
  2 21  1  0
  3 22  1  0
  3 23  1  0
  4 24  1  0
  4 25  1  0
  5 26  1  0
  5 27  1  0
  6 28  1  0
  6 29  1  0
  7 30  1  0
  7 31  1  0
  8 32  1  0
  8 33  1  0
  9 34  1  0
  9 35  1  0
 10 36  1  0
 10 37  1  0
 11 38  1  0
 11 39  1  0
 12 40  1  0
 12 41  1  0
 13 42  1  0
 13 43  1  0
M  CHG  1  16  -1
M  END
>  <meeko>  (5) 
{"is_sidechain": [false], "free_energy": -5.912, "intermolecular_energy": -10.175, "internal_energy": -0.539}

$$$$
3uev_ligand
     RDKit          3D

 43 42  0  0  0  0  0  0  0  0999 V2000
   -5.0630    2.8830   54.3040 C   0  0  0  0  0  0  0  0  0  0  0  0
   -4.6010    4.3170   54.1040 C   0  0  0  0  0  0  0  0  0  0  0  0
   -3.9800    4.8860   55.3810 C   0  0  0  0  0  0  0  0  0  0  0  0
   -4.9500    5.7420   56.2040 C   0  0  0  0  0  0  0  0  0  0  0  0
   -5.7820    6.7030   55.3510 C   0  0  0  0  0  0  0  0  0  0  0  0
   -7.2050    6.9160   55.8840 C   0  0  0  0  0  0  0  0  0  0  0  0
   -8.2790    6.8600   54.7950 C   0  0  0  0  0  0  0  0  0  0  0  0
   -9.1100    8.1450   54.6930 C   0  0  0  0  0  0  0  0  0  0  0  0
   -8.6700    9.2350   55.6730 C   0  0  0  0  0  0  0  0  0  0  0  0
   -9.7980    9.7240   56.5890 C   0  0  0  0  0  0  0  0  0  0  0  0
  -11.1950    9.5310   55.9900 C   0  0  0  0  0  0  0  0  0  0  0  0
  -12.3210   10.0230   56.9060 C   0  0  0  0  0  0  0  0  0  0  0  0
  -13.0960   11.2080   56.3380 C   0  0  0  0  0  0  0  0  0  0  0  0
  -13.1550   12.4410   57.2480 C   0  0  0  0  0  0  0  0  0  0  0  0
  -12.1020   13.1280   57.3400 O   0  0  0  0  0  0  0  0  0  0  0  0
  -14.2790   12.6200   57.8000 O   0  0  0  0  0  0  0  0  0  0  0  0
   -5.1326    2.6669   55.3803 H   0  0  0  0  0  0  0  0  0  0  0  0
   -6.0503    2.7475   53.8382 H   0  0  0  0  0  0  0  0  0  0  0  0
   -4.3405    2.1967   53.8382 H   0  0  0  0  0  0  0  0  0  0  0  0
   -3.8515    4.3427   53.2992 H   0  0  0  0  0  0  0  0  0  0  0  0
   -5.4762    4.9295   53.8417 H   0  0  0  0  0  0  0  0  0  0  0  0
   -3.6393    4.0474   56.0061 H   0  0  0  0  0  0  0  0  0  0  0  0
   -3.1513    5.5409   55.0738 H   0  0  0  0  0  0  0  0  0  0  0  0
   -5.6351    5.0720   56.7441 H   0  0  0  0  0  0  0  0  0  0  0  0
   -4.3444    6.3544   56.8883 H   0  0  0  0  0  0  0  0  0  0  0  0
   -5.2707    7.6766   55.3236 H   0  0  0  0  0  0  0  0  0  0  0  0
   -5.8739    6.2530   54.3515 H   0  0  0  0  0  0  0  0  0  0  0  0
   -7.4200    6.1327   56.6258 H   0  0  0  0  0  0  0  0  0  0  0  0
   -7.2394    7.9248   56.3211 H   0  0  0  0  0  0  0  0  0  0  0  0
   -7.7857    6.6859   53.8273 H   0  0  0  0  0  0  0  0  0  0  0  0
   -8.9699    6.0466   55.0615 H   0  0  0  0  0  0  0  0  0  0  0  0
   -9.0184    8.5388   53.6700 H   0  0  0  0  0  0  0  0  0  0  0  0
  -10.1473    7.8809   54.9466 H   0  0  0  0  0  0  0  0  0  0  0  0
   -7.8610    8.8332   56.3007 H   0  0  0  0  0  0  0  0  0  0  0  0
   -8.3429   10.0971   55.0732 H   0  0  0  0  0  0  0  0  0  0  0  0
   -9.7446    9.1668   57.5359 H   0  0  0  0  0  0  0  0  0  0  0  0
   -9.6532   10.8048   56.7339 H   0  0  0  0  0  0  0  0  0  0  0  0
  -11.2482   10.0866   55.0421 H   0  0  0  0  0  0  0  0  0  0  0  0
  -11.3411    8.4503   55.8460 H   0  0  0  0  0  0  0  0  0  0  0  0
  -13.0245    9.1932   57.0689 H   0  0  0  0  0  0  0  0  0  0  0  0
  -11.8514   10.3627   57.8409 H   0  0  0  0  0  0  0  0  0  0  0  0
  -12.6200   11.5049   55.3918 H   0  0  0  0  0  0  0  0  0  0  0  0
  -14.1344   10.8660   56.2166 H   0  0  0  0  0  0  0  0  0  0  0  0
  1  2  1  0
  2  3  1  0
  3  4  1  0
  4  5  1  0
  5  6  1  0
  6  7  1  0
  7  8  1  0
  8  9  1  0
  9 10  1  0
 10 11  1  0
 11 12  1  0
 12 13  1  0
 13 14  1  0
 14 15  2  0
 14 16  1  0
  1 17  1  0
  1 18  1  0
  1 19  1  0
  2 20  1  0
  2 21  1  0
  3 22  1  0
  3 23  1  0
  4 24  1  0
  4 25  1  0
  5 26  1  0
  5 27  1  0
  6 28  1  0
  6 29  1  0
  7 30  1  0
  7 31  1  0
  8 32  1  0
  8 33  1  0
  9 34  1  0
  9 35  1  0
 10 36  1  0
 10 37  1  0
 11 38  1  0
 11 39  1  0
 12 40  1  0
 12 41  1  0
 13 42  1  0
 13 43  1  0
M  CHG  1  16  -1
M  END
>  <meeko>  (6) 
{"is_sidechain": [false], "free_energy": -5.88, "intermolecular_energy": -9.979, "internal_energy": -0.682}

$$$$
3uev_ligand
     RDKit          3D

 43 42  0  0  0  0  0  0  0  0999 V2000
  -12.7520    9.5530   55.6140 C   0  0  0  0  0  0  0  0  0  0  0  0
  -12.0570   10.6770   56.3660 C   0  0  0  0  0  0  0  0  0  0  0  0
  -10.6500   10.2670   56.8040 C   0  0  0  0  0  0  0  0  0  0  0  0
   -9.9980    9.2330   55.8780 C   0  0  0  0  0  0  0  0  0  0  0  0
   -8.4950    9.0670   56.1190 C   0  0  0  0  0  0  0  0  0  0  0  0
   -7.8920    7.8570   55.3930 C   0  0  0  0  0  0  0  0  0  0  0  0
   -7.6000    6.6740   56.3200 C   0  0  0  0  0  0  0  0  0  0  0  0
   -6.1450    6.1930   56.2550 C   0  0  0  0  0  0  0  0  0  0  0  0
   -5.4060    6.6570   54.9970 C   0  0  0  0  0  0  0  0  0  0  0  0
   -5.2810    5.5670   53.9260 C   0  0  0  0  0  0  0  0  0  0  0  0
   -5.6930    4.1780   54.4210 C   0  0  0  0  0  0  0  0  0  0  0  0
   -4.5120    3.2120   54.5680 C   0  0  0  0  0  0  0  0  0  0  0  0
   -4.2090    2.4210   53.2980 C   0  0  0  0  0  0  0  0  0  0  0  0
   -2.8090    2.6450   52.7140 C   0  0  0  0  0  0  0  0  0  0  0  0
   -2.1720    3.6480   53.1370 O   0  0  0  0  0  0  0  0  0  0  0  0
   -2.4590    1.7730   51.8660 O   0  0  0  0  0  0  0  0  0  0  0  0
  -13.1893    8.8457   56.3340 H   0  0  0  0  0  0  0  0  0  0  0  0
  -13.5486    9.9724   54.9820 H   0  0  0  0  0  0  0  0  0  0  0  0
  -12.0208    9.0277   54.9820 H   0  0  0  0  0  0  0  0  0  0  0  0
  -11.9856   11.5567   55.7094 H   0  0  0  0  0  0  0  0  0  0  0  0
  -12.6464   10.9089   57.2653 H   0  0  0  0  0  0  0  0  0  0  0  0
  -10.0158   11.1656   56.8238 H   0  0  0  0  0  0  0  0  0  0  0  0
  -10.7430    9.8001   57.7956 H   0  0  0  0  0  0  0  0  0  0  0  0
  -10.4871    8.2612   56.0404 H   0  0  0  0  0  0  0  0  0  0  0  0
  -10.1248    9.5934   54.8465 H   0  0  0  0  0  0  0  0  0  0  0  0
   -7.9831    9.9751   55.7679 H   0  0  0  0  0  0  0  0  0  0  0  0
   -8.3551    8.9018   57.1975 H   0  0  0  0  0  0  0  0  0  0  0  0
   -8.6002    7.5266   54.6188 H   0  0  0  0  0  0  0  0  0  0  0  0
   -6.9307    8.1803   54.9671 H   0  0  0  0  0  0  0  0  0  0  0  0
   -7.8206    6.9785   57.3537 H   0  0  0  0  0  0  0  0  0  0  0  0
   -8.2332    5.8379   55.9883 H   0  0  0  0  0  0  0  0  0  0  0  0
   -5.6106    6.5791   57.1355 H   0  0  0  0  0  0  0  0  0  0  0  0
   -6.1676    5.0935   56.2310 H   0  0  0  0  0  0  0  0  0  0  0  0
   -5.9530    7.5083   54.5656 H   0  0  0  0  0  0  0  0  0  0  0  0
   -4.3851    6.9298   55.3027 H   0  0  0  0  0  0  0  0  0  0  0  0
   -5.9233    5.8387   53.0754 H   0  0  0  0  0  0  0  0  0  0  0  0
   -4.2194    5.5094   53.6437 H   0  0  0  0  0  0  0  0  0  0  0  0
   -6.1792    4.2868   55.4017 H   0  0  0  0  0  0  0  0  0  0  0  0
   -6.3711    3.7513   53.6673 H   0  0  0  0  0  0  0  0  0  0  0  0
   -3.6181    3.7938   54.8372 H   0  0  0  0  0  0  0  0  0  0  0  0
   -4.7857    2.4830   55.3450 H   0  0  0  0  0  0  0  0  0  0  0  0
   -4.3152    1.3508   53.5290 H   0  0  0  0  0  0  0  0  0  0  0  0
   -4.9200    2.7761   52.5375 H   0  0  0  0  0  0  0  0  0  0  0  0
  1  2  1  0
  2  3  1  0
  3  4  1  0
  4  5  1  0
  5  6  1  0
  6  7  1  0
  7  8  1  0
  8  9  1  0
  9 10  1  0
 10 11  1  0
 11 12  1  0
 12 13  1  0
 13 14  1  0
 14 15  2  0
 14 16  1  0
  1 17  1  0
  1 18  1  0
  1 19  1  0
  2 20  1  0
  2 21  1  0
  3 22  1  0
  3 23  1  0
  4 24  1  0
  4 25  1  0
  5 26  1  0
  5 27  1  0
  6 28  1  0
  6 29  1  0
  7 30  1  0
  7 31  1  0
  8 32  1  0
  8 33  1  0
  9 34  1  0
  9 35  1  0
 10 36  1  0
 10 37  1  0
 11 38  1  0
 11 39  1  0
 12 40  1  0
 12 41  1  0
 13 42  1  0
 13 43  1  0
M  CHG  1  16  -1
M  END
>  <meeko>  (7) 
{"is_sidechain": [false], "free_energy": -5.803, "intermolecular_energy": -9.857, "internal_energy": -0.671}

$$$$
3uev_ligand
     RDKit          3D

 43 42  0  0  0  0  0  0  0  0999 V2000
   -2.8780    9.4030   55.4250 C   0  0  0  0  0  0  0  0  0  0  0  0
   -2.0710    8.1380   55.1820 C   0  0  0  0  0  0  0  0  0  0  0  0
   -2.8970    7.0840   54.4420 C   0  0  0  0  0  0  0  0  0  0  0  0
   -3.2300    5.8560   55.2980 C   0  0  0  0  0  0  0  0  0  0  0  0
   -4.5840    5.9600   56.0050 C   0  0  0  0  0  0  0  0  0  0  0  0
   -5.7430    5.3710   55.1910 C   0  0  0  0  0  0  0  0  0  0  0  0
   -6.5700    6.4290   54.4550 C   0  0  0  0  0  0  0  0  0  0  0  0
   -7.0050    7.5950   55.3520 C   0  0  0  0  0  0  0  0  0  0  0  0
   -8.4310    7.4510   55.8890 C   0  0  0  0  0  0  0  0  0  0  0  0
   -9.5090    7.6570   54.8190 C   0  0  0  0  0  0  0  0  0  0  0  0
  -10.6530    8.5680   55.2740 C   0  0  0  0  0  0  0  0  0  0  0  0
  -10.2080    9.6540   56.2600 C   0  0  0  0  0  0  0  0  0  0  0  0
  -11.3060   10.0870   57.2270 C   0  0  0  0  0  0  0  0  0  0  0  0
  -12.2790   11.1360   56.6750 C   0  0  0  0  0  0  0  0  0  0  0  0
  -12.0660   12.3350   57.0030 O   0  0  0  0  0  0  0  0  0  0  0  0
  -13.1900   10.6560   55.9400 O   0  0  0  0  0  0  0  0  0  0  0  0
   -2.9835    9.5684   56.5074 H   0  0  0  0  0  0  0  0  0  0  0  0
   -2.3601   10.2611   54.9717 H   0  0  0  0  0  0  0  0  0  0  0  0
   -3.8744    9.2950   54.9717 H   0  0  0  0  0  0  0  0  0  0  0  0
   -1.1861    8.3881   54.5784 H   0  0  0  0  0  0  0  0  0  0  0  0
   -1.7735    7.7239   56.1567 H   0  0  0  0  0  0  0  0  0  0  0  0
   -3.8399    7.5468   54.1154 H   0  0  0  0  0  0  0  0  0  0  0  0
   -2.2893    6.7328   53.5950 H   0  0  0  0  0  0  0  0  0  0  0  0
   -3.2433    4.9696   54.6468 H   0  0  0  0  0  0  0  0  0  0  0  0
   -2.4590    5.7846   56.0793 H   0  0  0  0  0  0  0  0  0  0  0  0
   -4.5202    5.4206   56.9616 H   0  0  0  0  0  0  0  0  0  0  0  0
   -4.7961    7.0303   56.1446 H   0  0  0  0  0  0  0  0  0  0  0  0
   -5.3281    4.6740   54.4480 H   0  0  0  0  0  0  0  0  0  0  0  0
   -6.4165    4.8696   55.9017 H   0  0  0  0  0  0  0  0  0  0  0  0
   -5.9655    6.8314   53.6288 H   0  0  0  0  0  0  0  0  0  0  0  0
   -7.4856    5.9349   54.0980 H   0  0  0  0  0  0  0  0  0  0  0  0
   -6.3150    7.6534   56.2067 H   0  0  0  0  0  0  0  0  0  0  0  0
   -6.9813    8.5052   54.7348 H   0  0  0  0  0  0  0  0  0  0  0  0
   -8.5450    6.4406   56.3086 H   0  0  0  0  0  0  0  0  0  0  0  0
   -8.5727    8.2351   56.6474 H   0  0  0  0  0  0  0  0  0  0  0  0
   -9.0382    8.1055   53.9318 H   0  0  0  0  0  0  0  0  0  0  0  0
   -9.9458    6.6705   54.6047 H   0  0  0  0  0  0  0  0  0  0  0  0
  -11.0839    9.0566   54.3876 H   0  0  0  0  0  0  0  0  0  0  0  0
  -11.3858    7.9348   55.7957 H   0  0  0  0  0  0  0  0  0  0  0  0
   -9.3615    9.2663   56.8458 H   0  0  0  0  0  0  0  0  0  0  0  0
   -9.9346   10.5379   55.6651 H   0  0  0  0  0  0  0  0  0  0  0  0
  -11.8871    9.1953   57.5049 H   0  0  0  0  0  0  0  0  0  0  0  0
  -10.7961   10.5592   58.0797 H   0  0  0  0  0  0  0  0  0  0  0  0
  1  2  1  0
  2  3  1  0
  3  4  1  0
  4  5  1  0
  5  6  1  0
  6  7  1  0
  7  8  1  0
  8  9  1  0
  9 10  1  0
 10 11  1  0
 11 12  1  0
 12 13  1  0
 13 14  1  0
 14 15  2  0
 14 16  1  0
  1 17  1  0
  1 18  1  0
  1 19  1  0
  2 20  1  0
  2 21  1  0
  3 22  1  0
  3 23  1  0
  4 24  1  0
  4 25  1  0
  5 26  1  0
  5 27  1  0
  6 28  1  0
  6 29  1  0
  7 30  1  0
  7 31  1  0
  8 32  1  0
  8 33  1  0
  9 34  1  0
  9 35  1  0
 10 36  1  0
 10 37  1  0
 11 38  1  0
 11 39  1  0
 12 40  1  0
 12 41  1  0
 13 42  1  0
 13 43  1  0
M  CHG  1  16  -1
M  END
>  <meeko>  (8) 
{"is_sidechain": [false], "free_energy": -5.508, "intermolecular_energy": -9.273, "internal_energy": -0.753}

$$$$
3uev_ligand
     RDKit          3D

 43 42  0  0  0  0  0  0  0  0999 V2000
  -12.2020   10.0310   56.1040 C   0  0  0  0  0  0  0  0  0  0  0  0
  -10.8770   10.6670   56.4930 C   0  0  0  0  0  0  0  0  0  0  0  0
   -9.7110    9.7000   56.2800 C   0  0  0  0  0  0  0  0  0  0  0  0
  -10.1090    8.4150   55.5440 C   0  0  0  0  0  0  0  0  0  0  0  0
   -8.9240    7.7020   54.8870 C   0  0  0  0  0  0  0  0  0  0  0  0
   -7.9420    7.0940   55.8970 C   0  0  0  0  0  0  0  0  0  0  0  0
   -6.4900    7.0960   55.4120 C   0  0  0  0  0  0  0  0  0  0  0  0
   -5.7280    5.8130   55.7670 C   0  0  0  0  0  0  0  0  0  0  0  0
   -5.8290    4.7270   54.6930 C   0  0  0  0  0  0  0  0  0  0  0  0
   -4.6160    3.7910   54.6560 C   0  0  0  0  0  0  0  0  0  0  0  0
   -3.8020    3.8990   53.3630 C   0  0  0  0  0  0  0  0  0  0  0  0
   -3.1230    5.2610   53.1860 C   0  0  0  0  0  0  0  0  0  0  0  0
   -2.1940    5.6340   54.3380 C   0  0  0  0  0  0  0  0  0  0  0  0
   -2.4350    7.0230   54.9420 C   0  0  0  0  0  0  0  0  0  0  0  0
   -3.2020    7.7930   54.3020 O   0  0  0  0  0  0  0  0  0  0  0  0
   -1.8250    7.2240   56.0320 O   0  0  0  0  0  0  0  0  0  0  0  0
  -12.7608    9.7628   57.0128 H   0  0  0  0  0  0  0  0  0  0  0  0
  -12.7906   10.7447   55.5089 H   0  0  0  0  0  0  0  0  0  0  0  0
  -12.0133    9.1253   55.5089 H   0  0  0  0  0  0  0  0  0  0  0  0
  -10.7156   11.5637   55.8767 H   0  0  0  0  0  0  0  0  0  0  0  0
  -10.9188   10.9298   57.5603 H   0  0  0  0  0  0  0  0  0  0  0  0
   -8.9364   10.2129   55.6911 H   0  0  0  0  0  0  0  0  0  0  0  0
   -9.3500    9.4039   57.2760 H   0  0  0  0  0  0  0  0  0  0  0  0
  -10.5728    7.7278   56.2670 H   0  0  0  0  0  0  0  0  0  0  0  0
  -10.8034    8.7014   54.7404 H   0  0  0  0  0  0  0  0  0  0  0  0
   -9.3130    6.8944   54.2495 H   0  0  0  0  0  0  0  0  0  0  0  0
   -8.3701    8.4572   54.3101 H   0  0  0  0  0  0  0  0  0  0  0  0
   -7.9985    7.6737   56.8302 H   0  0  0  0  0  0  0  0  0  0  0  0
   -8.2342    6.0433   56.0411 H   0  0  0  0  0  0  0  0  0  0  0  0
   -6.4878    7.2116   54.3181 H   0  0  0  0  0  0  0  0  0  0  0  0
   -5.9793    7.9281   55.9187 H   0  0  0  0  0  0  0  0  0  0  0  0
   -4.6668    6.0658   55.9080 H   0  0  0  0  0  0  0  0  0  0  0  0
   -6.1849    5.4075   56.6818 H   0  0  0  0  0  0  0  0  0  0  0  0
   -6.7280    4.1246   54.8901 H   0  0  0  0  0  0  0  0  0  0  0  0
   -5.8746    5.2371   53.7195 H   0  0  0  0  0  0  0  0  0  0  0  0
   -3.9591    4.0383   55.5030 H   0  0  0  0  0  0  0  0  0  0  0  0
   -4.9991    2.7614   54.7129 H   0  0  0  0  0  0  0  0  0  0  0  0
   -3.0251    3.1204   53.3735 H   0  0  0  0  0  0  0  0  0  0  0  0
   -4.5035    3.7735   52.5251 H   0  0  0  0  0  0  0  0  0  0  0  0
   -2.5338    5.2379   52.2574 H   0  0  0  0  0  0  0  0  0  0  0  0
   -3.9205    6.0180   53.1562 H   0  0  0  0  0  0  0  0  0  0  0  0
   -2.3234    4.8879   55.1359 H   0  0  0  0  0  0  0  0  0  0  0  0
   -1.1772    5.6536   53.9187 H   0  0  0  0  0  0  0  0  0  0  0  0
  1  2  1  0
  2  3  1  0
  3  4  1  0
  4  5  1  0
  5  6  1  0
  6  7  1  0
  7  8  1  0
  8  9  1  0
  9 10  1  0
 10 11  1  0
 11 12  1  0
 12 13  1  0
 13 14  1  0
 14 15  2  0
 14 16  1  0
  1 17  1  0
  1 18  1  0
  1 19  1  0
  2 20  1  0
  2 21  1  0
  3 22  1  0
  3 23  1  0
  4 24  1  0
  4 25  1  0
  5 26  1  0
  5 27  1  0
  6 28  1  0
  6 29  1  0
  7 30  1  0
  7 31  1  0
  8 32  1  0
  8 33  1  0
  9 34  1  0
  9 35  1  0
 10 36  1  0
 10 37  1  0
 11 38  1  0
 11 39  1  0
 12 40  1  0
 12 41  1  0
 13 42  1  0
 13 43  1  0
M  CHG  1  16  -1
M  END
>  <meeko>  (9) 
{"is_sidechain": [false], "free_energy": -5.41, "intermolecular_energy": -9.022, "internal_energy": -0.838}

$$$$
