4u4s_ligand
     RDKit          3D

 26 27  0  0  0  0  0  0  0  0999 V2000
  -19.0960   39.5830  -17.8050 C   0  0  0  0  0  0  0  0  0  0  0  0
  -19.8100   40.8930  -18.1020 C   0  0  0  0  0  0  0  0  0  0  0  0
  -18.9230   42.0350  -17.8100 N   0  0  0  0  0  0  0  0  0  0  0  0
  -17.5290   41.8330  -18.2070 C   0  0  0  0  0  0  0  0  0  0  0  0
  -16.6670   42.6030  -17.3560 N   0  0  0  0  0  0  0  0  0  0  0  0
  -16.8400   44.2350  -17.5480 S   0  0  0  0  0  0  0  0  0  0  0  0
  -16.4480   44.6250  -18.8800 O   0  0  0  0  0  0  0  0  0  0  0  0
  -16.3280   44.8820  -16.3630 O   0  0  0  0  0  0  0  0  0  0  0  0
  -18.5720   44.4260  -17.4900 C   0  0  0  0  0  0  0  0  0  0  0  0
  -19.0410   45.7150  -17.2620 C   0  0  0  0  0  0  0  0  0  0  0  0
  -20.3620   45.9170  -17.1520 N   0  0  0  0  0  0  0  0  0  0  0  0
  -21.2370   44.9060  -17.2440 C   0  0  0  0  0  0  0  0  0  0  0  0
  -20.7800   43.6020  -17.4640 C   0  0  0  0  0  0  0  0  0  0  0  0
  -19.4130   43.3190  -17.6110 C   0  0  0  0  0  0  0  0  0  0  0  0
  -19.0208   39.4450  -16.7163 H   0  0  0  0  0  0  0  0  0  0  0  0
  -19.6641   38.7485  -18.2420 H   0  0  0  0  0  0  0  0  0  0  0  0
  -18.0868   39.6082  -18.2420 H   0  0  0  0  0  0  0  0  0  0  0  0
  -20.0966   40.9179  -19.1637 H   0  0  0  0  0  0  0  0  0  0  0  0
  -20.7067   40.9643  -17.4688 H   0  0  0  0  0  0  0  0  0  0  0  0
  -17.2741   40.7667  -18.1171 H   0  0  0  0  0  0  0  0  0  0  0  0
  -17.3965   42.1579  -19.2495 H   0  0  0  0  0  0  0  0  0  0  0  0
  -16.5920   42.2930  -16.3910 H   0  0  0  0  0  0  0  0  0  0  0  0
  -18.3385   46.5568  -17.1732 H   0  0  0  0  0  0  0  0  0  0  0  0
  -20.7080   46.8660  -16.9860 H   0  0  0  0  0  0  0  0  0  0  0  0
  -22.3151   45.1015  -17.1465 H   0  0  0  0  0  0  0  0  0  0  0  0
  -21.5085   42.7799  -17.5231 H   0  0  0  0  0  0  0  0  0  0  0  0
  1  2  1  0
  2  3  1  0
  3  4  1  0
  4  5  1  0
  5  6  1  0
  6  7  2  0
  6  8  2  0
  6  9  1  0
  9 10  2  0
 10 11  1  0
 11 12  2  0
 12 13  1  0
 13 14  2  0
 14  3  1  0
 14  9  1  0
  1 15  1  0
  1 16  1  0
  1 17  1  0
  2 18  1  0
  2 19  1  0
  4 20  1  0
  4 21  1  0
  5 22  1  0
 10 23  1  0
 11 24  1  0
 12 25  1  0
 13 26  1  0
M  CHG  1  11   1
M  END
>  <meeko>  (1) 
{"is_sidechain": [false], "free_energy": -5.914, "intermolecular_energy": -6.26, "internal_energy": -0.102}

$$$$
4u4s_ligand
     RDKit          3D

 26 27  0  0  0  0  0  0  0  0999 V2000
  -19.3390   49.5150  -17.7520 C   0  0  0  0  0  0  0  0  0  0  0  0
  -18.5680   48.2370  -18.0470 C   0  0  0  0  0  0  0  0  0  0  0  0
  -19.4140   47.0590  -17.7800 N   0  0  0  0  0  0  0  0  0  0  0  0
  -20.8040   47.2030  -18.2120 C   0  0  0  0  0  0  0  0  0  0  0  0
  -21.6550   46.3950  -17.3850 N   0  0  0  0  0  0  0  0  0  0  0  0
  -21.4090   44.7720  -17.5750 S   0  0  0  0  0  0  0  0  0  0  0  0
  -21.7510   44.3700  -18.9170 O   0  0  0  0  0  0  0  0  0  0  0  0
  -21.9230   44.1010  -16.4040 O   0  0  0  0  0  0  0  0  0  0  0  0
  -19.6720   44.6540  -17.4730 C   0  0  0  0  0  0  0  0  0  0  0  0
  -19.1560   43.3850  -17.2360 C   0  0  0  0  0  0  0  0  0  0  0  0
  -17.8310   43.2380  -17.0930 N   0  0  0  0  0  0  0  0  0  0  0  0
  -16.9960   44.2850  -17.1600 C   0  0  0  0  0  0  0  0  0  0  0  0
  -17.5020   45.5690  -17.3900 C   0  0  0  0  0  0  0  0  0  0  0  0
  -18.8750   45.7960  -17.5710 C   0  0  0  0  0  0  0  0  0  0  0  0
  -19.4209   49.6508  -16.6635 H   0  0  0  0  0  0  0  0  0  0  0  0
  -18.8077   50.3730  -18.1896 H   0  0  0  0  0  0  0  0  0  0  0  0
  -20.3458   49.4451  -18.1896 H   0  0  0  0  0  0  0  0  0  0  0  0
  -18.2622   48.2328  -19.1036 H   0  0  0  0  0  0  0  0  0  0  0  0
  -17.6801   48.1957  -17.3990 H   0  0  0  0  0  0  0  0  0  0  0  0
  -21.1058   48.2574  -18.1268 H   0  0  0  0  0  0  0  0  0  0  0  0
  -20.8957   46.8753  -19.2580 H   0  0  0  0  0  0  0  0  0  0  0  0
  -21.7670   46.6990  -16.4210 H   0  0  0  0  0  0  0  0  0  0  0  0
  -19.8249   42.5145  -17.1668 H   0  0  0  0  0  0  0  0  0  0  0  0
  -17.4490   42.3040  -16.9190 H   0  0  0  0  0  0  0  0  0  0  0  0
  -15.9136   44.1345  -17.0342 H   0  0  0  0  0  0  0  0  0  0  0  0
  -16.8071   46.4208  -17.4299 H   0  0  0  0  0  0  0  0  0  0  0  0
  1  2  1  0
  2  3  1  0
  3  4  1  0
  4  5  1  0
  5  6  1  0
  6  7  2  0
  6  8  2  0
  6  9  1  0
  9 10  2  0
 10 11  1  0
 11 12  2  0
 12 13  1  0
 13 14  2  0
 14  3  1  0
 14  9  1  0
  1 15  1  0
  1 16  1  0
  1 17  1  0
  2 18  1  0
  2 19  1  0
  4 20  1  0
  4 21  1  0
  5 22  1  0
 10 23  1  0
 11 24  1  0
 12 25  1  0
 13 26  1  0
M  CHG  1  11   1
M  END
>  <meeko>  (2) 
{"is_sidechain": [false], "free_energy": -5.891, "intermolecular_energy": -6.235, "internal_energy": -0.102}

$$$$
4u4s_ligand
     RDKit          3D

 26 27  0  0  0  0  0  0  0  0999 V2000
  -19.7340   49.7740  -17.8570 C   0  0  0  0  0  0  0  0  0  0  0  0
  -19.6740   48.5920  -18.8140 C   0  0  0  0  0  0  0  0  0  0  0  0
  -19.3510   47.3560  -18.0780 N   0  0  0  0  0  0  0  0  0  0  0  0
  -18.2510   47.4920  -17.1230 C   0  0  0  0  0  0  0  0  0  0  0  0
  -17.5880   46.2280  -16.9650 N   0  0  0  0  0  0  0  0  0  0  0  0
  -18.5270   45.0790  -16.2380 S   0  0  0  0  0  0  0  0  0  0  0  0
  -18.8420   45.4740  -14.8870 O   0  0  0  0  0  0  0  0  0  0  0  0
  -17.9800   43.7820  -16.5650 O   0  0  0  0  0  0  0  0  0  0  0  0
  -20.0180   45.2110  -17.1300 C   0  0  0  0  0  0  0  0  0  0  0  0
  -20.9010   44.1430  -17.0130 C   0  0  0  0  0  0  0  0  0  0  0  0
  -22.0420   44.1610  -17.7180 N   0  0  0  0  0  0  0  0  0  0  0  0
  -22.3440   45.1750  -18.5410 C   0  0  0  0  0  0  0  0  0  0  0  0
  -21.4610   46.2530  -18.6760 C   0  0  0  0  0  0  0  0  0  0  0  0
  -20.2590   46.3120  -17.9530 C   0  0  0  0  0  0  0  0  0  0  0  0
  -19.7154   49.4075  -16.8200 H   0  0  0  0  0  0  0  0  0  0  0  0
  -18.8680   50.4299  -18.0297 H   0  0  0  0  0  0  0  0  0  0  0  0
  -20.6620   50.3388  -18.0297 H   0  0  0  0  0  0  0  0  0  0  0  0
  -20.6494   48.4756  -19.3090 H   0  0  0  0  0  0  0  0  0  0  0  0
  -18.8914   48.7775  -19.5644 H   0  0  0  0  0  0  0  0  0  0  0  0
  -17.5331   48.2373  -17.4959 H   0  0  0  0  0  0  0  0  0  0  0  0
  -18.6505   47.8177  -16.1512 H   0  0  0  0  0  0  0  0  0  0  0  0
  -17.0510   45.8980  -17.7620 H   0  0  0  0  0  0  0  0  0  0  0  0
  -20.6671   43.2956  -16.3518 H   0  0  0  0  0  0  0  0  0  0  0  0
  -22.6920   43.3760  -17.6310 H   0  0  0  0  0  0  0  0  0  0  0  0
  -23.2852   45.1601  -19.1101 H   0  0  0  0  0  0  0  0  0  0  0  0
  -21.7148   47.0726  -19.3644 H   0  0  0  0  0  0  0  0  0  0  0  0
  1  2  1  0
  2  3  1  0
  3  4  1  0
  4  5  1  0
  5  6  1  0
  6  7  2  0
  6  8  2  0
  6  9  1  0
  9 10  2  0
 10 11  1  0
 11 12  2  0
 12 13  1  0
 13 14  2  0
 14  3  1  0
 14  9  1  0
  1 15  1  0
  1 16  1  0
  1 17  1  0
  2 18  1  0
  2 19  1  0
  4 20  1  0
  4 21  1  0
  5 22  1  0
 10 23  1  0
 11 24  1  0
 12 25  1  0
 13 26  1  0
M  CHG  1  11   1
M  END
>  <meeko>  (3) 
{"is_sidechain": [false], "free_energy": -5.862, "intermolecular_energy": -6.202, "internal_energy": -0.104}

$$$$
4u4s_ligand
     RDKit          3D

 26 27  0  0  0  0  0  0  0  0999 V2000
  -23.2450   44.6700  -18.8320 C   0  0  0  0  0  0  0  0  0  0  0  0
  -21.9290   45.2460  -19.3350 C   0  0  0  0  0  0  0  0  0  0  0  0
  -20.9490   45.3130  -18.2350 N   0  0  0  0  0  0  0  0  0  0  0  0
  -20.6660   44.0260  -17.5990 C   0  0  0  0  0  0  0  0  0  0  0  0
  -20.2850   44.2360  -16.2310 N   0  0  0  0  0  0  0  0  0  0  0  0
  -18.8400   45.0200  -16.0630 S   0  0  0  0  0  0  0  0  0  0  0  0
  -17.7700   44.2160  -16.6000 O   0  0  0  0  0  0  0  0  0  0  0  0
  -18.7950   45.5970  -14.7400 O   0  0  0  0  0  0  0  0  0  0  0  0
  -19.0250   46.3590  -17.1650 C   0  0  0  0  0  0  0  0  0  0  0  0
  -18.1340   47.4150  -17.0020 C   0  0  0  0  0  0  0  0  0  0  0  0
  -18.2590   48.4980  -17.7840 N   0  0  0  0  0  0  0  0  0  0  0  0
  -19.2280   48.5910  -18.7060 C   0  0  0  0  0  0  0  0  0  0  0  0
  -20.1360   47.5400  -18.8750 C   0  0  0  0  0  0  0  0  0  0  0  0
  -20.0530   46.3670  -18.1090 C   0  0  0  0  0  0  0  0  0  0  0  0
  -23.2481   44.6687  -17.7320 H   0  0  0  0  0  0  0  0  0  0  0  0
  -24.0791   45.2853  -19.2002 H   0  0  0  0  0  0  0  0  0  0  0  0
  -23.3589   43.6397  -19.2002 H   0  0  0  0  0  0  0  0  0  0  0  0
  -21.5334   44.6035  -20.1354 H   0  0  0  0  0  0  0  0  0  0  0  0
  -22.1055   46.2609  -19.7209 H   0  0  0  0  0  0  0  0  0  0  0  0
  -21.5659   43.3945  -17.6352 H   0  0  0  0  0  0  0  0  0  0  0  0
  -19.8438   43.5282  -18.1339 H   0  0  0  0  0  0  0  0  0  0  0  0
  -21.0180   44.5530  -15.6030 H   0  0  0  0  0  0  0  0  0  0  0  0
  -17.3391   47.3628  -16.2435 H   0  0  0  0  0  0  0  0  0  0  0  0
  -17.6050   49.2750  -17.6660 H   0  0  0  0  0  0  0  0  0  0  0  0
  -19.3091   49.4936  -19.3295 H   0  0  0  0  0  0  0  0  0  0  0  0
  -20.9339   47.6354  -19.6261 H   0  0  0  0  0  0  0  0  0  0  0  0
  1  2  1  0
  2  3  1  0
  3  4  1  0
  4  5  1  0
  5  6  1  0
  6  7  2  0
  6  8  2  0
  6  9  1  0
  9 10  2  0
 10 11  1  0
 11 12  2  0
 12 13  1  0
 13 14  2  0
 14  3  1  0
 14  9  1  0
  1 15  1  0
  1 16  1  0
  1 17  1  0
  2 18  1  0
  2 19  1  0
  4 20  1  0
  4 21  1  0
  5 22  1  0
 10 23  1  0
 11 24  1  0
 12 25  1  0
 13 26  1  0
M  CHG  1  11   1
M  END
>  <meeko>  (4) 
{"is_sidechain": [false], "free_energy": -5.812, "intermolecular_energy": -6.145, "internal_energy": -0.109}

$$$$
4u4s_ligand
     RDKit          3D

 26 27  0  0  0  0  0  0  0  0999 V2000
  -18.5790   39.3830  -18.1600 C   0  0  0  0  0  0  0  0  0  0  0  0
  -18.7220   40.5860  -19.0800 C   0  0  0  0  0  0  0  0  0  0  0  0
  -19.1640   41.7650  -18.3130 N   0  0  0  0  0  0  0  0  0  0  0  0
  -20.4000   41.5650  -17.5570 C   0  0  0  0  0  0  0  0  0  0  0  0
  -21.0870   42.8170  -17.4110 N   0  0  0  0  0  0  0  0  0  0  0  0
  -20.2810   43.9020  -16.4590 S   0  0  0  0  0  0  0  0  0  0  0  0
  -20.1820   43.4040  -15.1100 O   0  0  0  0  0  0  0  0  0  0  0  0
  -20.7760   45.2230  -16.7700 O   0  0  0  0  0  0  0  0  0  0  0  0
  -18.6660   43.8280  -17.1120 C   0  0  0  0  0  0  0  0  0  0  0  0
  -17.8190   44.8780  -16.7760 C   0  0  0  0  0  0  0  0  0  0  0  0
  -16.5810   44.9060  -17.2910 N   0  0  0  0  0  0  0  0  0  0  0  0
  -16.1470   43.9550  -18.1300 C   0  0  0  0  0  0  0  0  0  0  0  0
  -16.9920   42.8960  -18.4840 C   0  0  0  0  0  0  0  0  0  0  0  0
  -18.2920   42.7900  -17.9670 C   0  0  0  0  0  0  0  0  0  0  0  0
  -18.6186   39.7159  -17.1123 H   0  0  0  0  0  0  0  0  0  0  0  0
  -19.3994   38.6756  -18.3512 H   0  0  0  0  0  0  0  0  0  0  0  0
  -17.6156   38.8876  -18.3512 H   0  0  0  0  0  0  0  0  0  0  0  0
  -17.7509   40.8015  -19.5497 H   0  0  0  0  0  0  0  0  0  0  0  0
  -19.4714   40.3594  -19.8527 H   0  0  0  0  0  0  0  0  0  0  0  0
  -21.0457   40.8542  -18.0936 H   0  0  0  0  0  0  0  0  0  0  0  0
  -20.1569   41.1651  -16.5615 H   0  0  0  0  0  0  0  0  0  0  0  0
  -21.4920   43.2110  -18.2560 H   0  0  0  0  0  0  0  0  0  0  0  0
  -18.1593   45.6742  -16.0976 H   0  0  0  0  0  0  0  0  0  0  0  0
  -15.9560   45.6780  -17.0430 H   0  0  0  0  0  0  0  0  0  0  0  0
  -15.1276   44.0064  -18.5402 H   0  0  0  0  0  0  0  0  0  0  0  0
  -16.6281   42.1293  -19.1838 H   0  0  0  0  0  0  0  0  0  0  0  0
  1  2  1  0
  2  3  1  0
  3  4  1  0
  4  5  1  0
  5  6  1  0
  6  7  2  0
  6  8  2  0
  6  9  1  0
  9 10  2  0
 10 11  1  0
 11 12  2  0
 12 13  1  0
 13 14  2  0
 14  3  1  0
 14  9  1  0
  1 15  1  0
  1 16  1  0
  1 17  1  0
  2 18  1  0
  2 19  1  0
  4 20  1  0
  4 21  1  0
  5 22  1  0
 10 23  1  0
 11 24  1  0
 12 25  1  0
 13 26  1  0
M  CHG  1  11   1
M  END
>  <meeko>  (5) 
{"is_sidechain": [false], "free_energy": -5.77, "intermolecular_energy": -6.103, "internal_energy": -0.106}

$$$$
4u4s_ligand
     RDKit          3D

 26 27  0  0  0  0  0  0  0  0999 V2000
  -16.5290   46.1320  -18.4850 C   0  0  0  0  0  0  0  0  0  0  0  0
  -17.3740   45.0100  -19.0710 C   0  0  0  0  0  0  0  0  0  0  0  0
  -18.2750   44.4590  -18.0410 N   0  0  0  0  0  0  0  0  0  0  0  0
  -19.0290   45.4680  -17.2970 C   0  0  0  0  0  0  0  0  0  0  0  0
  -19.3250   44.9780  -15.9800 N   0  0  0  0  0  0  0  0  0  0  0  0
  -20.3720   43.6990  -15.9740 S   0  0  0  0  0  0  0  0  0  0  0  0
  -21.6580   44.1050  -16.4880 O   0  0  0  0  0  0  0  0  0  0  0  0
  -20.2180   43.0010  -14.7190 O   0  0  0  0  0  0  0  0  0  0  0  0
  -19.6820   42.6590  -17.1910 C   0  0  0  0  0  0  0  0  0  0  0  0
  -20.1130   41.3370  -17.1850 C   0  0  0  0  0  0  0  0  0  0  0  0
  -19.5790   40.4750  -18.0620 N   0  0  0  0  0  0  0  0  0  0  0  0
  -18.6320   40.8540  -18.9330 C   0  0  0  0  0  0  0  0  0  0  0  0
  -18.1830   42.1780  -18.9440 C   0  0  0  0  0  0  0  0  0  0  0  0
  -18.7110   43.1410  -18.0710 C   0  0  0  0  0  0  0  0  0  0  0  0
  -16.5656   46.0833  -17.3867 H   0  0  0  0  0  0  0  0  0  0  0  0
  -15.4879   46.0215  -18.8224 H   0  0  0  0  0  0  0  0  0  0  0  0
  -16.9227   47.1021  -18.8224 H   0  0  0  0  0  0  0  0  0  0  0  0
  -17.9735   45.4042  -19.9048 H   0  0  0  0  0  0  0  0  0  0  0  0
  -16.7094   44.2108  -19.4309 H   0  0  0  0  0  0  0  0  0  0  0  0
  -18.4306   46.3877  -17.2189 H   0  0  0  0  0  0  0  0  0  0  0  0
  -19.9695   45.6828  -17.8255 H   0  0  0  0  0  0  0  0  0  0  0  0
  -18.5370   44.8860  -15.3460 H   0  0  0  0  0  0  0  0  0  0  0  0
  -20.8807   41.0034  -16.4713 H   0  0  0  0  0  0  0  0  0  0  0  0
  -19.8960   39.5020  -18.0600 H   0  0  0  0  0  0  0  0  0  0  0  0
  -18.2089   40.1235  -19.6383 H   0  0  0  0  0  0  0  0  0  0  0  0
  -17.3964   42.4719  -19.6546 H   0  0  0  0  0  0  0  0  0  0  0  0
  1  2  1  0
  2  3  1  0
  3  4  1  0
  4  5  1  0
  5  6  1  0
  6  7  2  0
  6  8  2  0
  6  9  1  0
  9 10  2  0
 10 11  1  0
 11 12  2  0
 12 13  1  0
 13 14  2  0
 14  3  1  0
 14  9  1  0
  1 15  1  0
  1 16  1  0
  1 17  1  0
  2 18  1  0
  2 19  1  0
  4 20  1  0
  4 21  1  0
  5 22  1  0
 10 23  1  0
 11 24  1  0
 12 25  1  0
 13 26  1  0
M  CHG  1  11   1
M  END
>  <meeko>  (6) 
{"is_sidechain": [false], "free_energy": -5.682, "intermolecular_energy": -6.01, "internal_energy": -0.106}

$$$$
4u4s_ligand
     RDKit          3D

 26 27  0  0  0  0  0  0  0  0999 V2000
  -19.7530   49.7240  -17.8810 C   0  0  0  0  0  0  0  0  0  0  0  0
  -19.6670   48.5880  -18.8890 C   0  0  0  0  0  0  0  0  0  0  0  0
  -19.4550   47.3040  -18.1930 N   0  0  0  0  0  0  0  0  0  0  0  0
  -20.6790   46.5450  -17.9400 C   0  0  0  0  0  0  0  0  0  0  0  0
  -20.5130   45.7330  -16.7680 N   0  0  0  0  0  0  0  0  0  0  0  0
  -19.3990   44.5270  -16.9560 S   0  0  0  0  0  0  0  0  0  0  0  0
  -19.8410   43.5930  -17.9620 O   0  0  0  0  0  0  0  0  0  0  0  0
  -18.9630   44.1120  -15.6430 O   0  0  0  0  0  0  0  0  0  0  0  0
  -18.0540   45.3820  -17.6610 C   0  0  0  0  0  0  0  0  0  0  0  0
  -16.8230   44.7350  -17.6170 C   0  0  0  0  0  0  0  0  0  0  0  0
  -15.7400   45.3640  -18.0940 N   0  0  0  0  0  0  0  0  0  0  0  0
  -15.8120   46.6030  -18.6000 C   0  0  0  0  0  0  0  0  0  0  0  0
  -17.0420   47.2700  -18.6450 C   0  0  0  0  0  0  0  0  0  0  0  0
  -18.2220   46.6660  -18.1830 C   0  0  0  0  0  0  0  0  0  0  0  0
  -19.7219   49.3126  -16.8613 H   0  0  0  0  0  0  0  0  0  0  0  0
  -18.9041   50.4083  -18.0264 H   0  0  0  0  0  0  0  0  0  0  0  0
  -20.6953   50.2727  -18.0264 H   0  0  0  0  0  0  0  0  0  0  0  0
  -20.6042   48.5398  -19.4629 H   0  0  0  0  0  0  0  0  0  0  0  0
  -18.8206   48.7729  -19.5668 H   0  0  0  0  0  0  0  0  0  0  0  0
  -21.5159   47.2421  -17.7860 H   0  0  0  0  0  0  0  0  0  0  0  0
  -20.8906   45.8977  -18.8039 H   0  0  0  0  0  0  0  0  0  0  0  0
  -20.4600   46.2270  -15.8820 H   0  0  0  0  0  0  0  0  0  0  0  0
  -16.7399   43.7218  -17.1968 H   0  0  0  0  0  0  0  0  0  0  0  0
  -14.8340   44.8890  -18.0620 H   0  0  0  0  0  0  0  0  0  0  0  0
  -14.9048   47.0957  -18.9798 H   0  0  0  0  0  0  0  0  0  0  0  0
  -17.0848   48.2911  -19.0518 H   0  0  0  0  0  0  0  0  0  0  0  0
  1  2  1  0
  2  3  1  0
  3  4  1  0
  4  5  1  0
  5  6  1  0
  6  7  2  0
  6  8  2  0
  6  9  1  0
  9 10  2  0
 10 11  1  0
 11 12  2  0
 12 13  1  0
 13 14  2  0
 14  3  1  0
 14  9  1  0
  1 15  1  0
  1 16  1  0
  1 17  1  0
  2 18  1  0
  2 19  1  0
  4 20  1  0
  4 21  1  0
  5 22  1  0
 10 23  1  0
 11 24  1  0
 12 25  1  0
 13 26  1  0
M  CHG  1  11   1
M  END
>  <meeko>  (7) 
{"is_sidechain": [false], "free_energy": -5.665, "intermolecular_energy": -5.991, "internal_energy": -0.107}

$$$$
4u4s_ligand
     RDKit          3D

 26 27  0  0  0  0  0  0  0  0999 V2000
  -18.4560   45.9240  -16.7650 C   0  0  0  0  0  0  0  0  0  0  0  0
  -19.2080   44.8170  -16.0420 C   0  0  0  0  0  0  0  0  0  0  0  0
  -20.4280   44.4570  -16.7900 N   0  0  0  0  0  0  0  0  0  0  0  0
  -21.2960   45.5900  -17.1100 C   0  0  0  0  0  0  0  0  0  0  0  0
  -22.6570   45.1440  -17.2080 N   0  0  0  0  0  0  0  0  0  0  0  0
  -22.9300   44.1370  -18.4890 S   0  0  0  0  0  0  0  0  0  0  0  0
  -22.7070   44.8370  -19.7300 O   0  0  0  0  0  0  0  0  0  0  0  0
  -24.1360   43.3880  -18.2200 O   0  0  0  0  0  0  0  0  0  0  0  0
  -21.6160   43.0000  -18.3430 C   0  0  0  0  0  0  0  0  0  0  0  0
  -21.7510   41.8110  -19.0500 C   0  0  0  0  0  0  0  0  0  0  0  0
  -20.7990   40.8730  -18.9350 N   0  0  0  0  0  0  0  0  0  0  0  0
  -19.7290   41.0510  -18.1470 C   0  0  0  0  0  0  0  0  0  0  0  0
  -19.5840   42.2400  -17.4230 C   0  0  0  0  0  0  0  0  0  0  0  0
  -20.5290   43.2730  -17.5100 C   0  0  0  0  0  0  0  0  0  0  0  0
  -17.9977   46.5986  -16.0268 H   0  0  0  0  0  0  0  0  0  0  0  0
  -17.6703   45.4823  -17.3955 H   0  0  0  0  0  0  0  0  0  0  0  0
  -19.1562   46.4917  -17.3955 H   0  0  0  0  0  0  0  0  0  0  0  0
  -18.5595   43.9326  -15.9572 H   0  0  0  0  0  0  0  0  0  0  0  0
  -19.4926   45.1714  -15.0403 H   0  0  0  0  0  0  0  0  0  0  0  0
  -21.2157   46.3477  -16.3166 H   0  0  0  0  0  0  0  0  0  0  0  0
  -20.9856   46.0269  -18.0706 H   0  0  0  0  0  0  0  0  0  0  0  0
  -23.1010   44.8590  -16.3390 H   0  0  0  0  0  0  0  0  0  0  0  0
  -22.6261   41.6416  -19.6947 H   0  0  0  0  0  0  0  0  0  0  0  0
  -20.8970   39.9980  -19.4560 H   0  0  0  0  0  0  0  0  0  0  0  0
  -18.9655   40.2630  -18.0695 H   0  0  0  0  0  0  0  0  0  0  0  0
  -18.7080   42.3675  -16.7701 H   0  0  0  0  0  0  0  0  0  0  0  0
  1  2  1  0
  2  3  1  0
  3  4  1  0
  4  5  1  0
  5  6  1  0
  6  7  2  0
  6  8  2  0
  6  9  1  0
  9 10  2  0
 10 11  1  0
 11 12  2  0
 12 13  1  0
 13 14  2  0
 14  3  1  0
 14  9  1  0
  1 15  1  0
  1 16  1  0
  1 17  1  0
  2 18  1  0
  2 19  1  0
  4 20  1  0
  4 21  1  0
  5 22  1  0
 10 23  1  0
 11 24  1  0
 12 25  1  0
 13 26  1  0
M  CHG  1  11   1
M  END
>  <meeko>  (8) 
{"is_sidechain": [false], "free_energy": -5.446, "intermolecular_energy": -5.76, "internal_energy": -0.106}

$$$$
4u4s_ligand
     RDKit          3D

 26 27  0  0  0  0  0  0  0  0999 V2000
  -18.9570   40.7670  -20.5670 C   0  0  0  0  0  0  0  0  0  0  0  0
  -20.2970   41.1520  -19.9580 C   0  0  0  0  0  0  0  0  0  0  0  0
  -20.0950   42.0720  -18.8230 N   0  0  0  0  0  0  0  0  0  0  0  0
  -18.6960   42.2590  -18.4390 C   0  0  0  0  0  0  0  0  0  0  0  0
  -18.6160   42.5730  -17.0410 N   0  0  0  0  0  0  0  0  0  0  0  0
  -19.2710   44.0410  -16.6570 S   0  0  0  0  0  0  0  0  0  0  0  0
  -18.5260   45.1010  -17.2920 O   0  0  0  0  0  0  0  0  0  0  0  0
  -19.5770   44.0390  -15.2460 O   0  0  0  0  0  0  0  0  0  0  0  0
  -20.8050   43.9810  -17.4830 C   0  0  0  0  0  0  0  0  0  0  0  0
  -21.7580   44.9090  -17.0770 C   0  0  0  0  0  0  0  0  0  0  0  0
  -22.9770   44.8770  -17.6360 N   0  0  0  0  0  0  0  0  0  0  0  0
  -23.3000   43.9670  -18.5650 C   0  0  0  0  0  0  0  0  0  0  0  0
  -22.3540   43.0220  -18.9780 C   0  0  0  0  0  0  0  0  0  0  0  0
  -21.0530   43.0070  -18.4520 C   0  0  0  0  0  0  0  0  0  0  0  0
  -18.2351   40.5596  -19.7634 H   0  0  0  0  0  0  0  0  0  0  0  0
  -19.0816   39.8683  -21.1890 H   0  0  0  0  0  0  0  0  0  0  0  0
  -18.5855   41.5948  -21.1890 H   0  0  0  0  0  0  0  0  0  0  0  0
  -20.9144   41.6473  -20.7218 H   0  0  0  0  0  0  0  0  0  0  0  0
  -20.8021   40.2435  -19.5982 H   0  0  0  0  0  0  0  0  0  0  0  0
  -18.1352   41.3340  -18.6387 H   0  0  0  0  0  0  0  0  0  0  0  0
  -18.2652   43.0855  -19.0232 H   0  0  0  0  0  0  0  0  0  0  0  0
  -18.8470   41.8220  -16.3960 H   0  0  0  0  0  0  0  0  0  0  0  0
  -21.5157   45.6582  -16.3088 H   0  0  0  0  0  0  0  0  0  0  0  0
  -23.6780   45.5600  -17.3390 H   0  0  0  0  0  0  0  0  0  0  0  0
  -24.3090   43.9627  -19.0031 H   0  0  0  0  0  0  0  0  0  0  0  0
  -22.6368   42.2734  -19.7327 H   0  0  0  0  0  0  0  0  0  0  0  0
  1  2  1  0
  2  3  1  0
  3  4  1  0
  4  5  1  0
  5  6  1  0
  6  7  2  0
  6  8  2  0
  6  9  1  0
  9 10  2  0
 10 11  1  0
 11 12  2  0
 12 13  1  0
 13 14  2  0
 14  3  1  0
 14  9  1  0
  1 15  1  0
  1 16  1  0
  1 17  1  0
  2 18  1  0
  2 19  1  0
  4 20  1  0
  4 21  1  0
  5 22  1  0
 10 23  1  0
 11 24  1  0
 12 25  1  0
 13 26  1  0
M  CHG  1  11   1
M  END
>  <meeko>  (9) 
{"is_sidechain": [false], "free_energy": -5.402, "intermolecular_energy": -5.723, "internal_energy": -0.097}

$$$$
