3udh_ligand
     RDKit          3D

 27 29  0  0  0  0  0  0  0  0999 V2000
   21.9210   35.9500   43.2380 O   0  0  0  0  0  0  0  0  0  0  0  0
   22.9770   36.3090   42.7450 C   0  0  0  0  0  0  0  0  0  0  0  0
   24.1910   36.4790   43.3830 N   0  0  0  0  0  0  0  0  0  0  0  0
   25.1830   36.8420   42.4840 C   0  0  0  0  0  0  0  0  0  0  0  0
   26.5110   37.0780   42.7600 C   0  0  0  0  0  0  0  0  0  0  0  0
   27.3330   37.4280   41.6880 C   0  0  0  0  0  0  0  0  0  0  0  0
   26.8120   37.5300   40.3850 C   0  0  0  0  0  0  0  0  0  0  0  0
   25.4590   37.2840   40.1280 C   0  0  0  0  0  0  0  0  0  0  0  0
   24.6500   36.9360   41.1960 C   0  0  0  0  0  0  0  0  0  0  0  0
   23.1850   36.6190   41.2510 C   0  0  2  0  0  0  0  0  0  0  0  0
   22.2560   37.7290   40.7760 C   0  0  0  0  0  0  0  0  0  0  0  0
   20.9170   37.0410   40.5450 C   0  0  0  0  0  0  0  0  0  0  0  0
   21.2370   35.5860   40.3570 N   0  0  0  0  0  0  0  0  0  0  0  0
   22.7320   35.4160   40.4450 C   0  0  0  0  0  0  0  0  0  0  0  0
   24.3300   36.3400   44.3760 H   0  0  0  0  0  0  0  0  0  0  0  0
   26.9075   36.9942   43.7826 H   0  0  0  0  0  0  0  0  0  0  0  0
   28.4006   37.6264   41.8637 H   0  0  0  0  0  0  0  0  0  0  0  0
   27.4789   37.8075   39.5554 H   0  0  0  0  0  0  0  0  0  0  0  0
   25.0510   37.3645   39.1096 H   0  0  0  0  0  0  0  0  0  0  0  0
   22.1626   38.5115   41.5434 H   0  0  0  0  0  0  0  0  0  0  0  0
   22.6307   38.2251   39.8686 H   0  0  0  0  0  0  0  0  0  0  0  0
   20.2588   37.1799   41.4154 H   0  0  0  0  0  0  0  0  0  0  0  0
   20.3906   37.4576   39.6736 H   0  0  0  0  0  0  0  0  0  0  0  0
   20.8430   35.1970   39.4910 H   0  0  0  0  0  0  0  0  0  0  0  0
   20.8060   35.0690   41.1440 H   0  0  0  0  0  0  0  0  0  0  0  0
   22.9904   34.4791   40.9601 H   0  0  0  0  0  0  0  0  0  0  0  0
   23.2131   35.3594   39.4574 H   0  0  0  0  0  0  0  0  0  0  0  0
  1  2  2  0
  2  3  1  0
  3  4  1  0
  4  5  2  0
  5  6  1  0
  6  7  2  0
  7  8  1  0
  8  9  2  0
  9 10  1  0
 10 11  1  6
 11 12  1  0
 12 13  1  0
 13 14  1  0
 10  2  1  0
  9  4  1  0
 14 10  1  0
  3 15  1  0
  5 16  1  0
  6 17  1  0
  7 18  1  0
  8 19  1  0
 11 20  1  0
 11 21  1  0
 12 22  1  0
 12 23  1  0
 13 24  1  0
 13 25  1  0
 14 26  1  0
 14 27  1  0
M  CHG  1  13   1
M  END
>  <meeko>  (1) 
{"is_sidechain": [false], "free_energy": -7.536, "intermolecular_energy": -7.536, "internal_energy": 0.0}

$$$$
3udh_ligand
     RDKit          3D

 27 29  0  0  0  0  0  0  0  0999 V2000
   25.9570   37.9500   39.8320 O   0  0  0  0  0  0  0  0  0  0  0  0
   25.0020   37.5940   40.5020 C   0  0  0  0  0  0  0  0  0  0  0  0
   23.6610   37.7640   40.2170 N   0  0  0  0  0  0  0  0  0  0  0  0
   22.8630   37.1750   41.1870 C   0  0  0  0  0  0  0  0  0  0  0  0
   21.4870   37.1330   41.2210 C   0  0  0  0  0  0  0  0  0  0  0  0
   20.8960   36.4750   42.3010 C   0  0  0  0  0  0  0  0  0  0  0  0
   21.6860   35.8840   43.3040 C   0  0  0  0  0  0  0  0  0  0  0  0
   23.0830   35.9380   43.2470 C   0  0  0  0  0  0  0  0  0  0  0  0
   23.6630   36.5900   42.1730 C   0  0  0  0  0  0  0  0  0  0  0  0
   25.1040   36.8210   41.8300 C   0  0  2  0  0  0  0  0  0  0  0  0
   25.9080   37.5960   42.8660 C   0  0  0  0  0  0  0  0  0  0  0  0
   27.3640   37.3440   42.4970 C   0  0  0  0  0  0  0  0  0  0  0  0
   27.3600   36.0810   41.6840 N   0  0  0  0  0  0  0  0  0  0  0  0
   25.9420   35.5790   41.5980 C   0  0  0  0  0  0  0  0  0  0  0  0
   23.3150   38.2450   39.3950 H   0  0  0  0  0  0  0  0  0  0  0  0
   20.8794   37.5982   40.4308 H   0  0  0  0  0  0  0  0  0  0  0  0
   19.7996   36.4179   42.3686 H   0  0  0  0  0  0  0  0  0  0  0  0
   21.1978   35.3715   44.1461 H   0  0  0  0  0  0  0  0  0  0  0  0
   23.7009   35.4766   44.0314 H   0  0  0  0  0  0  0  0  0  0  0  0
   25.6752   38.6698   42.8131 H   0  0  0  0  0  0  0  0  0  0  0  0
   25.6788   37.2764   43.8933 H   0  0  0  0  0  0  0  0  0  0  0  0
   27.7607   38.1814   41.9042 H   0  0  0  0  0  0  0  0  0  0  0  0
   28.0008   37.2526   43.3892 H   0  0  0  0  0  0  0  0  0  0  0  0
   28.0120   35.3710   42.0440 H   0  0  0  0  0  0  0  0  0  0  0  0
   27.6770   36.3250   40.7300 H   0  0  0  0  0  0  0  0  0  0  0  0
   25.7382   35.1483   40.6065 H   0  0  0  0  0  0  0  0  0  0  0  0
   25.7287   34.7803   42.3236 H   0  0  0  0  0  0  0  0  0  0  0  0
  1  2  2  0
  2  3  1  0
  3  4  1  0
  4  5  2  0
  5  6  1  0
  6  7  2  0
  7  8  1  0
  8  9  2  0
  9 10  1  0
 10 11  1  1
 11 12  1  0
 12 13  1  0
 13 14  1  0
 10  2  1  0
  9  4  1  0
 14 10  1  0
  3 15  1  0
  5 16  1  0
  6 17  1  0
  7 18  1  0
  8 19  1  0
 11 20  1  0
 11 21  1  0
 12 22  1  0
 12 23  1  0
 13 24  1  0
 13 25  1  0
 14 26  1  0
 14 27  1  0
M  CHG  1  13   1
M  END
>  <meeko>  (2) 
{"is_sidechain": [false], "free_energy": -6.862, "intermolecular_energy": -6.862, "internal_energy": 0.0}

$$$$
3udh_ligand
     RDKit          3D

 27 29  0  0  0  0  0  0  0  0999 V2000
   23.6500   32.9460   42.5010 O   0  0  0  0  0  0  0  0  0  0  0  0
   24.2290   33.9400   42.0950 C   0  0  0  0  0  0  0  0  0  0  0  0
   25.5710   34.0680   41.7890 N   0  0  0  0  0  0  0  0  0  0  0  0
   25.8540   35.3340   41.3000 C   0  0  0  0  0  0  0  0  0  0  0  0
   27.0770   35.8110   40.8810 C   0  0  0  0  0  0  0  0  0  0  0  0
   27.1230   37.1270   40.4190 C   0  0  0  0  0  0  0  0  0  0  0  0
   25.9620   37.9210   40.3880 C   0  0  0  0  0  0  0  0  0  0  0  0
   24.7300   37.4140   40.8180 C   0  0  0  0  0  0  0  0  0  0  0  0
   24.6910   36.1080   41.2730 C   0  0  0  0  0  0  0  0  0  0  0  0
   23.5490   35.2880   41.7960 C   0  0  2  0  0  0  0  0  0  0  0  0
   22.8520   35.8470   43.0290 C   0  0  0  0  0  0  0  0  0  0  0  0
   21.5320   35.0900   43.1050 C   0  0  0  0  0  0  0  0  0  0  0  0
   21.2800   34.5780   41.7160 N   0  0  0  0  0  0  0  0  0  0  0  0
   22.4060   35.0430   40.8290 C   0  0  0  0  0  0  0  0  0  0  0  0
   26.2480   33.3220   41.8970 H   0  0  0  0  0  0  0  0  0  0  0  0
   27.9785   35.1813   40.9095 H   0  0  0  0  0  0  0  0  0  0  0  0
   28.0789   37.5488   40.0748 H   0  0  0  0  0  0  0  0  0  0  0  0
   26.0232   38.9559   40.0203 H   0  0  0  0  0  0  0  0  0  0  0  0
   23.8218   38.0342   40.7949 H   0  0  0  0  0  0  0  0  0  0  0  0
   23.4552   35.6660   43.9309 H   0  0  0  0  0  0  0  0  0  0  0  0
   22.7042   36.9352   42.9655 H   0  0  0  0  0  0  0  0  0  0  0  0
   21.6096   34.2531   43.8146 H   0  0  0  0  0  0  0  0  0  0  0  0
   20.7127   35.7344   43.4563 H   0  0  0  0  0  0  0  0  0  0  0  0
   20.3540   34.8400   41.3530 H   0  0  0  0  0  0  0  0  0  0  0  0
   21.3060   33.5440   41.7570 H   0  0  0  0  0  0  0  0  0  0  0  0
   22.6726   34.2682   40.0951 H   0  0  0  0  0  0  0  0  0  0  0  0
   22.1452   35.9364   40.2426 H   0  0  0  0  0  0  0  0  0  0  0  0
  1  2  2  0
  2  3  1  0
  3  4  1  0
  4  5  2  0
  5  6  1  0
  6  7  2  0
  7  8  1  0
  8  9  2  0
  9 10  1  0
 10 11  1  1
 11 12  1  0
 12 13  1  0
 13 14  1  0
 10  2  1  0
  9  4  1  0
 14 10  1  0
  3 15  1  0
  5 16  1  0
  6 17  1  0
  7 18  1  0
  8 19  1  0
 11 20  1  0
 11 21  1  0
 12 22  1  0
 12 23  1  0
 13 24  1  0
 13 25  1  0
 14 26  1  0
 14 27  1  0
M  CHG  1  13   1
M  END
>  <meeko>  (3) 
{"is_sidechain": [false], "free_energy": -6.853, "intermolecular_energy": -6.853, "internal_energy": 0.0}

$$$$
3udh_ligand
     RDKit          3D

 27 29  0  0  0  0  0  0  0  0999 V2000
   27.2340   35.0180   43.3950 O   0  0  0  0  0  0  0  0  0  0  0  0
   26.1340   35.3950   43.0260 C   0  0  0  0  0  0  0  0  0  0  0  0
   24.9090   35.1110   43.5980 N   0  0  0  0  0  0  0  0  0  0  0  0
   23.8820   35.7640   42.9340 C   0  0  0  0  0  0  0  0  0  0  0  0
   22.5380   35.7260   43.2350 C   0  0  0  0  0  0  0  0  0  0  0  0
   21.6820   36.4750   42.4260 C   0  0  0  0  0  0  0  0  0  0  0  0
   22.1860   37.2310   41.3510 C   0  0  0  0  0  0  0  0  0  0  0  0
   23.5550   37.2550   41.0650 C   0  0  0  0  0  0  0  0  0  0  0  0
   24.3980   36.5130   41.8730 C   0  0  0  0  0  0  0  0  0  0  0  0
   25.8860   36.3290   41.8270 C   0  0  2  0  0  0  0  0  0  0  0  0
   26.4340   35.7370   40.5350 C   0  0  0  0  0  0  0  0  0  0  0  0
   27.9280   36.0300   40.5770 C   0  0  0  0  0  0  0  0  0  0  0  0
   28.0870   37.1820   41.5280 N   0  0  0  0  0  0  0  0  0  0  0  0
   26.7190   37.5820   42.0170 C   0  0  0  0  0  0  0  0  0  0  0  0
   24.7890   34.5120   44.4060 H   0  0  0  0  0  0  0  0  0  0  0  0
   22.1558   35.1306   44.0772 H   0  0  0  0  0  0  0  0  0  0  0  0
   20.6012   36.4744   42.6309 H   0  0  0  0  0  0  0  0  0  0  0  0
   21.4922   37.8122   40.7258 H   0  0  0  0  0  0  0  0  0  0  0  0
   23.9488   37.8451   40.2243 H   0  0  0  0  0  0  0  0  0  0  0  0
   26.2525   34.6527   40.4978 H   0  0  0  0  0  0  0  0  0  0  0  0
   25.9514   36.1652   39.6441 H   0  0  0  0  0  0  0  0  0  0  0  0
   28.4814   35.1520   40.9415 H   0  0  0  0  0  0  0  0  0  0  0  0
   28.3243   36.2684   39.5789 H   0  0  0  0  0  0  0  0  0  0  0  0
   28.6100   37.9680   41.1220 H   0  0  0  0  0  0  0  0  0  0  0  0
   28.6340   36.8420   42.3380 H   0  0  0  0  0  0  0  0  0  0  0  0
   26.7517   37.8738   43.0771 H   0  0  0  0  0  0  0  0  0  0  0  0
   26.3114   38.4496   41.4775 H   0  0  0  0  0  0  0  0  0  0  0  0
  1  2  2  0
  2  3  1  0
  3  4  1  0
  4  5  2  0
  5  6  1  0
  6  7  2  0
  7  8  1  0
  8  9  2  0
  9 10  1  0
 10 11  1  6
 11 12  1  0
 12 13  1  0
 13 14  1  0
 10  2  1  0
  9  4  1  0
 14 10  1  0
  3 15  1  0
  5 16  1  0
  6 17  1  0
  7 18  1  0
  8 19  1  0
 11 20  1  0
 11 21  1  0
 12 22  1  0
 12 23  1  0
 13 24  1  0
 13 25  1  0
 14 26  1  0
 14 27  1  0
M  CHG  1  13   1
M  END
>  <meeko>  (4) 
{"is_sidechain": [false], "free_energy": -6.851, "intermolecular_energy": -6.851, "internal_energy": 0.0}

$$$$
3udh_ligand
     RDKit          3D

 27 29  0  0  0  0  0  0  0  0999 V2000
   19.5730   35.9650   41.1110 O   0  0  0  0  0  0  0  0  0  0  0  0
   20.7520   36.2190   41.2940 C   0  0  0  0  0  0  0  0  0  0  0  0
   21.5710   37.0220   40.5230 N   0  0  0  0  0  0  0  0  0  0  0  0
   22.8390   37.1220   41.0760 C   0  0  0  0  0  0  0  0  0  0  0  0
   23.9050   37.8470   40.5910 C   0  0  0  0  0  0  0  0  0  0  0  0
   25.0920   37.8030   41.3240 C   0  0  0  0  0  0  0  0  0  0  0  0
   25.1800   37.0450   42.5070 C   0  0  0  0  0  0  0  0  0  0  0  0
   24.0840   36.3180   42.9810 C   0  0  0  0  0  0  0  0  0  0  0  0
   22.9090   36.3670   42.2510 C   0  0  0  0  0  0  0  0  0  0  0  0
   21.5830   35.7080   42.4850 C   0  0  2  0  0  0  0  0  0  0  0  0
   21.6070   34.1860   42.5370 C   0  0  0  0  0  0  0  0  0  0  0  0
   20.2790   33.7980   43.1740 C   0  0  0  0  0  0  0  0  0  0  0  0
   19.8220   35.0140   43.9270 N   0  0  0  0  0  0  0  0  0  0  0  0
   20.8660   36.0890   43.7660 C   0  0  0  0  0  0  0  0  0  0  0  0
   21.2700   37.4850   39.6740 H   0  0  0  0  0  0  0  0  0  0  0  0
   23.8243   38.4357   39.6653 H   0  0  0  0  0  0  0  0  0  0  0  0
   25.9688   38.3671   40.9733 H   0  0  0  0  0  0  0  0  0  0  0  0
   26.1263   37.0244   43.0674 H   0  0  0  0  0  0  0  0  0  0  0  0
   24.1532   35.7255   43.9052 H   0  0  0  0  0  0  0  0  0  0  0  0
   21.6887   33.7648   41.5241 H   0  0  0  0  0  0  0  0  0  0  0  0
   22.4677   33.8033   43.1050 H   0  0  0  0  0  0  0  0  0  0  0  0
   19.5460   33.5279   42.3995 H   0  0  0  0  0  0  0  0  0  0  0  0
   20.3843   32.9254   43.8354 H   0  0  0  0  0  0  0  0  0  0  0  0
   19.6020   34.8170   44.9120 H   0  0  0  0  0  0  0  0  0  0  0  0
   18.9470   35.3440   43.4830 H   0  0  0  0  0  0  0  0  0  0  0  0
   20.3972   37.0797   43.6729 H   0  0  0  0  0  0  0  0  0  0  0  0
   21.5443   36.1560   44.6294 H   0  0  0  0  0  0  0  0  0  0  0  0
  1  2  2  0
  2  3  1  0
  3  4  1  0
  4  5  2  0
  5  6  1  0
  6  7  2  0
  7  8  1  0
  8  9  2  0
  9 10  1  0
 10 11  1  6
 11 12  1  0
 12 13  1  0
 13 14  1  0
 10  2  1  0
  9  4  1  0
 14 10  1  0
  3 15  1  0
  5 16  1  0
  6 17  1  0
  7 18  1  0
  8 19  1  0
 11 20  1  0
 11 21  1  0
 12 22  1  0
 12 23  1  0
 13 24  1  0
 13 25  1  0
 14 26  1  0
 14 27  1  0
M  CHG  1  13   1
M  END
>  <meeko>  (5) 
{"is_sidechain": [false], "free_energy": -6.308, "intermolecular_energy": -6.308, "internal_energy": 0.0}

$$$$
3udh_ligand
     RDKit          3D

 27 29  0  0  0  0  0  0  0  0999 V2000
   22.3420   34.5480   40.9830 O   0  0  0  0  0  0  0  0  0  0  0  0
   23.4040   35.1170   41.1750 C   0  0  0  0  0  0  0  0  0  0  0  0
   24.2000   35.7520   40.2410 N   0  0  0  0  0  0  0  0  0  0  0  0
   25.3060   36.3360   40.8410 C   0  0  0  0  0  0  0  0  0  0  0  0
   26.3010   37.0620   40.2250 C   0  0  0  0  0  0  0  0  0  0  0  0
   27.3200   37.5630   41.0370 C   0  0  0  0  0  0  0  0  0  0  0  0
   27.3170   37.3280   42.4240 C   0  0  0  0  0  0  0  0  0  0  0  0
   26.2940   36.5890   43.0280 C   0  0  0  0  0  0  0  0  0  0  0  0
   25.2850   36.0970   42.2180 C   0  0  0  0  0  0  0  0  0  0  0  0
   24.0730   35.2790   42.5510 C   0  0  2  0  0  0  0  0  0  0  0  0
   24.3510   33.9300   43.2000 C   0  0  0  0  0  0  0  0  0  0  0  0
   23.0150   33.5020   43.7940 C   0  0  0  0  0  0  0  0  0  0  0  0
   22.2220   34.7670   43.9550 N   0  0  0  0  0  0  0  0  0  0  0  0
   23.0750   35.9210   43.4960 C   0  0  0  0  0  0  0  0  0  0  0  0
   23.9870   35.7920   39.2520 H   0  0  0  0  0  0  0  0  0  0  0  0
   26.2931   37.2395   39.1394 H   0  0  0  0  0  0  0  0  0  0  0  0
   28.1351   38.1486   40.5869 H   0  0  0  0  0  0  0  0  0  0  0  0
   28.1316   37.7315   43.0433 H   0  0  0  0  0  0  0  0  0  0  0  0
   26.2916   36.4047   44.1125 H   0  0  0  0  0  0  0  0  0  0  0  0
   24.6926   33.2019   42.4496 H   0  0  0  0  0  0  0  0  0  0  0  0
   25.1436   33.9902   43.9604 H   0  0  0  0  0  0  0  0  0  0  0  0
   22.4975   32.8080   43.1153 H   0  0  0  0  0  0  0  0  0  0  0  0
   23.1444   32.9775   44.7522 H   0  0  0  0  0  0  0  0  0  0  0  0
   21.8600   34.8950   44.9090 H   0  0  0  0  0  0  0  0  0  0  0  0
   21.4010   34.7010   43.3270 H   0  0  0  0  0  0  0  0  0  0  0  0
   22.4673   36.6736   42.9722 H   0  0  0  0  0  0  0  0  0  0  0  0
   23.5585   36.4510   44.3299 H   0  0  0  0  0  0  0  0  0  0  0  0
  1  2  2  0
  2  3  1  0
  3  4  1  0
  4  5  2  0
  5  6  1  0
  6  7  2  0
  7  8  1  0
  8  9  2  0
  9 10  1  0
 10 11  1  1
 11 12  1  0
 12 13  1  0
 13 14  1  0
 10  2  1  0
  9  4  1  0
 14 10  1  0
  3 15  1  0
  5 16  1  0
  6 17  1  0
  7 18  1  0
  8 19  1  0
 11 20  1  0
 11 21  1  0
 12 22  1  0
 12 23  1  0
 13 24  1  0
 13 25  1  0
 14 26  1  0
 14 27  1  0
M  CHG  1  13   1
M  END
>  <meeko>  (6) 
{"is_sidechain": [false], "free_energy": -6.208, "intermolecular_energy": -6.208, "internal_energy": 0.0}

$$$$
3udh_ligand
     RDKit          3D

 27 29  0  0  0  0  0  0  0  0999 V2000
   25.9820   34.1670   42.2000 O   0  0  0  0  0  0  0  0  0  0  0  0
   25.0340   34.8320   41.8170 C   0  0  0  0  0  0  0  0  0  0  0  0
   23.7120   34.4420   41.7260 N   0  0  0  0  0  0  0  0  0  0  0  0
   22.9090   35.4890   41.3020 C   0  0  0  0  0  0  0  0  0  0  0  0
   21.5440   35.4700   41.1140 C   0  0  0  0  0  0  0  0  0  0  0  0
   20.9430   36.6530   40.6850 C   0  0  0  0  0  0  0  0  0  0  0  0
   21.7110   37.8100   40.4560 C   0  0  0  0  0  0  0  0  0  0  0  0
   23.0960   37.8060   40.6540 C   0  0  0  0  0  0  0  0  0  0  0  0
   23.6860   36.6300   41.0830 C   0  0  0  0  0  0  0  0  0  0  0  0
   25.1200   36.3050   41.3770 C   0  0  2  0  0  0  0  0  0  0  0  0
   26.0850   36.4860   40.2130 C   0  0  0  0  0  0  0  0  0  0  0  0
   27.4670   36.4970   40.8530 C   0  0  0  0  0  0  0  0  0  0  0  0
   27.2430   36.8680   42.2910 N   0  0  0  0  0  0  0  0  0  0  0  0
   25.7680   37.1000   42.4940 C   0  0  0  0  0  0  0  0  0  0  0  0
   23.3810   33.5130   41.9570 H   0  0  0  0  0  0  0  0  0  0  0  0
   20.9532   34.5599   41.2947 H   0  0  0  0  0  0  0  0  0  0  0  0
   19.8553   36.6822   40.5236 H   0  0  0  0  0  0  0  0  0  0  0  0
   21.2149   38.7311   40.1163 H   0  0  0  0  0  0  0  0  0  0  0  0
   23.6972   38.7095   40.4743 H   0  0  0  0  0  0  0  0  0  0  0  0
   25.9942   35.6525   39.5009 H   0  0  0  0  0  0  0  0  0  0  0  0
   25.8828   37.4058   39.6446 H   0  0  0  0  0  0  0  0  0  0  0  0
   27.9315   35.5025   40.7809 H   0  0  0  0  0  0  0  0  0  0  0  0
   28.1427   37.2047   40.3505 H   0  0  0  0  0  0  0  0  0  0  0  0
   27.8170   37.6660   42.5930 H   0  0  0  0  0  0  0  0  0  0  0  0
   27.5260   36.0570   42.8690 H   0  0  0  0  0  0  0  0  0  0  0  0
   25.4446   36.7290   43.4777 H   0  0  0  0  0  0  0  0  0  0  0  0
   25.4976   38.1660   42.4698 H   0  0  0  0  0  0  0  0  0  0  0  0
  1  2  2  0
  2  3  1  0
  3  4  1  0
  4  5  2  0
  5  6  1  0
  6  7  2  0
  7  8  1  0
  8  9  2  0
  9 10  1  0
 10 11  1  6
 11 12  1  0
 12 13  1  0
 13 14  1  0
 10  2  1  0
  9  4  1  0
 14 10  1  0
  3 15  1  0
  5 16  1  0
  6 17  1  0
  7 18  1  0
  8 19  1  0
 11 20  1  0
 11 21  1  0
 12 22  1  0
 12 23  1  0
 13 24  1  0
 13 25  1  0
 14 26  1  0
 14 27  1  0
M  CHG  1  13   1
M  END
>  <meeko>  (7) 
{"is_sidechain": [false], "free_energy": -6.156, "intermolecular_energy": -6.156, "internal_energy": 0.0}

$$$$
3udh_ligand
     RDKit          3D

 27 29  0  0  0  0  0  0  0  0999 V2000
   21.0260   33.8770   42.6920 O   0  0  0  0  0  0  0  0  0  0  0  0
   21.9200   34.6640   42.4280 C   0  0  0  0  0  0  0  0  0  0  0  0
   21.9110   35.6610   41.4710 N   0  0  0  0  0  0  0  0  0  0  0  0
   23.0880   36.3940   41.5020 C   0  0  0  0  0  0  0  0  0  0  0  0
   23.4200   37.4680   40.7060 C   0  0  0  0  0  0  0  0  0  0  0  0
   24.6670   38.0580   40.9200 C   0  0  0  0  0  0  0  0  0  0  0  0
   25.5360   37.5650   41.9110 C   0  0  0  0  0  0  0  0  0  0  0  0
   25.1760   36.4730   42.7080 C   0  0  0  0  0  0  0  0  0  0  0  0
   23.9370   35.8950   42.4920 C   0  0  0  0  0  0  0  0  0  0  0  0
   23.2710   34.7310   43.1630 C   0  0  2  0  0  0  0  0  0  0  0  0
   24.0200   33.4070   43.0750 C   0  0  0  0  0  0  0  0  0  0  0  0
   23.3770   32.5260   44.1390 C   0  0  0  0  0  0  0  0  0  0  0  0
   22.7270   33.4730   45.1070 N   0  0  0  0  0  0  0  0  0  0  0  0
   23.0020   34.8810   44.6480 C   0  0  0  0  0  0  0  0  0  0  0  0
   21.1350   35.8340   40.8440 H   0  0  0  0  0  0  0  0  0  0  0  0
   22.7320   37.8447   39.9347 H   0  0  0  0  0  0  0  0  0  0  0  0
   24.9738   38.9182   40.3069 H   0  0  0  0  0  0  0  0  0  0  0  0
   26.5138   38.0459   42.0614 H   0  0  0  0  0  0  0  0  0  0  0  0
   25.8558   36.0862   43.4815 H   0  0  0  0  0  0  0  0  0  0  0  0
   23.9006   32.9596   42.0772 H   0  0  0  0  0  0  0  0  0  0  0  0
   25.1014   33.5297   43.2348 H   0  0  0  0  0  0  0  0  0  0  0  0
   22.6248   31.8634   43.6860 H   0  0  0  0  0  0  0  0  0  0  0  0
   24.1167   31.8803   44.6350 H   0  0  0  0  0  0  0  0  0  0  0  0
   23.0140   33.3090   46.0810 H   0  0  0  0  0  0  0  0  0  0  0  0
   21.7060   33.3100   45.0620 H   0  0  0  0  0  0  0  0  0  0  0  0
   22.1304   35.5282   44.8250 H   0  0  0  0  0  0  0  0  0  0  0  0
   23.8392   35.3484   45.1870 H   0  0  0  0  0  0  0  0  0  0  0  0
  1  2  2  0
  2  3  1  0
  3  4  1  0
  4  5  2  0
  5  6  1  0
  6  7  2  0
  7  8  1  0
  8  9  2  0
  9 10  1  0
 10 11  1  1
 11 12  1  0
 12 13  1  0
 13 14  1  0
 10  2  1  0
  9  4  1  0
 14 10  1  0
  3 15  1  0
  5 16  1  0
  6 17  1  0
  7 18  1  0
  8 19  1  0
 11 20  1  0
 11 21  1  0
 12 22  1  0
 12 23  1  0
 13 24  1  0
 13 25  1  0
 14 26  1  0
 14 27  1  0
M  CHG  1  13   1
M  END
>  <meeko>  (8) 
{"is_sidechain": [false], "free_energy": -5.993, "intermolecular_energy": -5.993, "internal_energy": 0.0}

$$$$
3udh_ligand
     RDKit          3D

 27 29  0  0  0  0  0  0  0  0999 V2000
   25.6900   34.7790   43.5990 O   0  0  0  0  0  0  0  0  0  0  0  0
   24.8040   35.3810   43.0160 C   0  0  0  0  0  0  0  0  0  0  0  0
   24.9410   36.4240   42.1210 N   0  0  0  0  0  0  0  0  0  0  0  0
   23.7110   36.8170   41.6170 C   0  0  0  0  0  0  0  0  0  0  0  0
   23.4670   37.8120   40.6950 C   0  0  0  0  0  0  0  0  0  0  0  0
   22.1380   38.0290   40.3280 C   0  0  0  0  0  0  0  0  0  0  0  0
   21.1010   37.2570   40.8860 C   0  0  0  0  0  0  0  0  0  0  0  0
   21.3740   36.2510   41.8200 C   0  0  0  0  0  0  0  0  0  0  0  0
   22.6940   36.0390   42.1770 C   0  0  0  0  0  0  0  0  0  0  0  0
   23.3030   35.0610   43.1370 C   0  0  2  0  0  0  0  0  0  0  0  0
   22.8230   35.1700   44.5780 C   0  0  0  0  0  0  0  0  0  0  0  0
   23.2520   33.8620   45.2300 C   0  0  0  0  0  0  0  0  0  0  0  0
   23.4370   32.8900   44.1010 N   0  0  0  0  0  0  0  0  0  0  0  0
   23.0990   33.5940   42.8120 C   0  0  0  0  0  0  0  0  0  0  0  0
   25.8310   36.8330   41.8620 H   0  0  0  0  0  0  0  0  0  0  0  0
   24.2850   38.4097   40.2666 H   0  0  0  0  0  0  0  0  0  0  0  0
   21.8978   38.8124   39.5941 H   0  0  0  0  0  0  0  0  0  0  0  0
   20.0607   37.4474   40.5833 H   0  0  0  0  0  0  0  0  0  0  0  0
   20.5645   35.6477   42.2567 H   0  0  0  0  0  0  0  0  0  0  0  0
   23.2957   36.0269   45.0803 H   0  0  0  0  0  0  0  0  0  0  0  0
   21.7367   35.3302   44.6432 H   0  0  0  0  0  0  0  0  0  0  0  0
   24.1958   33.9978   45.7784 H   0  0  0  0  0  0  0  0  0  0  0  0
   22.5066   33.5054   45.9561 H   0  0  0  0  0  0  0  0  0  0  0  0
   22.9060   32.0190   44.2300 H   0  0  0  0  0  0  0  0  0  0  0  0
   24.4390   32.6310   44.0750 H   0  0  0  0  0  0  0  0  0  0  0  0
   23.7722   33.2746   42.0028 H   0  0  0  0  0  0  0  0  0  0  0  0
   22.0799   33.3736   42.4614 H   0  0  0  0  0  0  0  0  0  0  0  0
  1  2  2  0
  2  3  1  0
  3  4  1  0
  4  5  2  0
  5  6  1  0
  6  7  2  0
  7  8  1  0
  8  9  2  0
  9 10  1  0
 10 11  1  1
 11 12  1  0
 12 13  1  0
 13 14  1  0
 10  2  1  0
  9  4  1  0
 14 10  1  0
  3 15  1  0
  5 16  1  0
  6 17  1  0
  7 18  1  0
  8 19  1  0
 11 20  1  0
 11 21  1  0
 12 22  1  0
 12 23  1  0
 13 24  1  0
 13 25  1  0
 14 26  1  0
 14 27  1  0
M  CHG  1  13   1
M  END
>  <meeko>  (9) 
{"is_sidechain": [false], "free_energy": -5.825, "intermolecular_energy": -5.825, "internal_energy": 0.0}

$$$$
