3uo4_ligand
     RDKit          3D

 46 49  0  0  0  0  0  0  0  0999 V2000
    0.2610   34.0890    1.4310 O   0  0  0  0  0  0  0  0  0  0  0  0
    1.4770   33.7810    1.6360 C   0  0  0  0  0  0  0  0  0  0  0  0
    2.3880   33.7160    0.7500 O   0  0  0  0  0  0  0  0  0  0  0  0
    1.8810   33.4640    3.0640 C   0  0  0  0  0  0  0  0  0  0  0  0
    3.1290   32.8960    3.3570 C   0  0  0  0  0  0  0  0  0  0  0  0
    3.5010   32.6020    4.6770 C   0  0  0  0  0  0  0  0  0  0  0  0
    2.6420   32.8630    5.7470 C   0  0  0  0  0  0  0  0  0  0  0  0
    2.9520   32.5980    7.0860 N   0  0  0  0  0  0  0  0  0  0  0  0
    3.5330   31.5280    7.7570 C   0  0  0  0  0  0  0  0  0  0  0  0
    3.4800   31.4040    9.0900 N   0  0  0  0  0  0  0  0  0  0  0  0
    4.0760   30.3340    9.6340 C   0  0  0  0  0  0  0  0  0  0  0  0
    4.7320   29.3830    8.8970 C   0  0  0  0  0  0  0  0  0  0  0  0
    4.7520   29.5750    7.5310 C   0  0  0  0  0  0  0  0  0  0  0  0
    5.4200   28.6030    6.7450 N   0  0  0  0  0  0  0  0  0  0  0  0
    6.4220   28.8150    5.7600 C   0  0  0  0  0  0  0  0  0  0  0  0
    6.1170   29.4630    4.5500 C   0  0  0  0  0  0  0  0  0  0  0  0
    7.0770   29.6230    3.5480 C   0  0  0  0  0  0  0  0  0  0  0  0
    8.3600   29.1200    3.7290 C   0  0  0  0  0  0  0  0  0  0  0  0
    8.6800   28.4500    4.9080 C   0  0  0  0  0  0  0  0  0  0  0  0
    7.7250   28.2810    5.9300 C   0  0  0  0  0  0  0  0  0  0  0  0
    8.1240   27.5690    7.1540 C   0  0  0  0  0  0  0  0  0  0  0  0
    8.1010   28.2160    8.3980 C   0  0  0  0  0  0  0  0  0  0  0  0
    8.4970   27.5440    9.5570 C   0  0  0  0  0  0  0  0  0  0  0  0
    8.9190   26.2180    9.4840 C   0  0  0  0  0  0  0  0  0  0  0  0
    8.9460   25.5620    8.2550 C   0  0  0  0  0  0  0  0  0  0  0  0
    8.5490   26.2330    7.0980 C   0  0  0  0  0  0  0  0  0  0  0  0
    4.1500   30.6350    6.9650 N   0  0  0  0  0  0  0  0  0  0  0  0
    1.3940   33.4350    5.4510 C   0  0  0  0  0  0  0  0  0  0  0  0
    1.0190   33.7300    4.1340 C   0  0  0  0  0  0  0  0  0  0  0  0
    3.8288   32.6771    2.5370 H   0  0  0  0  0  0  0  0  0  0  0  0
    4.4879   32.1575    4.8733 H   0  0  0  0  0  0  0  0  0  0  0  0
    2.6770   33.2990    7.7570 H   0  0  0  0  0  0  0  0  0  0  0  0
    4.0367   30.2131   10.7266 H   0  0  0  0  0  0  0  0  0  0  0  0
    5.2157   28.5148    9.3684 H   0  0  0  0  0  0  0  0  0  0  0  0
    5.6340   27.7960    7.3230 H   0  0  0  0  0  0  0  0  0  0  0  0
    5.1008   29.8522    4.3890 H   0  0  0  0  0  0  0  0  0  0  0  0
    6.8177   30.1468    2.6161 H   0  0  0  0  0  0  0  0  0  0  0  0
    9.1199   29.2504    2.9444 H   0  0  0  0  0  0  0  0  0  0  0  0
    9.6944   28.0466    5.0430 H   0  0  0  0  0  0  0  0  0  0  0  0
    7.7680   29.2625    8.4618 H   0  0  0  0  0  0  0  0  0  0  0  0
    8.4757   28.0617   10.5273 H   0  0  0  0  0  0  0  0  0  0  0  0
    9.2308   25.6891   10.3967 H   0  0  0  0  0  0  0  0  0  0  0  0
    9.2802   24.5156    8.1970 H   0  0  0  0  0  0  0  0  0  0  0  0
    8.5694   25.7088    6.1311 H   0  0  0  0  0  0  0  0  0  0  0  0
    0.6956   33.6563    6.2715 H   0  0  0  0  0  0  0  0  0  0  0  0
    0.0332   34.1770    3.9380 H   0  0  0  0  0  0  0  0  0  0  0  0
  1  2  2  0
  2  3  1  0
  2  4  1  0
  4  5  2  0
  5  6  1  0
  6  7  2  0
  7  8  1  0
  8  9  1  0
  9 10  2  0
 10 11  1  0
 11 12  2  0
 12 13  1  0
 13 14  1  0
 14 15  1  0
 15 16  2  0
 16 17  1  0
 17 18  2  0
 18 19  1  0
 19 20  2  0
 20 21  1  0
 21 22  2  0
 22 23  1  0
 23 24  2  0
 24 25  1  0
 25 26  2  0
 13 27  2  0
  7 28  1  0
 28 29  2  0
 29  4  1  0
 27  9  1  0
 20 15  1  0
 26 21  1  0
  5 30  1  0
  6 31  1  0
  8 32  1  0
 11 33  1  0
 12 34  1  0
 14 35  1  0
 16 36  1  0
 17 37  1  0
 18 38  1  0
 19 39  1  0
 22 40  1  0
 23 41  1  0
 24 42  1  0
 25 43  1  0
 26 44  1  0
 28 45  1  0
 29 46  1  0
M  CHG  1   3  -1
M  END
>  <meeko>  (1) 
{"is_sidechain": [false], "free_energy": -10.251, "intermolecular_energy": -13.847, "internal_energy": -0.731}

$$$$
3uo4_ligand
     RDKit          3D

 46 49  0  0  0  0  0  0  0  0999 V2000
    8.7420   25.3580   11.0780 O   0  0  0  0  0  0  0  0  0  0  0  0
    8.9930   26.4950   10.5670 C   0  0  0  0  0  0  0  0  0  0  0  0
    9.4480   27.5070   11.1900 O   0  0  0  0  0  0  0  0  0  0  0  0
    8.7280   26.6620    9.0820 C   0  0  0  0  0  0  0  0  0  0  0  0
    9.1570   25.7020    8.1550 C   0  0  0  0  0  0  0  0  0  0  0  0
    8.9130   25.8570    6.7830 C   0  0  0  0  0  0  0  0  0  0  0  0
    8.2340   26.9740    6.2900 C   0  0  0  0  0  0  0  0  0  0  0  0
    7.9540   27.1890    4.9350 N   0  0  0  0  0  0  0  0  0  0  0  0
    7.1000   28.0380    4.2400 C   0  0  0  0  0  0  0  0  0  0  0  0
    7.3420   28.4230    2.9810 N   0  0  0  0  0  0  0  0  0  0  0  0
    6.4530   29.2450    2.4060 C   0  0  0  0  0  0  0  0  0  0  0  0
    5.3320   29.7050    3.0450 C   0  0  0  0  0  0  0  0  0  0  0  0
    5.1460   29.2720    4.3410 C   0  0  0  0  0  0  0  0  0  0  0  0
    3.9910   29.7290    5.0230 N   0  0  0  0  0  0  0  0  0  0  0  0
    3.9150   30.3200    6.3130 C   0  0  0  0  0  0  0  0  0  0  0  0
    4.3590   29.6250    7.4510 C   0  0  0  0  0  0  0  0  0  0  0  0
    4.2340   30.1700    8.7320 C   0  0  0  0  0  0  0  0  0  0  0  0
    3.6430   31.4160    8.9020 C   0  0  0  0  0  0  0  0  0  0  0  0
    3.1710   32.1140    7.7920 C   0  0  0  0  0  0  0  0  0  0  0  0
    3.2900   31.5810    6.4930 C   0  0  0  0  0  0  0  0  0  0  0  0
    2.7760   32.3670    5.3610 C   0  0  0  0  0  0  0  0  0  0  0  0
    1.5360   33.0150    5.4420 C   0  0  0  0  0  0  0  0  0  0  0  0
    1.0420   33.7470    4.3600 C   0  0  0  0  0  0  0  0  0  0  0  0
    1.7830   33.8370    3.1840 C   0  0  0  0  0  0  0  0  0  0  0  0
    3.0190   33.2000    3.0880 C   0  0  0  0  0  0  0  0  0  0  0  0
    3.5130   32.4700    4.1700 C   0  0  0  0  0  0  0  0  0  0  0  0
    6.0200   28.4390    4.9320 N   0  0  0  0  0  0  0  0  0  0  0  0
    7.8020   27.9320    7.2200 C   0  0  0  0  0  0  0  0  0  0  0  0
    8.0440   27.7810    8.5920 C   0  0  0  0  0  0  0  0  0  0  0  0
    9.6949   24.8108    8.5104 H   0  0  0  0  0  0  0  0  0  0  0  0
    9.2626   25.0849    6.0819 H   0  0  0  0  0  0  0  0  0  0  0  0
    8.4320   26.5910    4.2790 H   0  0  0  0  0  0  0  0  0  0  0  0
    6.6325   29.5662    1.3694 H   0  0  0  0  0  0  0  0  0  0  0  0
    4.6195   30.3824    2.5516 H   0  0  0  0  0  0  0  0  0  0  0  0
    3.3790   30.1990    4.3640 H   0  0  0  0  0  0  0  0  0  0  0  0
    4.8146   28.6310    7.3310 H   0  0  0  0  0  0  0  0  0  0  0  0
    4.6034   29.6126    9.6054 H   0  0  0  0  0  0  0  0  0  0  0  0
    3.5481   31.8496    9.9085 H   0  0  0  0  0  0  0  0  0  0  0  0
    2.6978   33.0971    7.9322 H   0  0  0  0  0  0  0  0  0  0  0  0
    0.9456   32.9464    6.3676 H   0  0  0  0  0  0  0  0  0  0  0  0
    0.0680   34.2523    4.4365 H   0  0  0  0  0  0  0  0  0  0  0  0
    1.3926   34.4110    2.3307 H   0  0  0  0  0  0  0  0  0  0  0  0
    3.6048   33.2726    2.1598 H   0  0  0  0  0  0  0  0  0  0  0  0
    4.4896   31.9702    4.0891 H   0  0  0  0  0  0  0  0  0  0  0  0
    7.2613   28.8214    6.8641 H   0  0  0  0  0  0  0  0  0  0  0  0
    7.6919   28.5519    9.2933 H   0  0  0  0  0  0  0  0  0  0  0  0
  1  2  2  0
  2  3  1  0
  2  4  1  0
  4  5  2  0
  5  6  1  0
  6  7  2  0
  7  8  1  0
  8  9  1  0
  9 10  2  0
 10 11  1  0
 11 12  2  0
 12 13  1  0
 13 14  1  0
 14 15  1  0
 15 16  2  0
 16 17  1  0
 17 18  2  0
 18 19  1  0
 19 20  2  0
 20 21  1  0
 21 22  2  0
 22 23  1  0
 23 24  2  0
 24 25  1  0
 25 26  2  0
 13 27  2  0
  7 28  1  0
 28 29  2  0
 29  4  1  0
 27  9  1  0
 20 15  1  0
 26 21  1  0
  5 30  1  0
  6 31  1  0
  8 32  1  0
 11 33  1  0
 12 34  1  0
 14 35  1  0
 16 36  1  0
 17 37  1  0
 18 38  1  0
 19 39  1  0
 22 40  1  0
 23 41  1  0
 24 42  1  0
 25 43  1  0
 26 44  1  0
 28 45  1  0
 29 46  1  0
M  CHG  1   3  -1
M  END
>  <meeko>  (2) 
{"is_sidechain": [false], "free_energy": -10.244, "intermolecular_energy": -14.3, "internal_energy": -0.267}

$$$$
3uo4_ligand
     RDKit          3D

 46 49  0  0  0  0  0  0  0  0999 V2000
    0.1700   34.2600    1.3930 O   0  0  0  0  0  0  0  0  0  0  0  0
    0.9630   33.2810    1.5680 C   0  0  0  0  0  0  0  0  0  0  0  0
    1.2720   32.4080    0.6950 O   0  0  0  0  0  0  0  0  0  0  0  0
    1.5980   33.1400    2.9390 C   0  0  0  0  0  0  0  0  0  0  0  0
    2.8570   32.5440    3.0980 C   0  0  0  0  0  0  0  0  0  0  0  0
    3.4440   32.4130    4.3660 C   0  0  0  0  0  0  0  0  0  0  0  0
    2.7940   32.8700    5.5140 C   0  0  0  0  0  0  0  0  0  0  0  0
    3.3230   32.7730    6.8070 N   0  0  0  0  0  0  0  0  0  0  0  0
    3.7130   31.7170    7.6230 C   0  0  0  0  0  0  0  0  0  0  0  0
    3.5330   31.7320    8.9500 N   0  0  0  0  0  0  0  0  0  0  0  0
    3.9480   30.6620    9.6410 C   0  0  0  0  0  0  0  0  0  0  0  0
    4.5460   29.5760    9.0580 C   0  0  0  0  0  0  0  0  0  0  0  0
    4.7040   29.6280    7.6880 C   0  0  0  0  0  0  0  0  0  0  0  0
    5.3160   28.5150    7.0590 N   0  0  0  0  0  0  0  0  0  0  0  0
    6.6980   28.1900    7.0100 C   0  0  0  0  0  0  0  0  0  0  0  0
    7.4230   27.9440    8.1890 C   0  0  0  0  0  0  0  0  0  0  0  0
    8.7950   27.6840    8.1590 C   0  0  0  0  0  0  0  0  0  0  0  0
    9.4760   27.6840    6.9480 C   0  0  0  0  0  0  0  0  0  0  0  0
    8.7850   27.9500    5.7670 C   0  0  0  0  0  0  0  0  0  0  0  0
    7.4010   28.2130    5.7780 C   0  0  0  0  0  0  0  0  0  0  0  0
    6.7270   28.4820    4.4990 C   0  0  0  0  0  0  0  0  0  0  0  0
    6.3450   27.4290    3.6550 C   0  0  0  0  0  0  0  0  0  0  0  0
    5.7200   27.6880    2.4320 C   0  0  0  0  0  0  0  0  0  0  0  0
    5.4710   29.0020    2.0410 C   0  0  0  0  0  0  0  0  0  0  0  0
    5.8430   30.0580    2.8710 C   0  0  0  0  0  0  0  0  0  0  0  0
    6.4660   29.8000    4.0920 C   0  0  0  0  0  0  0  0  0  0  0  0
    4.2840   30.6870    6.9760 N   0  0  0  0  0  0  0  0  0  0  0  0
    1.5350   33.4690    5.3520 C   0  0  0  0  0  0  0  0  0  0  0  0
    0.9460   33.6010    4.0880 C   0  0  0  0  0  0  0  0  0  0  0  0
    3.3943   32.1724    2.2130 H   0  0  0  0  0  0  0  0  0  0  0  0
    4.4338   31.9419    4.4570 H   0  0  0  0  0  0  0  0  0  0  0  0
    3.4300   33.6390    7.3130 H   0  0  0  0  0  0  0  0  0  0  0  0
    3.8013   30.6550   10.7311 H   0  0  0  0  0  0  0  0  0  0  0  0
    4.8815   28.7109    9.6489 H   0  0  0  0  0  0  0  0  0  0  0  0
    4.7460   27.6890    7.2160 H   0  0  0  0  0  0  0  0  0  0  0  0
    6.8986   27.9565    9.1559 H   0  0  0  0  0  0  0  0  0  0  0  0
    9.3364   27.4792    9.0944 H   0  0  0  0  0  0  0  0  0  0  0  0
   10.5556   27.4750    6.9213 H   0  0  0  0  0  0  0  0  0  0  0  0
    9.3291   27.9546    4.8110 H   0  0  0  0  0  0  0  0  0  0  0  0
    6.5391   26.3896    3.9584 H   0  0  0  0  0  0  0  0  0  0  0  0
    5.4246   26.8543    1.7780 H   0  0  0  0  0  0  0  0  0  0  0  0
    4.9810   29.2058    1.0775 H   0  0  0  0  0  0  0  0  0  0  0  0
    5.6452   31.0953    2.5631 H   0  0  0  0  0  0  0  0  0  0  0  0
    6.7559   30.6381    4.7429 H   0  0  0  0  0  0  0  0  0  0  0  0
    0.9992   33.8429    6.2369 H   0  0  0  0  0  0  0  0  0  0  0  0
   -0.0431   34.0738    3.9974 H   0  0  0  0  0  0  0  0  0  0  0  0
  1  2  2  0
  2  3  1  0
  2  4  1  0
  4  5  2  0
  5  6  1  0
  6  7  2  0
  7  8  1  0
  8  9  1  0
  9 10  2  0
 10 11  1  0
 11 12  2  0
 12 13  1  0
 13 14  1  0
 14 15  1  0
 15 16  2  0
 16 17  1  0
 17 18  2  0
 18 19  1  0
 19 20  2  0
 20 21  1  0
 21 22  2  0
 22 23  1  0
 23 24  2  0
 24 25  1  0
 25 26  2  0
 13 27  2  0
  7 28  1  0
 28 29  2  0
 29  4  1  0
 27  9  1  0
 20 15  1  0
 26 21  1  0
  5 30  1  0
  6 31  1  0
  8 32  1  0
 11 33  1  0
 12 34  1  0
 14 35  1  0
 16 36  1  0
 17 37  1  0
 18 38  1  0
 19 39  1  0
 22 40  1  0
 23 41  1  0
 24 42  1  0
 25 43  1  0
 26 44  1  0
 28 45  1  0
 29 46  1  0
M  CHG  1   3  -1
M  END
>  <meeko>  (3) 
{"is_sidechain": [false], "free_energy": -10.176, "intermolecular_energy": -13.198, "internal_energy": -1.277}

$$$$
3uo4_ligand
     RDKit          3D

 46 49  0  0  0  0  0  0  0  0999 V2000
    8.7860   25.3820   11.0880 O   0  0  0  0  0  0  0  0  0  0  0  0
    9.0290   26.5210   10.5780 C   0  0  0  0  0  0  0  0  0  0  0  0
    9.5480   27.5130   11.1840 O   0  0  0  0  0  0  0  0  0  0  0  0
    8.6700   26.7170    9.1170 C   0  0  0  0  0  0  0  0  0  0  0  0
    7.8710   27.7920    8.7030 C   0  0  0  0  0  0  0  0  0  0  0  0
    7.5380   27.9720    7.3520 C   0  0  0  0  0  0  0  0  0  0  0  0
    7.9910   27.0870    6.3710 C   0  0  0  0  0  0  0  0  0  0  0  0
    7.6990   27.2100    5.0070 N   0  0  0  0  0  0  0  0  0  0  0  0
    6.7320   27.8910    4.2760 C   0  0  0  0  0  0  0  0  0  0  0  0
    6.1060   27.3400    3.2280 N   0  0  0  0  0  0  0  0  0  0  0  0
    5.1920   28.0860    2.5930 C   0  0  0  0  0  0  0  0  0  0  0  0
    4.8830   29.3690    2.9600 C   0  0  0  0  0  0  0  0  0  0  0  0
    5.5680   29.8760    4.0450 C   0  0  0  0  0  0  0  0  0  0  0  0
    5.2630   31.2010    4.4490 N   0  0  0  0  0  0  0  0  0  0  0  0
    4.0050   31.8590    4.4030 C   0  0  0  0  0  0  0  0  0  0  0  0
    3.5780   32.5160    3.2360 C   0  0  0  0  0  0  0  0  0  0  0  0
    2.3710   33.2190    3.1970 C   0  0  0  0  0  0  0  0  0  0  0  0
    1.5740   33.2950    4.3320 C   0  0  0  0  0  0  0  0  0  0  0  0
    1.9870   32.6740    5.5090 C   0  0  0  0  0  0  0  0  0  0  0  0
    3.2000   31.9600    5.5670 C   0  0  0  0  0  0  0  0  0  0  0  0
    3.5810   31.3210    6.8370 C   0  0  0  0  0  0  0  0  0  0  0  0
    3.9560   29.9710    6.8750 C   0  0  0  0  0  0  0  0  0  0  0  0
    4.3000   29.3620    8.0840 C   0  0  0  0  0  0  0  0  0  0  0  0
    4.2720   30.0970    9.2680 C   0  0  0  0  0  0  0  0  0  0  0  0
    3.9030   31.4410    9.2450 C   0  0  0  0  0  0  0  0  0  0  0  0
    3.5610   32.0490    8.0370 C   0  0  0  0  0  0  0  0  0  0  0  0
    6.4800   29.1400    4.7030 N   0  0  0  0  0  0  0  0  0  0  0  0
    8.7940   26.0130    6.7880 C   0  0  0  0  0  0  0  0  0  0  0  0
    9.1270   25.8300    8.1360 C   0  0  0  0  0  0  0  0  0  0  0  0
    7.4984   28.5073    9.4510 H   0  0  0  0  0  0  0  0  0  0  0  0
    6.9087   28.8257    7.0601 H   0  0  0  0  0  0  0  0  0  0  0  0
    8.2730   26.6720    4.3760 H   0  0  0  0  0  0  0  0  0  0  0  0
    4.6635   27.6463    1.7343 H   0  0  0  0  0  0  0  0  0  0  0  0
    4.1305   29.9621    2.4197 H   0  0  0  0  0  0  0  0  0  0  0  0
    5.7590   31.4090    5.3100 H   0  0  0  0  0  0  0  0  0  0  0  0
    4.2072   32.4759    2.3346 H   0  0  0  0  0  0  0  0  0  0  0  0
    2.0519   33.7124    2.2671 H   0  0  0  0  0  0  0  0  0  0  0  0
    0.6208   33.8431    4.3018 H   0  0  0  0  0  0  0  0  0  0  0  0
    1.3558   32.7424    6.4073 H   0  0  0  0  0  0  0  0  0  0  0  0
    3.9796   29.3857    5.9440 H   0  0  0  0  0  0  0  0  0  0  0  0
    4.5931   28.3019    8.1018 H   0  0  0  0  0  0  0  0  0  0  0  0
    4.5410   29.6166   10.2203 H   0  0  0  0  0  0  0  0  0  0  0  0
    3.8815   32.0218   10.1789 H   0  0  0  0  0  0  0  0  0  0  0  0
    3.2725   33.1104    8.0247 H   0  0  0  0  0  0  0  0  0  0  0  0
    9.1697   25.2998    6.0395 H   0  0  0  0  0  0  0  0  0  0  0  0
    9.7569   24.9767    8.4278 H   0  0  0  0  0  0  0  0  0  0  0  0
  1  2  2  0
  2  3  1  0
  2  4  1  0
  4  5  2  0
  5  6  1  0
  6  7  2  0
  7  8  1  0
  8  9  1  0
  9 10  2  0
 10 11  1  0
 11 12  2  0
 12 13  1  0
 13 14  1  0
 14 15  1  0
 15 16  2  0
 16 17  1  0
 17 18  2  0
 18 19  1  0
 19 20  2  0
 20 21  1  0
 21 22  2  0
 22 23  1  0
 23 24  2  0
 24 25  1  0
 25 26  2  0
 13 27  2  0
  7 28  1  0
 28 29  2  0
 29  4  1  0
 27  9  1  0
 20 15  1  0
 26 21  1  0
  5 30  1  0
  6 31  1  0
  8 32  1  0
 11 33  1  0
 12 34  1  0
 14 35  1  0
 16 36  1  0
 17 37  1  0
 18 38  1  0
 19 39  1  0
 22 40  1  0
 23 41  1  0
 24 42  1  0
 25 43  1  0
 26 44  1  0
 28 45  1  0
 29 46  1  0
M  CHG  1   3  -1
M  END
>  <meeko>  (4) 
{"is_sidechain": [false], "free_energy": -10.058, "intermolecular_energy": -13.755, "internal_energy": -0.562}

$$$$
3uo4_ligand
     RDKit          3D

 46 49  0  0  0  0  0  0  0  0999 V2000
    9.3080   26.8730    9.5480 O   0  0  0  0  0  0  0  0  0  0  0  0
    9.3610   26.1580    8.4980 C   0  0  0  0  0  0  0  0  0  0  0  0
    9.5130   24.8960    8.4640 O   0  0  0  0  0  0  0  0  0  0  0  0
    9.2290   26.8730    7.1660 C   0  0  0  0  0  0  0  0  0  0  0  0
    9.6930   28.1850    6.9950 C   0  0  0  0  0  0  0  0  0  0  0  0
    9.5700   28.8450    5.7650 C   0  0  0  0  0  0  0  0  0  0  0  0
    8.9800   28.2210    4.6640 C   0  0  0  0  0  0  0  0  0  0  0  0
    8.8290   28.8200    3.4070 N   0  0  0  0  0  0  0  0  0  0  0  0
    7.7390   29.2560    2.6620 C   0  0  0  0  0  0  0  0  0  0  0  0
    7.8410   29.5790    1.3660 N   0  0  0  0  0  0  0  0  0  0  0  0
    6.7280   29.9890    0.7430 C   0  0  0  0  0  0  0  0  0  0  0  0
    5.5140   30.0990    1.3680 C   0  0  0  0  0  0  0  0  0  0  0  0
    5.4810   29.7540    2.7040 C   0  0  0  0  0  0  0  0  0  0  0  0
    4.2350   29.8530    3.3730 N   0  0  0  0  0  0  0  0  0  0  0  0
    3.5940   31.0260    3.8550 C   0  0  0  0  0  0  0  0  0  0  0  0
    3.0090   31.9450    2.9670 C   0  0  0  0  0  0  0  0  0  0  0  0
    2.4300   33.1320    3.4240 C   0  0  0  0  0  0  0  0  0  0  0  0
    2.4410   33.4330    4.7800 C   0  0  0  0  0  0  0  0  0  0  0  0
    3.0380   32.5500    5.6790 C   0  0  0  0  0  0  0  0  0  0  0  0
    3.6250   31.3490    5.2370 C   0  0  0  0  0  0  0  0  0  0  0  0
    4.2350   30.4560    6.2340 C   0  0  0  0  0  0  0  0  0  0  0  0
    3.6490   30.2850    7.4960 C   0  0  0  0  0  0  0  0  0  0  0  0
    4.2390   29.4500    8.4480 C   0  0  0  0  0  0  0  0  0  0  0  0
    5.4220   28.7770    8.1470 C   0  0  0  0  0  0  0  0  0  0  0  0
    6.0140   28.9350    6.8950 C   0  0  0  0  0  0  0  0  0  0  0  0
    5.4240   29.7680    5.9450 C   0  0  0  0  0  0  0  0  0  0  0  0
    6.5840   29.3290    3.3440 N   0  0  0  0  0  0  0  0  0  0  0  0
    8.5190   26.9060    4.8350 C   0  0  0  0  0  0  0  0  0  0  0  0
    8.6390   26.2430    6.0630 C   0  0  0  0  0  0  0  0  0  0  0  0
   10.1625   28.7061    7.8424 H   0  0  0  0  0  0  0  0  0  0  0  0
    9.9453   29.8741    5.6649 H   0  0  0  0  0  0  0  0  0  0  0  0
    9.6720   28.9540    2.8710 H   0  0  0  0  0  0  0  0  0  0  0  0
    6.7922   30.2503   -0.3236 H   0  0  0  0  0  0  0  0  0  0  0  0
    4.6155   30.4431    0.8348 H   0  0  0  0  0  0  0  0  0  0  0  0
    3.5710   29.2210    2.9370 H   0  0  0  0  0  0  0  0  0  0  0  0
    3.0068   31.7253    1.8892 H   0  0  0  0  0  0  0  0  0  0  0  0
    1.9656   33.8279    2.7099 H   0  0  0  0  0  0  0  0  0  0  0  0
    1.9808   34.3638    5.1430 H   0  0  0  0  0  0  0  0  0  0  0  0
    3.0506   32.7958    6.7511 H   0  0  0  0  0  0  0  0  0  0  0  0
    2.7154   30.8135    7.7390 H   0  0  0  0  0  0  0  0  0  0  0  0
    3.7701   29.3236    9.4350 H   0  0  0  0  0  0  0  0  0  0  0  0
    5.8882   28.1214    8.8973 H   0  0  0  0  0  0  0  0  0  0  0  0
    6.9465   28.4026    6.6564 H   0  0  0  0  0  0  0  0  0  0  0  0
    5.8954   29.8873    4.9583 H   0  0  0  0  0  0  0  0  0  0  0  0
    8.0532   26.3847    3.9857 H   0  0  0  0  0  0  0  0  0  0  0  0
    8.2647   25.2134    6.1625 H   0  0  0  0  0  0  0  0  0  0  0  0
  1  2  2  0
  2  3  1  0
  2  4  1  0
  4  5  2  0
  5  6  1  0
  6  7  2  0
  7  8  1  0
  8  9  1  0
  9 10  2  0
 10 11  1  0
 11 12  2  0
 12 13  1  0
 13 14  1  0
 14 15  1  0
 15 16  2  0
 16 17  1  0
 17 18  2  0
 18 19  1  0
 19 20  2  0
 20 21  1  0
 21 22  2  0
 22 23  1  0
 23 24  2  0
 24 25  1  0
 25 26  2  0
 13 27  2  0
  7 28  1  0
 28 29  2  0
 29  4  1  0
 27  9  1  0
 20 15  1  0
 26 21  1  0
  5 30  1  0
  6 31  1  0
  8 32  1  0
 11 33  1  0
 12 34  1  0
 14 35  1  0
 16 36  1  0
 17 37  1  0
 18 38  1  0
 19 39  1  0
 22 40  1  0
 23 41  1  0
 24 42  1  0
 25 43  1  0
 26 44  1  0
 28 45  1  0
 29 46  1  0
M  CHG  1   3  -1
M  END
>  <meeko>  (5) 
{"is_sidechain": [false], "free_energy": -9.799, "intermolecular_energy": -13.4, "internal_energy": -0.567}

$$$$
3uo4_ligand
     RDKit          3D

 46 49  0  0  0  0  0  0  0  0999 V2000
   13.5430   24.6490    2.5200 O   0  0  0  0  0  0  0  0  0  0  0  0
   13.4760   25.8650    2.1550 C   0  0  0  0  0  0  0  0  0  0  0  0
   14.4680   26.6310    1.9350 O   0  0  0  0  0  0  0  0  0  0  0  0
   12.0920   26.4560    1.9620 C   0  0  0  0  0  0  0  0  0  0  0  0
   11.0460   26.1610    2.8470 C   0  0  0  0  0  0  0  0  0  0  0  0
    9.7670   26.7070    2.6680 C   0  0  0  0  0  0  0  0  0  0  0  0
    9.4880   27.5640    1.6010 C   0  0  0  0  0  0  0  0  0  0  0  0
    8.2360   28.1450    1.3660 N   0  0  0  0  0  0  0  0  0  0  0  0
    7.0510   28.2280    2.0880 C   0  0  0  0  0  0  0  0  0  0  0  0
    5.9610   27.5230    1.7580 N   0  0  0  0  0  0  0  0  0  0  0  0
    4.8710   27.6800    2.5210 C   0  0  0  0  0  0  0  0  0  0  0  0
    4.8230   28.5220    3.6000 C   0  0  0  0  0  0  0  0  0  0  0  0
    5.9800   29.2200    3.8820 C   0  0  0  0  0  0  0  0  0  0  0  0
    5.9590   30.0950    4.9970 N   0  0  0  0  0  0  0  0  0  0  0  0
    5.3380   29.8860    6.2580 C   0  0  0  0  0  0  0  0  0  0  0  0
    4.2040   30.6250    6.6340 C   0  0  0  0  0  0  0  0  0  0  0  0
    3.6210   30.4740    7.8950 C   0  0  0  0  0  0  0  0  0  0  0  0
    4.1750   29.5910    8.8140 C   0  0  0  0  0  0  0  0  0  0  0  0
    5.3150   28.8660    8.4750 C   0  0  0  0  0  0  0  0  0  0  0  0
    5.9150   29.0040    7.2090 C   0  0  0  0  0  0  0  0  0  0  0  0
    7.1150   28.2080    6.9080 C   0  0  0  0  0  0  0  0  0  0  0  0
    7.0040   26.8670    6.5130 C   0  0  0  0  0  0  0  0  0  0  0  0
    8.1450   26.1070    6.2440 C   0  0  0  0  0  0  0  0  0  0  0  0
    9.4090   26.6810    6.3680 C   0  0  0  0  0  0  0  0  0  0  0  0
    9.5350   28.0130    6.7570 C   0  0  0  0  0  0  0  0  0  0  0  0
    8.3950   28.7720    7.0240 C   0  0  0  0  0  0  0  0  0  0  0  0
    7.0870   29.0690    3.1350 N   0  0  0  0  0  0  0  0  0  0  0  0
   10.5380   27.8610    0.7180 C   0  0  0  0  0  0  0  0  0  0  0  0
   11.8170   27.3170    0.8930 C   0  0  0  0  0  0  0  0  0  0  0  0
   11.2319   25.4888    3.6976 H   0  0  0  0  0  0  0  0  0  0  0  0
    8.9683   26.4557    3.3814 H   0  0  0  0  0  0  0  0  0  0  0  0
    8.1080   28.5840    0.4680 H   0  0  0  0  0  0  0  0  0  0  0  0
    3.9690   27.1035    2.2680 H   0  0  0  0  0  0  0  0  0  0  0  0
    3.9133   28.6357    4.2079 H   0  0  0  0  0  0  0  0  0  0  0  0
    6.8720   30.5260    5.1000 H   0  0  0  0  0  0  0  0  0  0  0  0
    3.7654   31.3380    5.9203 H   0  0  0  0  0  0  0  0  0  0  0  0
    2.7244   31.0536    8.1599 H   0  0  0  0  0  0  0  0  0  0  0  0
    3.7150   29.4651    9.8053 H   0  0  0  0  0  0  0  0  0  0  0  0
    5.7538   28.1740    9.2089 H   0  0  0  0  0  0  0  0  0  0  0  0
    6.0088   26.4090    6.4140 H   0  0  0  0  0  0  0  0  0  0  0  0
    8.0458   25.0561    5.9345 H   0  0  0  0  0  0  0  0  0  0  0  0
   10.3076   26.0821    6.1586 H   0  0  0  0  0  0  0  0  0  0  0  0
   10.5327   28.4660    6.8536 H   0  0  0  0  0  0  0  0  0  0  0  0
    8.5006   29.8237    7.3287 H   0  0  0  0  0  0  0  0  0  0  0  0
   10.3523   28.5361   -0.1304 H   0  0  0  0  0  0  0  0  0  0  0  0
   12.6162   27.5698    0.1807 H   0  0  0  0  0  0  0  0  0  0  0  0
  1  2  2  0
  2  3  1  0
  2  4  1  0
  4  5  2  0
  5  6  1  0
  6  7  2  0
  7  8  1  0
  8  9  1  0
  9 10  2  0
 10 11  1  0
 11 12  2  0
 12 13  1  0
 13 14  1  0
 14 15  1  0
 15 16  2  0
 16 17  1  0
 17 18  2  0
 18 19  1  0
 19 20  2  0
 20 21  1  0
 21 22  2  0
 22 23  1  0
 23 24  2  0
 24 25  1  0
 25 26  2  0
 13 27  2  0
  7 28  1  0
 28 29  2  0
 29  4  1  0
 27  9  1  0
 20 15  1  0
 26 21  1  0
  5 30  1  0
  6 31  1  0
  8 32  1  0
 11 33  1  0
 12 34  1  0
 14 35  1  0
 16 36  1  0
 17 37  1  0
 18 38  1  0
 19 39  1  0
 22 40  1  0
 23 41  1  0
 24 42  1  0
 25 43  1  0
 26 44  1  0
 28 45  1  0
 29 46  1  0
M  CHG  1   3  -1
M  END
>  <meeko>  (6) 
{"is_sidechain": [false], "free_energy": -9.782, "intermolecular_energy": -12.249, "internal_energy": -1.695}

$$$$
3uo4_ligand
     RDKit          3D

 46 49  0  0  0  0  0  0  0  0999 V2000
    4.0660   30.5650    9.2880 O   0  0  0  0  0  0  0  0  0  0  0  0
    3.5620   31.2460    8.3400 C   0  0  0  0  0  0  0  0  0  0  0  0
    2.8310   32.2790    8.4720 O   0  0  0  0  0  0  0  0  0  0  0  0
    3.8580   30.7880    6.9240 C   0  0  0  0  0  0  0  0  0  0  0  0
    4.6600   29.6650    6.6760 C   0  0  0  0  0  0  0  0  0  0  0  0
    4.9340   29.2420    5.3680 C   0  0  0  0  0  0  0  0  0  0  0  0
    4.4190   29.9250    4.2640 C   0  0  0  0  0  0  0  0  0  0  0  0
    4.6510   29.5560    2.9330 N   0  0  0  0  0  0  0  0  0  0  0  0
    5.6700   29.7990    2.0190 C   0  0  0  0  0  0  0  0  0  0  0  0
    5.4300   30.2610    0.7850 N   0  0  0  0  0  0  0  0  0  0  0  0
    6.4860   30.4580   -0.0160 C   0  0  0  0  0  0  0  0  0  0  0  0
    7.7770   30.2030    0.3660 C   0  0  0  0  0  0  0  0  0  0  0  0
    7.9520   29.7260    1.6480 C   0  0  0  0  0  0  0  0  0  0  0  0
    9.2790   29.4590    2.0700 N   0  0  0  0  0  0  0  0  0  0  0  0
   10.0370   28.2730    1.8700 C   0  0  0  0  0  0  0  0  0  0  0  0
   10.5860   27.9720    0.6120 C   0  0  0  0  0  0  0  0  0  0  0  0
   11.2810   26.7810    0.3880 C   0  0  0  0  0  0  0  0  0  0  0  0
   11.4240   25.8560    1.4140 C   0  0  0  0  0  0  0  0  0  0  0  0
   10.8650   26.1190    2.6640 C   0  0  0  0  0  0  0  0  0  0  0  0
   10.1630   27.3150    2.9090 C   0  0  0  0  0  0  0  0  0  0  0  0
    9.6000   27.5380    4.2500 C   0  0  0  0  0  0  0  0  0  0  0  0
   10.2830   28.3200    5.1930 C   0  0  0  0  0  0  0  0  0  0  0  0
    9.7560   28.5160    6.4710 C   0  0  0  0  0  0  0  0  0  0  0  0
    8.5400   27.9320    6.8200 C   0  0  0  0  0  0  0  0  0  0  0  0
    7.8490   27.1540    5.8930 C   0  0  0  0  0  0  0  0  0  0  0  0
    8.3750   26.9590    4.6160 C   0  0  0  0  0  0  0  0  0  0  0  0
    6.9070   29.5320    2.4710 N   0  0  0  0  0  0  0  0  0  0  0  0
    3.6140   31.0480    4.5140 C   0  0  0  0  0  0  0  0  0  0  0  0
    3.3380   31.4730    5.8200 C   0  0  0  0  0  0  0  0  0  0  0  0
    5.0821   29.1054    7.5238 H   0  0  0  0  0  0  0  0  0  0  0  0
    5.5661   28.3561    5.2082 H   0  0  0  0  0  0  0  0  0  0  0  0
    3.9240   29.0210    2.4840 H   0  0  0  0  0  0  0  0  0  0  0  0
    6.3076   30.8436   -1.0306 H   0  0  0  0  0  0  0  0  0  0  0  0
    8.6267   30.3696   -0.3124 H   0  0  0  0  0  0  0  0  0  0  0  0
    9.8460   30.2890    1.9310 H   0  0  0  0  0  0  0  0  0  0  0  0
   10.4660   28.6890   -0.2135 H   0  0  0  0  0  0  0  0  0  0  0  0
   11.7152   26.5758   -0.6016 H   0  0  0  0  0  0  0  0  0  0  0  0
   11.9757   24.9202    1.2413 H   0  0  0  0  0  0  0  0  0  0  0  0
   10.9741   25.3804    3.4718 H   0  0  0  0  0  0  0  0  0  0  0  0
   11.2434   28.7835    4.9230 H   0  0  0  0  0  0  0  0  0  0  0  0
   10.3007   29.1313    7.2022 H   0  0  0  0  0  0  0  0  0  0  0  0
    8.1254   28.0851    7.8273 H   0  0  0  0  0  0  0  0  0  0  0  0
    6.8887   26.6937    6.1684 H   0  0  0  0  0  0  0  0  0  0  0  0
    7.8241   26.3451    3.8883 H   0  0  0  0  0  0  0  0  0  0  0  0
    3.1909   31.6062    3.6658 H   0  0  0  0  0  0  0  0  0  0  0  0
    2.7038   32.3574    5.9799 H   0  0  0  0  0  0  0  0  0  0  0  0
  1  2  2  0
  2  3  1  0
  2  4  1  0
  4  5  2  0
  5  6  1  0
  6  7  2  0
  7  8  1  0
  8  9  1  0
  9 10  2  0
 10 11  1  0
 11 12  2  0
 12 13  1  0
 13 14  1  0
 14 15  1  0
 15 16  2  0
 16 17  1  0
 17 18  2  0
 18 19  1  0
 19 20  2  0
 20 21  1  0
 21 22  2  0
 22 23  1  0
 23 24  2  0
 24 25  1  0
 25 26  2  0
 13 27  2  0
  7 28  1  0
 28 29  2  0
 29  4  1  0
 27  9  1  0
 20 15  1  0
 26 21  1  0
  5 30  1  0
  6 31  1  0
  8 32  1  0
 11 33  1  0
 12 34  1  0
 14 35  1  0
 16 36  1  0
 17 37  1  0
 18 38  1  0
 19 39  1  0
 22 40  1  0
 23 41  1  0
 24 42  1  0
 25 43  1  0
 26 44  1  0
 28 45  1  0
 29 46  1  0
M  CHG  1   3  -1
M  END
>  <meeko>  (7) 
{"is_sidechain": [false], "free_energy": -9.722, "intermolecular_energy": -12.264, "internal_energy": -1.598}

$$$$
3uo4_ligand
     RDKit          3D

 46 49  0  0  0  0  0  0  0  0999 V2000
    9.4960   29.0880   -0.5150 O   0  0  0  0  0  0  0  0  0  0  0  0
   10.2740   28.2010   -0.0410 C   0  0  0  0  0  0  0  0  0  0  0  0
   11.2650   27.6810   -0.6460 O   0  0  0  0  0  0  0  0  0  0  0  0
    9.9970   27.7190    1.3710 C   0  0  0  0  0  0  0  0  0  0  0  0
   10.9000   27.9680    2.4140 C   0  0  0  0  0  0  0  0  0  0  0  0
   10.6450   27.5210    3.7180 C   0  0  0  0  0  0  0  0  0  0  0  0
    9.4820   26.8100    4.0250 C   0  0  0  0  0  0  0  0  0  0  0  0
    9.1650   26.3380    5.3050 N   0  0  0  0  0  0  0  0  0  0  0  0
    8.6660   26.9250    6.4620 C   0  0  0  0  0  0  0  0  0  0  0  0
    9.4400   27.1890    7.5230 N   0  0  0  0  0  0  0  0  0  0  0  0
    8.8560   27.7550    8.5870 C   0  0  0  0  0  0  0  0  0  0  0  0
    7.5220   28.0610    8.6390 C   0  0  0  0  0  0  0  0  0  0  0  0
    6.7820   27.7590    7.5140 C   0  0  0  0  0  0  0  0  0  0  0  0
    5.3990   28.0700    7.5390 N   0  0  0  0  0  0  0  0  0  0  0  0
    4.7950   29.3480    7.6860 C   0  0  0  0  0  0  0  0  0  0  0  0
    4.2790   29.7630    8.9260 C   0  0  0  0  0  0  0  0  0  0  0  0
    3.6280   30.9910    9.0690 C   0  0  0  0  0  0  0  0  0  0  0  0
    3.4640   31.8230    7.9680 C   0  0  0  0  0  0  0  0  0  0  0  0
    3.9440   31.4230    6.7230 C   0  0  0  0  0  0  0  0  0  0  0  0
    4.6040   30.1890    6.5600 C   0  0  0  0  0  0  0  0  0  0  0  0
    5.0920   29.8250    5.2210 C   0  0  0  0  0  0  0  0  0  0  0  0
    4.2590   29.1570    4.3110 C   0  0  0  0  0  0  0  0  0  0  0  0
    4.7300   28.7960    3.0470 C   0  0  0  0  0  0  0  0  0  0  0  0
    6.0400   29.0980    2.6790 C   0  0  0  0  0  0  0  0  0  0  0  0
    6.8790   29.7630    3.5720 C   0  0  0  0  0  0  0  0  0  0  0  0
    6.4080   30.1240    4.8340 C   0  0  0  0  0  0  0  0  0  0  0  0
    7.3510   27.2020    6.4320 N   0  0  0  0  0  0  0  0  0  0  0  0
    8.5780   26.5640    2.9800 C   0  0  0  0  0  0  0  0  0  0  0  0
    8.8300   27.0080    1.6760 C   0  0  0  0  0  0  0  0  0  0  0  0
   11.8257   28.5244    2.2054 H   0  0  0  0  0  0  0  0  0  0  0  0
   11.3737   27.7339    4.5140 H   0  0  0  0  0  0  0  0  0  0  0  0
    9.3580   25.3650    5.4840 H   0  0  0  0  0  0  0  0  0  0  0  0
    9.4792   27.9858    9.4635 H   0  0  0  0  0  0  0  0  0  0  0  0
    7.0660   28.5217    9.5277 H   0  0  0  0  0  0  0  0  0  0  0  0
    4.9190   27.5110    6.8420 H   0  0  0  0  0  0  0  0  0  0  0  0
    4.3901   29.1072    9.8021 H   0  0  0  0  0  0  0  0  0  0  0  0
    3.2453   31.2992   10.0531 H   0  0  0  0  0  0  0  0  0  0  0  0
    2.9574   32.7931    8.0792 H   0  0  0  0  0  0  0  0  0  0  0  0
    3.8055   32.0814    5.8528 H   0  0  0  0  0  0  0  0  0  0  0  0
    3.2245   28.9152    4.5961 H   0  0  0  0  0  0  0  0  0  0  0  0
    4.0672   28.2733    2.3417 H   0  0  0  0  0  0  0  0  0  0  0  0
    6.4118   28.8117    1.6841 H   0  0  0  0  0  0  0  0  0  0  0  0
    7.9124   30.0029    3.2812 H   0  0  0  0  0  0  0  0  0  0  0  0
    7.0749   30.6488    5.5339 H   0  0  0  0  0  0  0  0  0  0  0  0
    7.6510   26.0102    3.1899 H   0  0  0  0  0  0  0  0  0  0  0  0
    8.1010   26.7952    0.8802 H   0  0  0  0  0  0  0  0  0  0  0  0
  1  2  2  0
  2  3  1  0
  2  4  1  0
  4  5  2  0
  5  6  1  0
  6  7  2  0
  7  8  1  0
  8  9  1  0
  9 10  2  0
 10 11  1  0
 11 12  2  0
 12 13  1  0
 13 14  1  0
 14 15  1  0
 15 16  2  0
 16 17  1  0
 17 18  2  0
 18 19  1  0
 19 20  2  0
 20 21  1  0
 21 22  2  0
 22 23  1  0
 23 24  2  0
 24 25  1  0
 25 26  2  0
 13 27  2  0
  7 28  1  0
 28 29  2  0
 29  4  1  0
 27  9  1  0
 20 15  1  0
 26 21  1  0
  5 30  1  0
  6 31  1  0
  8 32  1  0
 11 33  1  0
 12 34  1  0
 14 35  1  0
 16 36  1  0
 17 37  1  0
 18 38  1  0
 19 39  1  0
 22 40  1  0
 23 41  1  0
 24 42  1  0
 25 43  1  0
 26 44  1  0
 28 45  1  0
 29 46  1  0
M  CHG  1   3  -1
M  END
>  <meeko>  (8) 
{"is_sidechain": [false], "free_energy": -9.611, "intermolecular_energy": -11.876, "internal_energy": -1.837}

$$$$
3uo4_ligand
     RDKit          3D

 46 49  0  0  0  0  0  0  0  0999 V2000
   14.2350   27.2640    1.1480 O   0  0  0  0  0  0  0  0  0  0  0  0
   13.2710   26.6450    1.7000 C   0  0  0  0  0  0  0  0  0  0  0  0
   13.3660   25.5720    2.3760 O   0  0  0  0  0  0  0  0  0  0  0  0
   11.8840   27.2380    1.5380 C   0  0  0  0  0  0  0  0  0  0  0  0
   11.3660   27.5410    0.2710 C   0  0  0  0  0  0  0  0  0  0  0  0
   10.0840   28.0900    0.1220 C   0  0  0  0  0  0  0  0  0  0  0  0
    9.2770   28.3550    1.2310 C   0  0  0  0  0  0  0  0  0  0  0  0
    7.9890   28.8990    1.1530 N   0  0  0  0  0  0  0  0  0  0  0  0
    6.8280   28.7610    1.9050 C   0  0  0  0  0  0  0  0  0  0  0  0
    6.0250   27.6950    1.7950 N   0  0  0  0  0  0  0  0  0  0  0  0
    4.9300   27.6650    2.5660 C   0  0  0  0  0  0  0  0  0  0  0  0
    4.6000   28.6650    3.4410 C   0  0  0  0  0  0  0  0  0  0  0  0
    5.4680   29.7360    3.5020 C   0  0  0  0  0  0  0  0  0  0  0  0
    5.1520   30.7830    4.4040 N   0  0  0  0  0  0  0  0  0  0  0  0
    3.9770   31.5810    4.4370 C   0  0  0  0  0  0  0  0  0  0  0  0
    3.5400   32.2690    3.2920 C   0  0  0  0  0  0  0  0  0  0  0  0
    2.4220   33.1060    3.3270 C   0  0  0  0  0  0  0  0  0  0  0  0
    1.7280   33.2870    4.5160 C   0  0  0  0  0  0  0  0  0  0  0  0
    2.1560   32.6370    5.6720 C   0  0  0  0  0  0  0  0  0  0  0  0
    3.2800   31.7880    5.6550 C   0  0  0  0  0  0  0  0  0  0  0  0
    3.6800   31.1260    6.9070 C   0  0  0  0  0  0  0  0  0  0  0  0
    3.3870   31.7060    8.1500 C   0  0  0  0  0  0  0  0  0  0  0  0
    3.7830   31.0850    9.3360 C   0  0  0  0  0  0  0  0  0  0  0  0
    4.4770   29.8770    9.2920 C   0  0  0  0  0  0  0  0  0  0  0  0
    4.7740   29.2890    8.0640 C   0  0  0  0  0  0  0  0  0  0  0  0
    4.3770   29.9090    6.8800 C   0  0  0  0  0  0  0  0  0  0  0  0
    6.5770   29.7790    2.7450 N   0  0  0  0  0  0  0  0  0  0  0  0
    9.7960   28.0480    2.4980 C   0  0  0  0  0  0  0  0  0  0  0  0
   11.0760   27.5000    2.6510 C   0  0  0  0  0  0  0  0  0  0  0  0
   11.9763   27.3445   -0.6228 H   0  0  0  0  0  0  0  0  0  0  0  0
    9.7072   28.3160   -0.8864 H   0  0  0  0  0  0  0  0  0  0  0  0
    7.8060   29.5050    0.3690 H   0  0  0  0  0  0  0  0  0  0  0  0
    4.2627   26.7936    2.4925 H   0  0  0  0  0  0  0  0  0  0  0  0
    3.6928   28.6173    4.0613 H   0  0  0  0  0  0  0  0  0  0  0  0
    5.4460   30.5170    5.3390 H   0  0  0  0  0  0  0  0  0  0  0  0
    4.0903   32.1457    2.3476 H   0  0  0  0  0  0  0  0  0  0  0  0
    2.0916   33.6214    2.4131 H   0  0  0  0  0  0  0  0  0  0  0  0
    0.8439   33.9409    4.5453 H   0  0  0  0  0  0  0  0  0  0  0  0
    1.6072   32.7894    6.6131 H   0  0  0  0  0  0  0  0  0  0  0  0
    2.8399   32.6594    8.1908 H   0  0  0  0  0  0  0  0  0  0  0  0
    3.5473   31.5490   10.3051 H   0  0  0  0  0  0  0  0  0  0  0  0
    4.7901   29.3880   10.2263 H   0  0  0  0  0  0  0  0  0  0  0  0
    5.3217   28.3357    8.0288 H   0  0  0  0  0  0  0  0  0  0  0  0
    4.6130   29.4386    5.9140 H   0  0  0  0  0  0  0  0  0  0  0  0
    9.1839   28.2420    3.3912 H   0  0  0  0  0  0  0  0  0  0  0  0
   11.4516   27.2724    3.6595 H   0  0  0  0  0  0  0  0  0  0  0  0
  1  2  2  0
  2  3  1  0
  2  4  1  0
  4  5  2  0
  5  6  1  0
  6  7  2  0
  7  8  1  0
  8  9  1  0
  9 10  2  0
 10 11  1  0
 11 12  2  0
 12 13  1  0
 13 14  1  0
 14 15  1  0
 15 16  2  0
 16 17  1  0
 17 18  2  0
 18 19  1  0
 19 20  2  0
 20 21  1  0
 21 22  2  0
 22 23  1  0
 23 24  2  0
 24 25  1  0
 25 26  2  0
 13 27  2  0
  7 28  1  0
 28 29  2  0
 29  4  1  0
 27  9  1  0
 20 15  1  0
 26 21  1  0
  5 30  1  0
  6 31  1  0
  8 32  1  0
 11 33  1  0
 12 34  1  0
 14 35  1  0
 16 36  1  0
 17 37  1  0
 18 38  1  0
 19 39  1  0
 22 40  1  0
 23 41  1  0
 24 42  1  0
 25 43  1  0
 26 44  1  0
 28 45  1  0
 29 46  1  0
M  CHG  1   3  -1
M  END
>  <meeko>  (9) 
{"is_sidechain": [false], "free_energy": -9.453, "intermolecular_energy": -13.088, "internal_energy": -0.411}

$$$$
