2c3i_ligand
     RDKit          3D

 41 44  0  0  0  0  0  0  0  0999 V2000
   25.6560   55.5500   -4.4200 C   0  0  0  0  0  0  0  0  0  0  0  0
   25.5830   54.0540   -4.5780 C   0  0  0  0  0  0  0  0  0  0  0  0
   24.8410   53.5410   -5.4140 O   0  0  0  0  0  0  0  0  0  0  0  0
   26.4320   53.1920   -3.7030 C   0  0  0  0  0  0  0  0  0  0  0  0
   27.1930   52.1340   -4.2130 C   0  0  0  0  0  0  0  0  0  0  0  0
   27.9680   51.3570   -3.3520 C   0  0  0  0  0  0  0  0  0  0  0  0
   27.9880   51.6310   -1.9830 C   0  0  0  0  0  0  0  0  0  0  0  0
   27.2390   52.6880   -1.4510 C   0  0  0  0  0  0  0  0  0  0  0  0
   27.2340   52.9770   -0.0150 C   0  0  0  0  0  0  0  0  0  0  0  0
   27.4970   54.1600    0.6560 C   0  0  0  0  0  0  0  0  0  0  0  0
   27.3920   54.0180    2.0150 N   0  0  0  0  0  0  0  0  0  0  0  0
   27.0780   52.7550    2.1950 C   0  0  0  0  0  0  0  0  0  0  0  0
   26.8450   52.0280    3.3790 C   0  0  0  0  0  0  0  0  0  0  0  0
   26.5610   50.7230    3.3020 C   0  0  0  0  0  0  0  0  0  0  0  0
   26.5090   50.0790    1.9540 C   0  0  0  0  0  0  0  0  0  0  0  0
   26.2450   48.7410    1.7950 N   0  0  0  0  0  0  0  0  0  0  0  0
   26.5780   47.9550    0.6270 C   0  0  0  0  0  0  0  0  0  0  0  0
   26.1880   46.5260    0.8500 C   0  0  0  0  0  0  0  0  0  0  0  0
   25.4920   45.7400   -0.2330 C   0  0  0  0  0  0  0  0  0  0  0  0
   24.7370   46.1420    1.0050 C   0  0  0  0  0  0  0  0  0  0  0  0
   26.6980   50.7370    0.8380 N   0  0  0  0  0  0  0  0  0  0  0  0
   26.9750   52.0670    0.9980 N   0  0  0  0  0  0  0  0  0  0  0  0
   26.4580   53.4600   -2.3250 C   0  0  0  0  0  0  0  0  0  0  0  0
   25.6685   55.8055   -3.3502 H   0  0  0  0  0  0  0  0  0  0  0  0
   26.5735   55.9248   -4.8972 H   0  0  0  0  0  0  0  0  0  0  0  0
   24.7793   56.0123   -4.8972 H   0  0  0  0  0  0  0  0  0  0  0  0
   27.1800   51.9155   -5.2910 H   0  0  0  0  0  0  0  0  0  0  0  0
   28.5657   50.5252   -3.7531 H   0  0  0  0  0  0  0  0  0  0  0  0
   28.6000   51.0085   -1.3137 H   0  0  0  0  0  0  0  0  0  0  0  0
   27.7597   55.1039    0.1560 H   0  0  0  0  0  0  0  0  0  0  0  0
   26.8961   52.5285    4.3572 H   0  0  0  0  0  0  0  0  0  0  0  0
   26.3696   50.1357    4.2122 H   0  0  0  0  0  0  0  0  0  0  0  0
   25.3250   48.5200    2.1650 H   0  0  0  0  0  0  0  0  0  0  0  0
   26.0365   48.3496   -0.2454 H   0  0  0  0  0  0  0  0  0  0  0  0
   27.6617   48.0123    0.4471 H   0  0  0  0  0  0  0  0  0  0  0  0
   27.0998   46.3861    1.4492 H   0  0  0  0  0  0  0  0  0  0  0  0
   25.2614   46.2173   -1.1968 H   0  0  0  0  0  0  0  0  0  0  0  0
   25.6866   44.7888   -0.7502 H   0  0  0  0  0  0  0  0  0  0  0  0
   23.9548   46.9132    0.9459 H   0  0  0  0  0  0  0  0  0  0  0  0
   24.1517   45.6064    1.7669 H   0  0  0  0  0  0  0  0  0  0  0  0
   25.8563   54.2888   -1.9237 H   0  0  0  0  0  0  0  0  0  0  0  0
  1  2  1  0
  2  3  2  0
  2  4  1  0
  4  5  2  0
  5  6  1  0
  6  7  2  0
  7  8  1  0
  8  9  1  0
  9 10  2  0
 10 11  1  0
 11 12  2  0
 12 13  1  0
 13 14  2  0
 14 15  1  0
 15 16  1  0
 16 17  1  0
 17 18  1  0
 18 19  1  0
 19 20  1  0
 15 21  2  0
 21 22  1  0
  8 23  2  0
 23  4  1  0
 22  9  1  0
 22 12  1  0
 20 18  1  0
  1 24  1  0
  1 25  1  0
  1 26  1  0
  5 27  1  0
  6 28  1  0
  7 29  1  0
 10 30  1  0
 13 31  1  0
 14 32  1  0
 16 33  1  0
 17 34  1  0
 17 35  1  0
 18 36  1  0
 19 37  1  0
 19 38  1  0
 20 39  1  0
 20 40  1  0
 23 41  1  0
M  END
>  <meeko>  (1) 
{"is_sidechain": [false], "free_energy": -9.223, "intermolecular_energy": -11.919, "internal_energy": -0.437}

$$$$
2c3i_ligand
     RDKit          3D

 41 44  0  0  0  0  0  0  0  0999 V2000
   27.6310   49.8970   -4.4100 C   0  0  0  0  0  0  0  0  0  0  0  0
   28.2870   50.5710   -3.2340 C   0  0  0  0  0  0  0  0  0  0  0  0
   29.3570   50.1610   -2.7850 O   0  0  0  0  0  0  0  0  0  0  0  0
   27.6220   51.7550   -2.6140 C   0  0  0  0  0  0  0  0  0  0  0  0
   27.0690   52.7850   -3.3830 C   0  0  0  0  0  0  0  0  0  0  0  0
   26.4610   53.8720   -2.7550 C   0  0  0  0  0  0  0  0  0  0  0  0
   26.4000   53.9350   -1.3620 C   0  0  0  0  0  0  0  0  0  0  0  0
   26.9420   52.9140   -0.5720 C   0  0  0  0  0  0  0  0  0  0  0  0
   26.9040   52.9740    0.8910 C   0  0  0  0  0  0  0  0  0  0  0  0
   27.1510   54.0370    1.7450 C   0  0  0  0  0  0  0  0  0  0  0  0
   27.0150   53.6860    3.0620 N   0  0  0  0  0  0  0  0  0  0  0  0
   26.6990   52.4100    3.0360 C   0  0  0  0  0  0  0  0  0  0  0  0
   26.4390   51.5080    4.0860 C   0  0  0  0  0  0  0  0  0  0  0  0
   26.1590   50.2310    3.7990 C   0  0  0  0  0  0  0  0  0  0  0  0
   26.1390   49.8070    2.3660 C   0  0  0  0  0  0  0  0  0  0  0  0
   25.8800   48.5100    1.9940 N   0  0  0  0  0  0  0  0  0  0  0  0
   26.0440   47.9730    0.6610 C   0  0  0  0  0  0  0  0  0  0  0  0
   25.9640   46.4780    0.7040 C   0  0  0  0  0  0  0  0  0  0  0  0
   25.5290   45.6960   -0.5110 C   0  0  0  0  0  0  0  0  0  0  0  0
   24.6270   45.7800    0.6900 C   0  0  0  0  0  0  0  0  0  0  0  0
   26.3520   50.6300    1.3720 N   0  0  0  0  0  0  0  0  0  0  0  0
   26.6240   51.9180    1.7430 N   0  0  0  0  0  0  0  0  0  0  0  0
   27.5570   51.8280   -1.2140 C   0  0  0  0  0  0  0  0  0  0  0  0
   26.9064   49.1525   -4.0486 H   0  0  0  0  0  0  0  0  0  0  0  0
   27.1101   50.6495   -5.0202 H   0  0  0  0  0  0  0  0  0  0  0  0
   28.3973   49.3966   -5.0202 H   0  0  0  0  0  0  0  0  0  0  0  0
   27.1137   52.7375   -4.4811 H   0  0  0  0  0  0  0  0  0  0  0  0
   26.0281   54.6825   -3.3597 H   0  0  0  0  0  0  0  0  0  0  0  0
   25.9197   54.7984   -0.8784 H   0  0  0  0  0  0  0  0  0  0  0  0
   27.4248   55.0465    1.4045 H   0  0  0  0  0  0  0  0  0  0  0  0
   26.4658   51.8495    5.1313 H   0  0  0  0  0  0  0  0  0  0  0  0
   25.9480   49.5086    4.6012 H   0  0  0  0  0  0  0  0  0  0  0  0
   25.0330   48.1790    2.4470 H   0  0  0  0  0  0  0  0  0  0  0  0
   25.2480   48.3629    0.0095 H   0  0  0  0  0  0  0  0  0  0  0  0
   27.0258   48.2734    0.2662 H   0  0  0  0  0  0  0  0  0  0  0  0
   26.8431   46.4646    1.3651 H   0  0  0  0  0  0  0  0  0  0  0  0
   25.2610   46.2243   -1.4379 H   0  0  0  0  0  0  0  0  0  0  0  0
   25.9608   44.8756   -1.1031 H   0  0  0  0  0  0  0  0  0  0  0  0
   23.6996   46.3695    0.6408 H   0  0  0  0  0  0  0  0  0  0  0  0
   24.1266   45.0462    1.3389 H   0  0  0  0  0  0  0  0  0  0  0  0
   27.9955   51.0203   -0.6096 H   0  0  0  0  0  0  0  0  0  0  0  0
  1  2  1  0
  2  3  2  0
  2  4  1  0
  4  5  2  0
  5  6  1  0
  6  7  2  0
  7  8  1  0
  8  9  1  0
  9 10  2  0
 10 11  1  0
 11 12  2  0
 12 13  1  0
 13 14  2  0
 14 15  1  0
 15 16  1  0
 16 17  1  0
 17 18  1  0
 18 19  1  0
 19 20  1  0
 15 21  2  0
 21 22  1  0
  8 23  2  0
 23  4  1  0
 22  9  1  0
 22 12  1  0
 20 18  1  0
  1 24  1  0
  1 25  1  0
  1 26  1  0
  5 27  1  0
  6 28  1  0
  7 29  1  0
 10 30  1  0
 13 31  1  0
 14 32  1  0
 16 33  1  0
 17 34  1  0
 17 35  1  0
 18 36  1  0
 19 37  1  0
 19 38  1  0
 20 39  1  0
 20 40  1  0
 23 41  1  0
M  END
>  <meeko>  (2) 
{"is_sidechain": [false], "free_energy": -9.07, "intermolecular_energy": -11.761, "internal_energy": -0.397}

$$$$
2c3i_ligand
     RDKit          3D

 41 44  0  0  0  0  0  0  0  0999 V2000
   27.5480   53.2250    0.7050 C   0  0  0  0  0  0  0  0  0  0  0  0
   27.0060   53.0630    2.1010 C   0  0  0  0  0  0  0  0  0  0  0  0
   26.9330   54.0220    2.8680 O   0  0  0  0  0  0  0  0  0  0  0  0
   26.5520   51.7130    2.5480 C   0  0  0  0  0  0  0  0  0  0  0  0
   26.2870   51.4230    3.8910 C   0  0  0  0  0  0  0  0  0  0  0  0
   25.8670   50.1440    4.2560 C   0  0  0  0  0  0  0  0  0  0  0  0
   25.7090   49.1520    3.2870 C   0  0  0  0  0  0  0  0  0  0  0  0
   25.9630   49.4200    1.9360 C   0  0  0  0  0  0  0  0  0  0  0  0
   25.8210   48.3860    0.9100 C   0  0  0  0  0  0  0  0  0  0  0  0
   25.8510   47.0050    1.0260 C   0  0  0  0  0  0  0  0  0  0  0  0
   25.6830   46.3800   -0.1820 N   0  0  0  0  0  0  0  0  0  0  0  0
   25.5620   47.3590   -1.0500 C   0  0  0  0  0  0  0  0  0  0  0  0
   25.3700   47.3290   -2.4450 C   0  0  0  0  0  0  0  0  0  0  0  0
   25.3010   48.4800   -3.1230 C   0  0  0  0  0  0  0  0  0  0  0  0
   25.4380   49.7640   -2.3690 C   0  0  0  0  0  0  0  0  0  0  0  0
   25.3980   50.9850   -2.9970 N   0  0  0  0  0  0  0  0  0  0  0  0
   26.2690   52.1030   -2.7090 C   0  0  0  0  0  0  0  0  0  0  0  0
   25.5020   53.3850   -2.8190 C   0  0  0  0  0  0  0  0  0  0  0  0
   25.9530   54.4720   -3.7630 C   0  0  0  0  0  0  0  0  0  0  0  0
   26.0740   54.6710   -2.2770 C   0  0  0  0  0  0  0  0  0  0  0  0
   25.5910   49.8200   -1.0710 N   0  0  0  0  0  0  0  0  0  0  0  0
   25.6450   48.6040   -0.4480 N   0  0  0  0  0  0  0  0  0  0  0  0
   26.3910   50.7080    1.5800 C   0  0  0  0  0  0  0  0  0  0  0  0
   28.6009   53.5397    0.7547 H   0  0  0  0  0  0  0  0  0  0  0  0
   27.4767   52.2663    0.1704 H   0  0  0  0  0  0  0  0  0  0  0  0
   26.9623   53.9873    0.1704 H   0  0  0  0  0  0  0  0  0  0  0  0
   26.4097   52.2023    4.6576 H   0  0  0  0  0  0  0  0  0  0  0  0
   25.6594   49.9162    5.3119 H   0  0  0  0  0  0  0  0  0  0  0  0
   25.3806   48.1463    3.5884 H   0  0  0  0  0  0  0  0  0  0  0  0
   25.9932   46.4723    1.9778 H   0  0  0  0  0  0  0  0  0  0  0  0
   25.2776   46.3679   -2.9721 H   0  0  0  0  0  0  0  0  0  0  0  0
   25.1467   48.4819   -4.2121 H   0  0  0  0  0  0  0  0  0  0  0  0
   24.4340   51.2690   -3.1480 H   0  0  0  0  0  0  0  0  0  0  0  0
   26.6674   52.0022   -1.6887 H   0  0  0  0  0  0  0  0  0  0  0  0
   27.0985   52.1128   -3.4314 H   0  0  0  0  0  0  0  0  0  0  0  0
   24.5688   52.8226   -2.6677 H   0  0  0  0  0  0  0  0  0  0  0  0
   26.8565   54.3296   -4.3740 H   0  0  0  0  0  0  0  0  0  0  0  0
   25.4839   55.0305   -4.5864 H   0  0  0  0  0  0  0  0  0  0  0  0
   27.0661   54.6742   -1.8018 H   0  0  0  0  0  0  0  0  0  0  0  0
   25.7299   55.4353   -1.5647 H   0  0  0  0  0  0  0  0  0  0  0  0
   26.6041   50.9345    0.5249 H   0  0  0  0  0  0  0  0  0  0  0  0
  1  2  1  0
  2  3  2  0
  2  4  1  0
  4  5  2  0
  5  6  1  0
  6  7  2  0
  7  8  1  0
  8  9  1  0
  9 10  2  0
 10 11  1  0
 11 12  2  0
 12 13  1  0
 13 14  2  0
 14 15  1  0
 15 16  1  0
 16 17  1  0
 17 18  1  0
 18 19  1  0
 19 20  1  0
 15 21  2  0
 21 22  1  0
  8 23  2  0
 23  4  1  0
 22  9  1  0
 22 12  1  0
 20 18  1  0
  1 24  1  0
  1 25  1  0
  1 26  1  0
  5 27  1  0
  6 28  1  0
  7 29  1  0
 10 30  1  0
 13 31  1  0
 14 32  1  0
 16 33  1  0
 17 34  1  0
 17 35  1  0
 18 36  1  0
 19 37  1  0
 19 38  1  0
 20 39  1  0
 20 40  1  0
 23 41  1  0
M  END
>  <meeko>  (3) 
{"is_sidechain": [false], "free_energy": -8.984, "intermolecular_energy": -11.7, "internal_energy": -0.346}

$$$$
2c3i_ligand
     RDKit          3D

 41 44  0  0  0  0  0  0  0  0999 V2000
   27.4470   53.0730   -0.6560 C   0  0  0  0  0  0  0  0  0  0  0  0
   27.5590   53.3120    0.8270 C   0  0  0  0  0  0  0  0  0  0  0  0
   28.0880   54.3310    1.2660 O   0  0  0  0  0  0  0  0  0  0  0  0
   27.0110   52.2900    1.7680 C   0  0  0  0  0  0  0  0  0  0  0  0
   26.7870   52.5670    3.1210 C   0  0  0  0  0  0  0  0  0  0  0  0
   26.2760   51.5750    3.9580 C   0  0  0  0  0  0  0  0  0  0  0  0
   25.9870   50.3070    3.4510 C   0  0  0  0  0  0  0  0  0  0  0  0
   26.1980   50.0080    2.0990 C   0  0  0  0  0  0  0  0  0  0  0  0
   25.9170   48.6780    1.5560 C   0  0  0  0  0  0  0  0  0  0  0  0
   25.9060   47.4430    2.1850 C   0  0  0  0  0  0  0  0  0  0  0  0
   25.5980   46.4250    1.3220 N   0  0  0  0  0  0  0  0  0  0  0  0
   25.4310   47.0130    0.1580 C   0  0  0  0  0  0  0  0  0  0  0  0
   25.1050   46.4760   -1.1030 C   0  0  0  0  0  0  0  0  0  0  0  0
   25.0160   47.2910   -2.1590 C   0  0  0  0  0  0  0  0  0  0  0  0
   25.2740   48.7510   -1.9620 C   0  0  0  0  0  0  0  0  0  0  0  0
   25.2210   49.6470   -3.0010 N   0  0  0  0  0  0  0  0  0  0  0  0
   26.1110   50.7720   -3.1820 C   0  0  0  0  0  0  0  0  0  0  0  0
   27.4340   50.2940   -3.6960 C   0  0  0  0  0  0  0  0  0  0  0  0
   28.6210   50.1740   -2.7720 C   0  0  0  0  0  0  0  0  0  0  0  0
   28.5970   51.2460   -3.8270 C   0  0  0  0  0  0  0  0  0  0  0  0
   25.5540   49.2780   -0.7980 N   0  0  0  0  0  0  0  0  0  0  0  0
   25.6200   48.3830    0.2350 N   0  0  0  0  0  0  0  0  0  0  0  0
   26.7180   51.0110    1.2670 C   0  0  0  0  0  0  0  0  0  0  0  0
   26.9865   52.0903   -0.8353 H   0  0  0  0  0  0  0  0  0  0  0  0
   26.8231   53.8582   -1.1079 H   0  0  0  0  0  0  0  0  0  0  0  0
   28.4496   53.0960   -1.1079 H   0  0  0  0  0  0  0  0  0  0  0  0
   27.0134   53.5652    3.5239 H   0  0  0  0  0  0  0  0  0  0  0  0
   26.1001   51.7928    5.0218 H   0  0  0  0  0  0  0  0  0  0  0  0
   25.5882   49.5322    4.1223 H   0  0  0  0  0  0  0  0  0  0  0  0
   26.1200   47.2972    3.2541 H   0  0  0  0  0  0  0  0  0  0  0  0
   24.9255   45.3968   -1.2176 H   0  0  0  0  0  0  0  0  0  0  0  0
   24.7582   46.8958   -3.1527 H   0  0  0  0  0  0  0  0  0  0  0  0
   24.2540   49.8740   -3.2180 H   0  0  0  0  0  0  0  0  0  0  0  0
   25.6701   51.4739   -3.9052 H   0  0  0  0  0  0  0  0  0  0  0  0
   26.2576   51.2784   -2.2166 H   0  0  0  0  0  0  0  0  0  0  0  0
   26.9053   49.6111   -4.3773 H   0  0  0  0  0  0  0  0  0  0  0  0
   28.5210   50.4449   -1.7106 H   0  0  0  0  0  0  0  0  0  0  0  0
   29.3162   49.3659   -2.5006 H   0  0  0  0  0  0  0  0  0  0  0  0
   28.4796   52.3005   -3.5366 H   0  0  0  0  0  0  0  0  0  0  0  0
   29.2676   51.5457   -4.6458 H   0  0  0  0  0  0  0  0  0  0  0  0
   26.8993   50.7919    0.2044 H   0  0  0  0  0  0  0  0  0  0  0  0
  1  2  1  0
  2  3  2  0
  2  4  1  0
  4  5  2  0
  5  6  1  0
  6  7  2  0
  7  8  1  0
  8  9  1  0
  9 10  2  0
 10 11  1  0
 11 12  2  0
 12 13  1  0
 13 14  2  0
 14 15  1  0
 15 16  1  0
 16 17  1  0
 17 18  1  0
 18 19  1  0
 19 20  1  0
 15 21  2  0
 21 22  1  0
  8 23  2  0
 23  4  1  0
 22  9  1  0
 22 12  1  0
 20 18  1  0
  1 24  1  0
  1 25  1  0
  1 26  1  0
  5 27  1  0
  6 28  1  0
  7 29  1  0
 10 30  1  0
 13 31  1  0
 14 32  1  0
 16 33  1  0
 17 34  1  0
 17 35  1  0
 18 36  1  0
 19 37  1  0
 19 38  1  0
 20 39  1  0
 20 40  1  0
 23 41  1  0
M  END
>  <meeko>  (4) 
{"is_sidechain": [false], "free_energy": -8.941, "intermolecular_energy": -11.422, "internal_energy": -0.57}

$$$$
2c3i_ligand
     RDKit          3D

 41 44  0  0  0  0  0  0  0  0999 V2000
   25.1640   52.9690    5.7570 C   0  0  0  0  0  0  0  0  0  0  0  0
   26.2630   52.8930    4.7300 C   0  0  0  0  0  0  0  0  0  0  0  0
   27.1540   53.7400    4.6930 O   0  0  0  0  0  0  0  0  0  0  0  0
   26.2610   51.7660    3.7500 C   0  0  0  0  0  0  0  0  0  0  0  0
   25.9050   50.4640    4.1150 C   0  0  0  0  0  0  0  0  0  0  0  0
   25.9230   49.4460    3.1620 C   0  0  0  0  0  0  0  0  0  0  0  0
   26.2940   49.7220    1.8440 C   0  0  0  0  0  0  0  0  0  0  0  0
   26.6490   51.0200    1.4550 C   0  0  0  0  0  0  0  0  0  0  0  0
   27.0590   51.3220    0.0830 C   0  0  0  0  0  0  0  0  0  0  0  0
   27.5090   52.5100   -0.4710 C   0  0  0  0  0  0  0  0  0  0  0  0
   27.7920   52.3850   -1.8060 N   0  0  0  0  0  0  0  0  0  0  0  0
   27.5080   51.1340   -2.0910 C   0  0  0  0  0  0  0  0  0  0  0  0
   27.5960   50.4280   -3.3070 C   0  0  0  0  0  0  0  0  0  0  0  0
   27.2190   49.1450   -3.3480 C   0  0  0  0  0  0  0  0  0  0  0  0
   26.7090   48.5070   -2.0960 C   0  0  0  0  0  0  0  0  0  0  0  0
   26.2850   47.2010   -2.0640 N   0  0  0  0  0  0  0  0  0  0  0  0
   25.0620   46.7330   -1.4490 C   0  0  0  0  0  0  0  0  0  0  0  0
   25.3870   45.8030   -0.3210 C   0  0  0  0  0  0  0  0  0  0  0  0
   24.7740   46.0040    1.0430 C   0  0  0  0  0  0  0  0  0  0  0  0
   26.2410   46.2640    0.8340 C   0  0  0  0  0  0  0  0  0  0  0  0
   26.6410   49.1330   -0.9490 N   0  0  0  0  0  0  0  0  0  0  0  0
   27.0510   50.4380   -0.9840 N   0  0  0  0  0  0  0  0  0  0  0  0
   26.6340   52.0350    2.4230 C   0  0  0  0  0  0  0  0  0  0  0  0
   25.6019   52.9387    6.7656 H   0  0  0  0  0  0  0  0  0  0  0  0
   24.6056   53.9079    5.6277 H   0  0  0  0  0  0  0  0  0  0  0  0
   24.4817   52.1159    5.6277 H   0  0  0  0  0  0  0  0  0  0  0  0
   25.6113   50.2431    5.1518 H   0  0  0  0  0  0  0  0  0  0  0  0
   25.6439   48.4216    3.4494 H   0  0  0  0  0  0  0  0  0  0  0  0
   26.3076   48.9099    1.1022 H   0  0  0  0  0  0  0  0  0  0  0  0
   27.6256   53.4456    0.0957 H   0  0  0  0  0  0  0  0  0  0  0  0
   27.9707   50.9264   -4.2132 H   0  0  0  0  0  0  0  0  0  0  0  0
   27.2830   48.5711   -4.2842 H   0  0  0  0  0  0  0  0  0  0  0  0
   27.0710   46.5820   -1.8910 H   0  0  0  0  0  0  0  0  0  0  0  0
   24.4952   47.5927   -1.0622 H   0  0  0  0  0  0  0  0  0  0  0  0
   24.4589   46.1994   -2.1983 H   0  0  0  0  0  0  0  0  0  0  0  0
   25.4319   44.9716   -1.0399 H   0  0  0  0  0  0  0  0  0  0  0  0
   24.0862   46.8444    1.2182 H   0  0  0  0  0  0  0  0  0  0  0  0
   24.1856   45.3787    1.7306 H   0  0  0  0  0  0  0  0  0  0  0  0
   26.6253   47.2944    0.8566 H   0  0  0  0  0  0  0  0  0  0  0  0
   27.1685   45.9073    1.3057 H   0  0  0  0  0  0  0  0  0  0  0  0
   26.9191   53.0585    2.1381 H   0  0  0  0  0  0  0  0  0  0  0  0
  1  2  1  0
  2  3  2  0
  2  4  1  0
  4  5  2  0
  5  6  1  0
  6  7  2  0
  7  8  1  0
  8  9  1  0
  9 10  2  0
 10 11  1  0
 11 12  2  0
 12 13  1  0
 13 14  2  0
 14 15  1  0
 15 16  1  0
 16 17  1  0
 17 18  1  0
 18 19  1  0
 19 20  1  0
 15 21  2  0
 21 22  1  0
  8 23  2  0
 23  4  1  0
 22  9  1  0
 22 12  1  0
 20 18  1  0
  1 24  1  0
  1 25  1  0
  1 26  1  0
  5 27  1  0
  6 28  1  0
  7 29  1  0
 10 30  1  0
 13 31  1  0
 14 32  1  0
 16 33  1  0
 17 34  1  0
 17 35  1  0
 18 36  1  0
 19 37  1  0
 19 38  1  0
 20 39  1  0
 20 40  1  0
 23 41  1  0
M  END
>  <meeko>  (5) 
{"is_sidechain": [false], "free_energy": -8.91, "intermolecular_energy": -11.613, "internal_energy": -0.339}

$$$$
2c3i_ligand
     RDKit          3D

 41 44  0  0  0  0  0  0  0  0999 V2000
   28.6010   51.0010   -2.7500 C   0  0  0  0  0  0  0  0  0  0  0  0
   27.6290   52.0850   -2.3630 C   0  0  0  0  0  0  0  0  0  0  0  0
   27.0580   52.7580   -3.2190 O   0  0  0  0  0  0  0  0  0  0  0  0
   27.3620   52.3340   -0.9150 C   0  0  0  0  0  0  0  0  0  0  0  0
   27.4830   53.6040   -0.3430 C   0  0  0  0  0  0  0  0  0  0  0  0
   27.2250   53.7820    1.0160 C   0  0  0  0  0  0  0  0  0  0  0  0
   26.8440   52.6970    1.8080 C   0  0  0  0  0  0  0  0  0  0  0  0
   26.7110   51.4170    1.2560 C   0  0  0  0  0  0  0  0  0  0  0  0
   26.3320   50.2650    2.0760 C   0  0  0  0  0  0  0  0  0  0  0  0
   26.2570   50.1380    3.4540 C   0  0  0  0  0  0  0  0  0  0  0  0
   25.8620   48.8840    3.8390 N   0  0  0  0  0  0  0  0  0  0  0  0
   25.7050   48.2240    2.7130 C   0  0  0  0  0  0  0  0  0  0  0  0
   25.3140   46.8920    2.4770 C   0  0  0  0  0  0  0  0  0  0  0  0
   25.2500   46.4390    1.2200 C   0  0  0  0  0  0  0  0  0  0  0  0
   25.6070   47.3690    0.1050 C   0  0  0  0  0  0  0  0  0  0  0  0
   25.5860   46.9720   -1.2090 N   0  0  0  0  0  0  0  0  0  0  0  0
   26.2550   47.6480   -2.2980 C   0  0  0  0  0  0  0  0  0  0  0  0
   25.2410   48.2910   -3.1950 C   0  0  0  0  0  0  0  0  0  0  0  0
   25.6690   49.2520   -4.2760 C   0  0  0  0  0  0  0  0  0  0  0  0
   24.9280   49.7620   -3.0700 C   0  0  0  0  0  0  0  0  0  0  0  0
   25.9500   48.6170    0.2950 N   0  0  0  0  0  0  0  0  0  0  0  0
   25.9830   49.0090    1.6050 N   0  0  0  0  0  0  0  0  0  0  0  0
   26.9800   51.2480   -0.1110 C   0  0  0  0  0  0  0  0  0  0  0  0
   29.0154   50.5388   -1.8419 H   0  0  0  0  0  0  0  0  0  0  0  0
   28.0800   50.2367   -3.3453 H   0  0  0  0  0  0  0  0  0  0  0  0
   29.4173   51.4359   -3.3453 H   0  0  0  0  0  0  0  0  0  0  0  0
   27.7813   54.4616   -0.9639 H   0  0  0  0  0  0  0  0  0  0  0  0
   27.3221   54.7812    1.4657 H   0  0  0  0  0  0  0  0  0  0  0  0
   26.6458   52.8497    2.8792 H   0  0  0  0  0  0  0  0  0  0  0  0
   26.4882   50.9510    4.1580 H   0  0  0  0  0  0  0  0  0  0  0  0
   25.0634   46.2298    3.3189 H   0  0  0  0  0  0  0  0  0  0  0  0
   24.9412   45.4041    1.0110 H   0  0  0  0  0  0  0  0  0  0  0  0
   24.6570   46.6490   -1.4620 H   0  0  0  0  0  0  0  0  0  0  0  0
   26.9253   48.4199   -1.8920 H   0  0  0  0  0  0  0  0  0  0  0  0
   26.8394   46.9166   -2.8756 H   0  0  0  0  0  0  0  0  0  0  0  0
   24.6505   47.3633   -3.1673 H   0  0  0  0  0  0  0  0  0  0  0  0
   26.7344   49.4914   -4.4083 H   0  0  0  0  0  0  0  0  0  0  0  0
   25.5193   49.3146   -5.3640 H   0  0  0  0  0  0  0  0  0  0  0  0
   25.4519   50.3739   -2.3209 H   0  0  0  0  0  0  0  0  0  0  0  0
   24.0128   50.3514   -2.9117 H   0  0  0  0  0  0  0  0  0  0  0  0
   26.8901   50.2479   -0.5602 H   0  0  0  0  0  0  0  0  0  0  0  0
  1  2  1  0
  2  3  2  0
  2  4  1  0
  4  5  2  0
  5  6  1  0
  6  7  2  0
  7  8  1  0
  8  9  1  0
  9 10  2  0
 10 11  1  0
 11 12  2  0
 12 13  1  0
 13 14  2  0
 14 15  1  0
 15 16  1  0
 16 17  1  0
 17 18  1  0
 18 19  1  0
 19 20  1  0
 15 21  2  0
 21 22  1  0
  8 23  2  0
 23  4  1  0
 22  9  1  0
 22 12  1  0
 20 18  1  0
  1 24  1  0
  1 25  1  0
  1 26  1  0
  5 27  1  0
  6 28  1  0
  7 29  1  0
 10 30  1  0
 13 31  1  0
 14 32  1  0
 16 33  1  0
 17 34  1  0
 17 35  1  0
 18 36  1  0
 19 37  1  0
 19 38  1  0
 20 39  1  0
 20 40  1  0
 23 41  1  0
M  END
>  <meeko>  (6) 
{"is_sidechain": [false], "free_energy": -8.891, "intermolecular_energy": -11.239, "internal_energy": -0.689}

$$$$
2c3i_ligand
     RDKit          3D

 41 44  0  0  0  0  0  0  0  0999 V2000
   27.8300   51.3830   -4.2300 C   0  0  0  0  0  0  0  0  0  0  0  0
   28.3610   50.3900   -3.2310 C   0  0  0  0  0  0  0  0  0  0  0  0
   29.4930   50.5060   -2.7630 O   0  0  0  0  0  0  0  0  0  0  0  0
   27.4900   49.2530   -2.8070 C   0  0  0  0  0  0  0  0  0  0  0  0
   26.9770   48.3270   -3.7210 C   0  0  0  0  0  0  0  0  0  0  0  0
   26.1650   47.2850   -3.2740 C   0  0  0  0  0  0  0  0  0  0  0  0
   25.8640   47.1620   -1.9160 C   0  0  0  0  0  0  0  0  0  0  0  0
   26.3700   48.0740   -0.9820 C   0  0  0  0  0  0  0  0  0  0  0  0
   26.0470   47.9700    0.4430 C   0  0  0  0  0  0  0  0  0  0  0  0
   25.4460   46.9400    1.1470 C   0  0  0  0  0  0  0  0  0  0  0  0
   25.3140   47.2310    2.4790 N   0  0  0  0  0  0  0  0  0  0  0  0
   25.8150   48.4390    2.6080 C   0  0  0  0  0  0  0  0  0  0  0  0
   25.9490   49.2600    3.7440 C   0  0  0  0  0  0  0  0  0  0  0  0
   26.4790   50.4810    3.6120 C   0  0  0  0  0  0  0  0  0  0  0  0
   26.9050   50.9340    2.2530 C   0  0  0  0  0  0  0  0  0  0  0  0
   27.4380   52.1800    2.0340 N   0  0  0  0  0  0  0  0  0  0  0  0
   26.7270   53.3080    1.4740 C   0  0  0  0  0  0  0  0  0  0  0  0
   27.4550   53.8180    0.2670 C   0  0  0  0  0  0  0  0  0  0  0  0
   26.7470   54.6750   -0.7530 C   0  0  0  0  0  0  0  0  0  0  0  0
   27.1470   53.2680   -1.1040 C   0  0  0  0  0  0  0  0  0  0  0  0
   26.8150   50.1820    1.1860 N   0  0  0  0  0  0  0  0  0  0  0  0
   26.2710   48.9450    1.4020 N   0  0  0  0  0  0  0  0  0  0  0  0
   27.1810   49.1220   -1.4440 C   0  0  0  0  0  0  0  0  0  0  0  0
   27.3761   52.2318   -3.6975 H   0  0  0  0  0  0  0  0  0  0  0  0
   28.6550   51.7449   -4.8612 H   0  0  0  0  0  0  0  0  0  0  0  0
   27.0709   50.8979   -4.8612 H   0  0  0  0  0  0  0  0  0  0  0  0
   27.2137   48.4205   -4.7912 H   0  0  0  0  0  0  0  0  0  0  0  0
   25.7604   46.5578   -3.9934 H   0  0  0  0  0  0  0  0  0  0  0  0
   25.2206   46.3374   -1.5754 H   0  0  0  0  0  0  0  0  0  0  0  0
   25.1130   45.9968    0.6893 H   0  0  0  0  0  0  0  0  0  0  0  0
   25.6210   48.9007    4.7306 H   0  0  0  0  0  0  0  0  0  0  0  0
   26.5989   51.1383    4.4859 H   0  0  0  0  0  0  0  0  0  0  0  0
   28.3850   52.0980    1.6740 H   0  0  0  0  0  0  0  0  0  0  0  0
   25.7137   52.9934    1.1836 H   0  0  0  0  0  0  0  0  0  0  0  0
   26.6651   54.1083    2.2261 H   0  0  0  0  0  0  0  0  0  0  0  0
   28.3635   53.9251    0.8779 H   0  0  0  0  0  0  0  0  0  0  0  0
   25.6849   54.9269   -0.6172 H   0  0  0  0  0  0  0  0  0  0  0  0
   26.9263   55.6668   -1.1937 H   0  0  0  0  0  0  0  0  0  0  0  0
   26.3773   52.4915   -1.2246 H   0  0  0  0  0  0  0  0  0  0  0  0
   27.7396   52.8058   -1.9072 H   0  0  0  0  0  0  0  0  0  0  0  0
   27.5812   49.8530   -0.7260 H   0  0  0  0  0  0  0  0  0  0  0  0
  1  2  1  0
  2  3  2  0
  2  4  1  0
  4  5  2  0
  5  6  1  0
  6  7  2  0
  7  8  1  0
  8  9  1  0
  9 10  2  0
 10 11  1  0
 11 12  2  0
 12 13  1  0
 13 14  2  0
 14 15  1  0
 15 16  1  0
 16 17  1  0
 17 18  1  0
 18 19  1  0
 19 20  1  0
 15 21  2  0
 21 22  1  0
  8 23  2  0
 23  4  1  0
 22  9  1  0
 22 12  1  0
 20 18  1  0
  1 24  1  0
  1 25  1  0
  1 26  1  0
  5 27  1  0
  6 28  1  0
  7 29  1  0
 10 30  1  0
 13 31  1  0
 14 32  1  0
 16 33  1  0
 17 34  1  0
 17 35  1  0
 18 36  1  0
 19 37  1  0
 19 38  1  0
 20 39  1  0
 20 40  1  0
 23 41  1  0
M  END
>  <meeko>  (7) 
{"is_sidechain": [false], "free_energy": -8.864, "intermolecular_energy": -11.463, "internal_energy": -0.429}

$$$$
2c3i_ligand
     RDKit          3D

 41 44  0  0  0  0  0  0  0  0999 V2000
   26.2270   46.8010   -3.4090 C   0  0  0  0  0  0  0  0  0  0  0  0
   25.4760   47.7290   -2.4910 C   0  0  0  0  0  0  0  0  0  0  0  0
   24.8570   48.6950   -2.9360 O   0  0  0  0  0  0  0  0  0  0  0  0
   25.4870   47.4610   -1.0220 C   0  0  0  0  0  0  0  0  0  0  0  0
   25.2300   46.1910   -0.4960 C   0  0  0  0  0  0  0  0  0  0  0  0
   25.2500   45.9940    0.8850 C   0  0  0  0  0  0  0  0  0  0  0  0
   25.5270   47.0590    1.7440 C   0  0  0  0  0  0  0  0  0  0  0  0
   25.7930   48.3380    1.2390 C   0  0  0  0  0  0  0  0  0  0  0  0
   26.0660   49.4700    2.1270 C   0  0  0  0  0  0  0  0  0  0  0  0
   25.9160   49.5820    3.5000 C   0  0  0  0  0  0  0  0  0  0  0  0
   26.2800   50.8200    3.9610 N   0  0  0  0  0  0  0  0  0  0  0  0
   26.6420   51.4830    2.8860 C   0  0  0  0  0  0  0  0  0  0  0  0
   27.1080   52.8040    2.7370 C   0  0  0  0  0  0  0  0  0  0  0  0
   27.3920   53.2650    1.5140 C   0  0  0  0  0  0  0  0  0  0  0  0
   27.1970   52.3570    0.3430 C   0  0  0  0  0  0  0  0  0  0  0  0
   27.4480   52.7640   -0.9440 N   0  0  0  0  0  0  0  0  0  0  0  0
   27.0230   52.0700   -2.1400 C   0  0  0  0  0  0  0  0  0  0  0  0
   28.1870   51.3480   -2.7470 C   0  0  0  0  0  0  0  0  0  0  0  0
   27.9730   50.3020   -3.8120 C   0  0  0  0  0  0  0  0  0  0  0  0
   28.4330   49.8910   -2.4400 C   0  0  0  0  0  0  0  0  0  0  0  0
   26.7900   51.1190    0.4560 N   0  0  0  0  0  0  0  0  0  0  0  0
   26.5270   50.7180    1.7370 N   0  0  0  0  0  0  0  0  0  0  0  0
   25.7640   48.5270   -0.1510 C   0  0  0  0  0  0  0  0  0  0  0  0
   26.8075   46.0836   -2.8104 H   0  0  0  0  0  0  0  0  0  0  0  0
   25.5128   46.2558   -4.0436 H   0  0  0  0  0  0  0  0  0  0  0  0
   26.9092   47.3858   -4.0436 H   0  0  0  0  0  0  0  0  0  0  0  0
   25.0125   45.3491   -1.1697 H   0  0  0  0  0  0  0  0  0  0  0  0
   25.0466   44.9953    1.2988 H   0  0  0  0  0  0  0  0  0  0  0  0
   25.5365   46.8916    2.8311 H   0  0  0  0  0  0  0  0  0  0  0  0
   25.5474   48.7709    4.1452 H   0  0  0  0  0  0  0  0  0  0  0  0
   27.2371   53.4501    3.6179 H   0  0  0  0  0  0  0  0  0  0  0  0
   27.7615   54.2914    1.3729 H   0  0  0  0  0  0  0  0  0  0  0  0
   28.3940   53.1270   -1.0180 H   0  0  0  0  0  0  0  0  0  0  0  0
   26.2374   51.3446   -1.8819 H   0  0  0  0  0  0  0  0  0  0  0  0
   26.6300   52.7994   -2.8635 H   0  0  0  0  0  0  0  0  0  0  0  0
   28.7799   52.2714   -2.6704 H   0  0  0  0  0  0  0  0  0  0  0  0
   26.9537   50.0581   -4.1459 H   0  0  0  0  0  0  0  0  0  0  0  0
   28.3458   50.1473   -4.8353 H   0  0  0  0  0  0  0  0  0  0  0  0
   27.7499   49.3471   -1.7710 H   0  0  0  0  0  0  0  0  0  0  0  0
   29.2809   49.3120   -2.0453 H   0  0  0  0  0  0  0  0  0  0  0  0
   25.9615   49.5267   -0.5652 H   0  0  0  0  0  0  0  0  0  0  0  0
  1  2  1  0
  2  3  2  0
  2  4  1  0
  4  5  2  0
  5  6  1  0
  6  7  2  0
  7  8  1  0
  8  9  1  0
  9 10  2  0
 10 11  1  0
 11 12  2  0
 12 13  1  0
 13 14  2  0
 14 15  1  0
 15 16  1  0
 16 17  1  0
 17 18  1  0
 18 19  1  0
 19 20  1  0
 15 21  2  0
 21 22  1  0
  8 23  2  0
 23  4  1  0
 22  9  1  0
 22 12  1  0
 20 18  1  0
  1 24  1  0
  1 25  1  0
  1 26  1  0
  5 27  1  0
  6 28  1  0
  7 29  1  0
 10 30  1  0
 13 31  1  0
 14 32  1  0
 16 33  1  0
 17 34  1  0
 17 35  1  0
 18 36  1  0
 19 37  1  0
 19 38  1  0
 20 39  1  0
 20 40  1  0
 23 41  1  0
M  END
>  <meeko>  (8) 
{"is_sidechain": [false], "free_energy": -8.859, "intermolecular_energy": -11.223, "internal_energy": -0.662}

$$$$
2c3i_ligand
     RDKit          3D

 41 44  0  0  0  0  0  0  0  0999 V2000
   25.6960   51.8830    4.7870 C   0  0  0  0  0  0  0  0  0  0  0  0
   26.6550   52.6870    3.9480 C   0  0  0  0  0  0  0  0  0  0  0  0
   27.2850   53.6260    4.4310 O   0  0  0  0  0  0  0  0  0  0  0  0
   26.8370   52.3250    2.5110 C   0  0  0  0  0  0  0  0  0  0  0  0
   27.3520   53.2280    1.5750 C   0  0  0  0  0  0  0  0  0  0  0  0
   27.4990   52.8400    0.2430 C   0  0  0  0  0  0  0  0  0  0  0  0
   27.1360   51.5540   -0.1600 C   0  0  0  0  0  0  0  0  0  0  0  0
   26.6240   50.6310    0.7610 C   0  0  0  0  0  0  0  0  0  0  0  0
   26.2200   49.2840    0.3510 C   0  0  0  0  0  0  0  0  0  0  0  0
   26.3040   48.0820    1.0350 C   0  0  0  0  0  0  0  0  0  0  0  0
   25.8180   47.0330    0.3000 N   0  0  0  0  0  0  0  0  0  0  0  0
   25.4450   47.5690   -0.8400 C   0  0  0  0  0  0  0  0  0  0  0  0
   24.8750   46.9820   -1.9870 C   0  0  0  0  0  0  0  0  0  0  0  0
   24.6020   47.7470   -3.0490 C   0  0  0  0  0  0  0  0  0  0  0  0
   24.9210   49.2070   -2.9810 C   0  0  0  0  0  0  0  0  0  0  0  0
   24.6890   50.0530   -4.0370 N   0  0  0  0  0  0  0  0  0  0  0  0
   25.5690   51.1170   -4.4660 C   0  0  0  0  0  0  0  0  0  0  0  0
   25.0090   52.4400   -4.0410 C   0  0  0  0  0  0  0  0  0  0  0  0
   25.5150   53.7230   -4.6520 C   0  0  0  0  0  0  0  0  0  0  0  0
   25.8370   53.3970   -3.2190 C   0  0  0  0  0  0  0  0  0  0  0  0
   25.4270   49.7810   -1.9200 N   0  0  0  0  0  0  0  0  0  0  0  0
   25.6710   48.9350   -0.8730 N   0  0  0  0  0  0  0  0  0  0  0  0
   26.4730   51.0330    2.0970 C   0  0  0  0  0  0  0  0  0  0  0  0
   25.9052   52.0584    5.8526 H   0  0  0  0  0  0  0  0  0  0  0  0
   24.6643   52.1901    4.5605 H   0  0  0  0  0  0  0  0  0  0  0  0
   25.8184   50.8136    4.5605 H   0  0  0  0  0  0  0  0  0  0  0  0
   27.6405   54.2421    1.8886 H   0  0  0  0  0  0  0  0  0  0  0  0
   27.9028   53.5508   -0.4929 H   0  0  0  0  0  0  0  0  0  0  0  0
   27.2534   51.2616   -1.2139 H   0  0  0  0  0  0  0  0  0  0  0  0
   26.7136   47.9816    2.0509 H   0  0  0  0  0  0  0  0  0  0  0  0
   24.6566   45.9041   -2.0086 H   0  0  0  0  0  0  0  0  0  0  0  0
   24.1523   47.3120   -3.9537 H   0  0  0  0  0  0  0  0  0  0  0  0
   23.7090   50.3220   -4.0610 H   0  0  0  0  0  0  0  0  0  0  0  0
   26.5606   50.9768   -4.0109 H   0  0  0  0  0  0  0  0  0  0  0  0
   25.6583   51.0952   -5.5622 H   0  0  0  0  0  0  0  0  0  0  0  0
   24.0219   51.9679   -3.9280 H   0  0  0  0  0  0  0  0  0  0  0  0
   26.3079   53.6937   -5.4139 H   0  0  0  0  0  0  0  0  0  0  0  0
   25.0485   54.5743   -5.1694 H   0  0  0  0  0  0  0  0  0  0  0  0
   26.8651   53.1294   -2.9337 H   0  0  0  0  0  0  0  0  0  0  0  0
   25.7032   53.9112   -2.2558 H   0  0  0  0  0  0  0  0  0  0  0  0
   26.0629   50.3248    2.8320 H   0  0  0  0  0  0  0  0  0  0  0  0
  1  2  1  0
  2  3  2  0
  2  4  1  0
  4  5  2  0
  5  6  1  0
  6  7  2  0
  7  8  1  0
  8  9  1  0
  9 10  2  0
 10 11  1  0
 11 12  2  0
 12 13  1  0
 13 14  2  0
 14 15  1  0
 15 16  1  0
 16 17  1  0
 17 18  1  0
 18 19  1  0
 19 20  1  0
 15 21  2  0
 21 22  1  0
  8 23  2  0
 23  4  1  0
 22  9  1  0
 22 12  1  0
 20 18  1  0
  1 24  1  0
  1 25  1  0
  1 26  1  0
  5 27  1  0
  6 28  1  0
  7 29  1  0
 10 30  1  0
 13 31  1  0
 14 32  1  0
 16 33  1  0
 17 34  1  0
 17 35  1  0
 18 36  1  0
 19 37  1  0
 19 38  1  0
 20 39  1  0
 20 40  1  0
 23 41  1  0
M  END
>  <meeko>  (9) 
{"is_sidechain": [false], "free_energy": -8.806, "intermolecular_energy": -11.357, "internal_energy": -0.46}

$$$$
