2yki_ligand
     RDKit          3D

 52 58  0  0  0  0  0  0  0  0999 V2000
    2.6760   10.2020   23.5280 O   0  0  0  0  0  0  0  0  0  0  0  0
    2.8720   10.4320   24.7140 C   0  0  0  0  0  0  0  0  0  0  0  0
    3.8930   11.2290   25.1740 N   0  0  0  0  0  0  0  0  0  0  0  0
    4.7680   11.9310   24.2660 C   0  0  2  0  0  0  0  0  0  0  0  0
    6.0630   11.1670   24.0640 C   0  0  0  0  0  0  0  0  0  0  0  0
    6.2150    9.9090   23.4940 C   0  0  0  0  0  0  0  0  0  0  0  0
    7.5070    9.4120   23.3350 C   0  0  0  0  0  0  0  0  0  0  0  0
    8.6150   10.1790   23.7230 C   0  0  0  0  0  0  0  0  0  0  0  0
    8.4520   11.4460   24.2930 C   0  0  0  0  0  0  0  0  0  0  0  0
    7.1690   11.9350   24.4970 C   0  0  0  0  0  0  0  0  0  0  0  0
    6.6820   13.1960   25.0490 C   0  0  0  0  0  0  0  0  0  0  0  0
    7.3230   14.2780   25.6540 C   0  0  0  0  0  0  0  0  0  0  0  0
    8.7350   14.2970   26.0140 C   0  0  0  0  0  0  0  0  0  0  0  0
    9.7610   14.1930   25.1910 N   0  0  0  0  0  0  0  0  0  0  0  0
   10.8860   14.3180   25.9700 C   0  0  0  0  0  0  0  0  0  0  0  0
   12.2330   14.2610   25.6120 C   0  0  0  0  0  0  0  0  0  0  0  0
   13.1340   14.4280   26.6520 C   0  0  0  0  0  0  0  0  0  0  0  0
   12.7990   14.6380   27.9480 N   0  0  0  0  0  0  0  0  0  0  0  0
   11.4900   14.6950   28.2910 C   0  0  0  0  0  0  0  0  0  0  0  0
   10.5420   14.5330   27.2970 C   0  0  0  0  0  0  0  0  0  0  0  0
    9.1740   14.5370   27.2970 N   0  0  0  0  0  0  0  0  0  0  0  0
    6.5460   15.4040   25.9890 C   0  0  0  0  0  0  0  0  0  0  0  0
    5.1590   15.4340   25.7770 C   0  0  0  0  0  0  0  0  0  0  0  0
    4.5080   14.3330   25.2310 C   0  0  0  0  0  0  0  0  0  0  0  0
    5.2720   13.2280   24.8800 C   0  0  0  0  0  0  0  0  0  0  0  0
    2.0010    9.8390   25.7550 C   0  0  0  0  0  0  0  0  0  0  0  0
    2.4920    8.9080   26.6780 C   0  0  0  0  0  0  0  0  0  0  0  0
    1.6250    8.3940   27.6300 C   0  0  0  0  0  0  0  0  0  0  0  0
    0.3180    8.7080   27.7560 N   0  0  0  0  0  0  0  0  0  0  0  0
   -0.0980    9.6200   26.8590 C   0  0  0  0  0  0  0  0  0  0  0  0
   -1.3740   10.1100   26.7940 N   0  0  0  0  0  0  0  0  0  0  0  0
   -1.4720   11.0190   25.7720 C   0  0  0  0  0  0  0  0  0  0  0  0
   -0.2320   11.1110   25.1730 C   0  0  0  0  0  0  0  0  0  0  0  0
    0.6510   10.2260   25.8560 C   0  0  0  0  0  0  0  0  0  0  0  0
    4.0410   11.3680   26.1620 H   0  0  0  0  0  0  0  0  0  0  0  0
    4.1778   12.0710   23.3484 H   0  0  0  0  0  0  0  0  0  0  0  0
    5.3402    9.3221   23.1773 H   0  0  0  0  0  0  0  0  0  0  0  0
    7.6587    8.4120   22.9025 H   0  0  0  0  0  0  0  0  0  0  0  0
    9.6287    9.7778   23.5768 H   0  0  0  0  0  0  0  0  0  0  0  0
    9.3289   12.0469   24.5758 H   0  0  0  0  0  0  0  0  0  0  0  0
   12.5582   14.0947   24.5744 H   0  0  0  0  0  0  0  0  0  0  0  0
   14.2053   14.3868   26.4058 H   0  0  0  0  0  0  0  0  0  0  0  0
   11.1881   14.8660   29.3349 H   0  0  0  0  0  0  0  0  0  0  0  0
    8.5740   14.6770   28.0970 H   0  0  0  0  0  0  0  0  0  0  0  0
    7.0395   16.2834   26.4285 H   0  0  0  0  0  0  0  0  0  0  0  0
    4.5839   16.3329   26.0440 H   0  0  0  0  0  0  0  0  0  0  0  0
    3.4182   14.3374   25.0814 H   0  0  0  0  0  0  0  0  0  0  0  0
    3.5448    8.5906   26.6485 H   0  0  0  0  0  0  0  0  0  0  0  0
    2.0380    7.6671   28.3449 H   0  0  0  0  0  0  0  0  0  0  0  0
   -2.1130    9.8290   27.4220 H   0  0  0  0  0  0  0  0  0  0  0  0
   -2.3759   11.5747   25.4819 H   0  0  0  0  0  0  0  0  0  0  0  0
    0.0284   11.7539   24.3193 H   0  0  0  0  0  0  0  0  0  0  0  0
  1  2  2  0
  2  3  1  0
  3  4  1  0
  4  5  1  0
  5  6  2  0
  6  7  1  0
  7  8  2  0
  8  9  1  0
  9 10  2  0
 10 11  1  0
 11 12  2  0
 12 13  1  0
 13 14  2  0
 14 15  1  0
 15 16  2  0
 16 17  1  0
 17 18  2  0
 18 19  1  0
 19 20  2  0
 20 21  1  0
 12 22  1  0
 22 23  2  0
 23 24  1  0
 24 25  2  0
  2 26  1  0
 26 27  2  0
 27 28  1  0
 28 29  2  0
 29 30  1  0
 30 31  1  0
 31 32  1  0
 32 33  2  0
 33 34  1  0
 25  4  1  0
 34 26  1  0
 10  5  1  0
 25 11  1  0
 34 30  2  0
 21 13  1  0
 20 15  1  0
  3 35  1  0
  4 36  1  6
  6 37  1  0
  7 38  1  0
  8 39  1  0
  9 40  1  0
 16 41  1  0
 17 42  1  0
 19 43  1  0
 21 44  1  0
 22 45  1  0
 23 46  1  0
 24 47  1  0
 27 48  1  0
 28 49  1  0
 31 50  1  0
 32 51  1  0
 33 52  1  0
M  END
>  <meeko>  (1) 
{"is_sidechain": [false], "free_energy": -14.951, "intermolecular_energy": -17.573, "internal_energy": -0.829}

$$$$
2yki_ligand
     RDKit          3D

 52 58  0  0  0  0  0  0  0  0999 V2000
    2.1980   10.5530   23.5350 O   0  0  0  0  0  0  0  0  0  0  0  0
    2.5200   10.6170   24.7150 C   0  0  0  0  0  0  0  0  0  0  0  0
    3.6610   11.2420   25.1570 N   0  0  0  0  0  0  0  0  0  0  0  0
    4.5310   11.9530   24.2510 C   0  0  2  0  0  0  0  0  0  0  0  0
    5.8270   11.1940   24.0380 C   0  0  0  0  0  0  0  0  0  0  0  0
    5.9810    9.9410   23.4590 C   0  0  0  0  0  0  0  0  0  0  0  0
    7.2730    9.4490   23.2910 C   0  0  0  0  0  0  0  0  0  0  0  0
    8.3810   10.2170   23.6800 C   0  0  0  0  0  0  0  0  0  0  0  0
    8.2160   11.4800   24.2600 C   0  0  0  0  0  0  0  0  0  0  0  0
    6.9320   11.9620   24.4720 C   0  0  0  0  0  0  0  0  0  0  0  0
    6.4440   13.2180   25.0350 C   0  0  0  0  0  0  0  0  0  0  0  0
    7.0840   14.2980   25.6450 C   0  0  0  0  0  0  0  0  0  0  0  0
    8.4980   14.3190   26.0000 C   0  0  0  0  0  0  0  0  0  0  0  0
    9.5210   14.2340   25.1710 N   0  0  0  0  0  0  0  0  0  0  0  0
   10.6480   14.3520   25.9470 C   0  0  0  0  0  0  0  0  0  0  0  0
   11.9930   14.3090   25.5840 C   0  0  0  0  0  0  0  0  0  0  0  0
   12.8990   14.4630   26.6220 C   0  0  0  0  0  0  0  0  0  0  0  0
   12.5670   14.6490   27.9230 N   0  0  0  0  0  0  0  0  0  0  0  0
   11.2600   14.6940   28.2720 C   0  0  0  0  0  0  0  0  0  0  0  0
   10.3080   14.5430   27.2790 C   0  0  0  0  0  0  0  0  0  0  0  0
    8.9400   14.5390   27.2860 N   0  0  0  0  0  0  0  0  0  0  0  0
    6.3040   15.4190   25.9920 C   0  0  0  0  0  0  0  0  0  0  0  0
    4.9170   15.4460   25.7850 C   0  0  0  0  0  0  0  0  0  0  0  0
    4.2680   14.3470   25.2340 C   0  0  0  0  0  0  0  0  0  0  0  0
    5.0330   13.2470   24.8720 C   0  0  0  0  0  0  0  0  0  0  0  0
    1.6790    9.9970   25.7640 C   0  0  0  0  0  0  0  0  0  0  0  0
    0.4120   10.5010   26.0810 C   0  0  0  0  0  0  0  0  0  0  0  0
   -0.3260    9.8710   27.0720 C   0  0  0  0  0  0  0  0  0  0  0  0
    0.0670    8.7910   27.7800 N   0  0  0  0  0  0  0  0  0  0  0  0
    1.2810    8.3350   27.4230 C   0  0  0  0  0  0  0  0  0  0  0  0
    1.8890    7.2450   27.9840 N   0  0  0  0  0  0  0  0  0  0  0  0
    3.1140    7.0450   27.4010 C   0  0  0  0  0  0  0  0  0  0  0  0
    3.2900    8.0270   26.4480 C   0  0  0  0  0  0  0  0  0  0  0  0
    2.1300    8.8540   26.4520 C   0  0  0  0  0  0  0  0  0  0  0  0
    3.9080   11.2450   26.1350 H   0  0  0  0  0  0  0  0  0  0  0  0
    3.9371   12.0979   23.3365 H   0  0  0  0  0  0  0  0  0  0  0  0
    5.1067    9.3535   23.1419 H   0  0  0  0  0  0  0  0  0  0  0  0
    7.4257    8.4526   22.8508 H   0  0  0  0  0  0  0  0  0  0  0  0
    9.3954    9.8201   23.5267 H   0  0  0  0  0  0  0  0  0  0  0  0
    9.0917   12.0821   24.5438 H   0  0  0  0  0  0  0  0  0  0  0  0
   12.3145   14.1625   24.5423 H   0  0  0  0  0  0  0  0  0  0  0  0
   13.9694   14.4319   26.3705 H   0  0  0  0  0  0  0  0  0  0  0  0
   10.9617   14.8469   29.3197 H   0  0  0  0  0  0  0  0  0  0  0  0
    8.3430   14.6630   28.0890 H   0  0  0  0  0  0  0  0  0  0  0  0
    6.7960   16.2964   26.4371 H   0  0  0  0  0  0  0  0  0  0  0  0
    4.3399   16.3412   26.0600 H   0  0  0  0  0  0  0  0  0  0  0  0
    3.1776   14.3492   25.0888 H   0  0  0  0  0  0  0  0  0  0  0  0
    0.0098   11.3792   25.5546 H   0  0  0  0  0  0  0  0  0  0  0  0
   -1.3179   10.2877   27.3010 H   0  0  0  0  0  0  0  0  0  0  0  0
    1.4730    6.6860   28.7140 H   0  0  0  0  0  0  0  0  0  0  0  0
    3.8278    6.2455   27.6486 H   0  0  0  0  0  0  0  0  0  0  0  0
    4.1702    8.1497   25.7998 H   0  0  0  0  0  0  0  0  0  0  0  0
  1  2  2  0
  2  3  1  0
  3  4  1  0
  4  5  1  0
  5  6  2  0
  6  7  1  0
  7  8  2  0
  8  9  1  0
  9 10  2  0
 10 11  1  0
 11 12  2  0
 12 13  1  0
 13 14  2  0
 14 15  1  0
 15 16  2  0
 16 17  1  0
 17 18  2  0
 18 19  1  0
 19 20  2  0
 20 21  1  0
 12 22  1  0
 22 23  2  0
 23 24  1  0
 24 25  2  0
  2 26  1  0
 26 27  2  0
 27 28  1  0
 28 29  2  0
 29 30  1  0
 30 31  1  0
 31 32  1  0
 32 33  2  0
 33 34  1  0
 25  4  1  0
 34 26  1  0
 10  5  1  0
 25 11  1  0
 34 30  2  0
 21 13  1  0
 20 15  1  0
  3 35  1  0
  4 36  1  6
  6 37  1  0
  7 38  1  0
  8 39  1  0
  9 40  1  0
 16 41  1  0
 17 42  1  0
 19 43  1  0
 21 44  1  0
 22 45  1  0
 23 46  1  0
 24 47  1  0
 27 48  1  0
 28 49  1  0
 31 50  1  0
 32 51  1  0
 33 52  1  0
M  END
>  <meeko>  (2) 
{"is_sidechain": [false], "free_energy": -14.644, "intermolecular_energy": -17.078, "internal_energy": -0.964}

$$$$
