3zt2_ligand
     RDKit          3D

 34 37  0  0  0  0  0  0  0  0999 V2000
  -35.9460   30.3010   -1.6930 O   0  0  0  0  0  0  0  0  0  0  0  0
  -34.8620   29.8630   -1.3360 C   0  0  0  0  0  0  0  0  0  0  0  0
  -34.3380   28.4780   -1.6620 C   0  0  0  0  0  0  0  0  0  0  0  0
  -33.0500   28.4130   -0.8840 C   0  0  0  0  0  0  0  0  0  0  0  0
  -32.1840   27.3280   -0.8280 C   0  0  0  0  0  0  0  0  0  0  0  0
  -31.0100   27.4530   -0.0850 C   0  0  0  0  0  0  0  0  0  0  0  0
  -30.7130   28.6510    0.5770 C   0  0  0  0  0  0  0  0  0  0  0  0
  -31.5910   29.7390    0.5180 C   0  0  0  0  0  0  0  0  0  0  0  0
  -32.7670   29.6150   -0.2050 C   0  0  0  0  0  0  0  0  0  0  0  0
  -33.8640   30.5600   -0.4530 C   0  0  0  0  0  0  0  0  0  0  0  0
  -34.1020   31.8130   -0.0380 C   0  0  0  0  0  0  0  0  0  0  0  0
  -33.2620   32.5990    0.8720 C   0  0  0  0  0  0  0  0  0  0  0  0
  -32.8900   31.9960    2.0960 C   0  0  0  0  0  0  0  0  0  0  0  0
  -32.0800   32.6700    3.0130 C   0  0  0  0  0  0  0  0  0  0  0  0
  -31.6640   33.9390    2.6800 C   0  0  0  0  0  0  0  0  0  0  0  0
  -32.0200   34.5420    1.4910 C   0  0  0  0  0  0  0  0  0  0  0  0
  -32.8190   33.9010    0.5570 C   0  0  0  0  0  0  0  0  0  0  0  0
  -33.1720   34.5680   -0.7270 C   0  0  0  0  0  0  0  0  0  0  0  0
  -32.2360   34.7050   -1.5750 O   0  0  0  0  0  0  0  0  0  0  0  0
  -34.3750   34.9610   -0.8520 O   0  0  0  0  0  0  0  0  0  0  0  0
  -31.5020   35.7990    1.3950 O   0  0  0  0  0  0  0  0  0  0  0  0
  -30.7730   35.9020    2.6250 C   0  0  0  0  0  0  0  0  0  0  0  0
  -30.8770   34.7310    3.4600 O   0  0  0  0  0  0  0  0  0  0  0  0
  -35.0411   27.7004   -1.3288 H   0  0  0  0  0  0  0  0  0  0  0  0
  -34.2029   28.3077   -2.7403 H   0  0  0  0  0  0  0  0  0  0  0  0
  -32.4186   26.3925   -1.3570 H   0  0  0  0  0  0  0  0  0  0  0  0
  -30.3127   26.6048   -0.0186 H   0  0  0  0  0  0  0  0  0  0  0  0
  -29.7782   28.7377    1.1503 H   0  0  0  0  0  0  0  0  0  0  0  0
  -31.3515   30.6785    1.0376 H   0  0  0  0  0  0  0  0  0  0  0  0
  -35.0143   32.2975   -0.4162 H   0  0  0  0  0  0  0  0  0  0  0  0
  -33.2438   30.9810    2.3294 H   0  0  0  0  0  0  0  0  0  0  0  0
  -31.7858   32.2042    3.9651 H   0  0  0  0  0  0  0  0  0  0  0  0
  -29.7116   36.0657    2.3870 H   0  0  0  0  0  0  0  0  0  0  0  0
  -31.2105   36.7390    3.1890 H   0  0  0  0  0  0  0  0  0  0  0  0
  1  2  2  0
  2  3  1  0
  3  4  1  0
  4  5  2  0
  5  6  1  0
  6  7  2  0
  7  8  1  0
  8  9  2  0
  9 10  1  0
 10 11  2  0
 11 12  1  0
 12 13  2  0
 13 14  1  0
 14 15  2  0
 15 16  1  0
 16 17  2  0
 17 18  1  0
 18 19  2  0
 18 20  1  0
 16 21  1  0
 21 22  1  0
 22 23  1  0
 10  2  1  0
 17 12  1  0
  9  4  1  0
 23 15  1  0
  3 24  1  0
  3 25  1  0
  5 26  1  0
  6 27  1  0
  7 28  1  0
  8 29  1  0
 11 30  1  0
 13 31  1  0
 14 32  1  0
 22 33  1  0
 22 34  1  0
M  CHG  1  20  -1
M  END
>  <meeko>  (1) 
{"is_sidechain": [false], "free_energy": -9.401, "intermolecular_energy": -10.5, "internal_energy": -0.143}

$$$$
3zt2_ligand
     RDKit          3D

 34 37  0  0  0  0  0  0  0  0999 V2000
  -30.2550   30.8100    2.1380 O   0  0  0  0  0  0  0  0  0  0  0  0
  -31.0470   30.1700    1.4610 C   0  0  0  0  0  0  0  0  0  0  0  0
  -30.8070   28.7630    0.9480 C   0  0  0  0  0  0  0  0  0  0  0  0
  -32.0120   28.5100    0.0810 C   0  0  0  0  0  0  0  0  0  0  0  0
  -32.2670   27.3540   -0.6460 C   0  0  0  0  0  0  0  0  0  0  0  0
  -33.4560   27.2730   -1.3700 C   0  0  0  0  0  0  0  0  0  0  0  0
  -34.3730   28.3330   -1.3500 C   0  0  0  0  0  0  0  0  0  0  0  0
  -34.1090   29.4950   -0.6170 C   0  0  0  0  0  0  0  0  0  0  0  0
  -32.9210   29.5880    0.0900 C   0  0  0  0  0  0  0  0  0  0  0  0
  -32.3720   30.6530    0.9400 C   0  0  0  0  0  0  0  0  0  0  0  0
  -32.8110   31.8760    1.2700 C   0  0  0  0  0  0  0  0  0  0  0  0
  -34.0440   32.5120    0.7930 C   0  0  0  0  0  0  0  0  0  0  0  0
  -35.2570   31.8130    0.9970 C   0  0  0  0  0  0  0  0  0  0  0  0
  -36.4770   32.3530    0.5860 C   0  0  0  0  0  0  0  0  0  0  0  0
  -36.4510   33.5860   -0.0270 C   0  0  0  0  0  0  0  0  0  0  0  0
  -35.2770   34.2790   -0.2350 C   0  0  0  0  0  0  0  0  0  0  0  0
  -34.0490   33.7750    0.1630 C   0  0  0  0  0  0  0  0  0  0  0  0
  -32.7990   34.5540   -0.0580 C   0  0  0  0  0  0  0  0  0  0  0  0
  -32.2710   35.0880    0.9660 O   0  0  0  0  0  0  0  0  0  0  0  0
  -32.3820   34.6320   -1.2560 O   0  0  0  0  0  0  0  0  0  0  0  0
  -35.5040   35.4630   -0.8710 O   0  0  0  0  0  0  0  0  0  0  0  0
  -36.9300   35.4440   -1.0100 C   0  0  0  0  0  0  0  0  0  0  0  0
  -37.5470   34.2490   -0.4890 O   0  0  0  0  0  0  0  0  0  0  0  0
  -29.8786   28.7091    0.3605 H   0  0  0  0  0  0  0  0  0  0  0  0
  -30.6877   28.0222    1.7523 H   0  0  0  0  0  0  0  0  0  0  0  0
  -31.5476   26.5218   -0.6504 H   0  0  0  0  0  0  0  0  0  0  0  0
  -33.6758   26.3714   -1.9607 H   0  0  0  0  0  0  0  0  0  0  0  0
  -35.3116   28.2502   -1.9176 H   0  0  0  0  0  0  0  0  0  0  0  0
  -34.8337   30.3224   -0.6022 H   0  0  0  0  0  0  0  0  0  0  0  0
  -32.1874   32.4580    1.9645 H   0  0  0  0  0  0  0  0  0  0  0  0
  -35.2385   30.8284    1.4872 H   0  0  0  0  0  0  0  0  0  0  0  0
  -37.4227   31.8144    0.7456 H   0  0  0  0  0  0  0  0  0  0  0  0
  -37.3429   36.3106   -0.4729 H   0  0  0  0  0  0  0  0  0  0  0  0
  -37.1486   35.4753   -2.0876 H   0  0  0  0  0  0  0  0  0  0  0  0
  1  2  2  0
  2  3  1  0
  3  4  1  0
  4  5  2  0
  5  6  1  0
  6  7  2  0
  7  8  1  0
  8  9  2  0
  9 10  1  0
 10 11  2  0
 11 12  1  0
 12 13  2  0
 13 14  1  0
 14 15  2  0
 15 16  1  0
 16 17  2  0
 17 18  1  0
 18 19  2  0
 18 20  1  0
 16 21  1  0
 21 22  1  0
 22 23  1  0
 10  2  1  0
 17 12  1  0
  9  4  1  0
 23 15  1  0
  3 24  1  0
  3 25  1  0
  5 26  1  0
  6 27  1  0
  7 28  1  0
  8 29  1  0
 11 30  1  0
 13 31  1  0
 14 32  1  0
 22 33  1  0
 22 34  1  0
M  CHG  1  20  -1
M  END
>  <meeko>  (2) 
{"is_sidechain": [false], "free_energy": -8.46, "intermolecular_energy": -9.412, "internal_energy": -0.179}

$$$$
3zt2_ligand
     RDKit          3D

 34 37  0  0  0  0  0  0  0  0999 V2000
  -31.3260   32.1150    2.9620 O   0  0  0  0  0  0  0  0  0  0  0  0
  -31.6100   31.2220    2.1770 C   0  0  0  0  0  0  0  0  0  0  0  0
  -30.8230   29.9370    2.0050 C   0  0  0  0  0  0  0  0  0  0  0  0
  -31.5150   29.2700    0.8460 C   0  0  0  0  0  0  0  0  0  0  0  0
  -31.1600   28.0560    0.2720 C   0  0  0  0  0  0  0  0  0  0  0  0
  -31.9370   27.5640   -0.7770 C   0  0  0  0  0  0  0  0  0  0  0  0
  -33.0550   28.2790   -1.2280 C   0  0  0  0  0  0  0  0  0  0  0  0
  -33.4050   29.5020   -0.6470 C   0  0  0  0  0  0  0  0  0  0  0  0
  -32.6270   30.0040    0.3840 C   0  0  0  0  0  0  0  0  0  0  0  0
  -32.7380   31.2330    1.1810 C   0  0  0  0  0  0  0  0  0  0  0  0
  -33.5860   32.2700    1.1480 C   0  0  0  0  0  0  0  0  0  0  0  0
  -34.6890   32.4570    0.1990 C   0  0  0  0  0  0  0  0  0  0  0  0
  -35.7250   31.4930    0.2100 C   0  0  0  0  0  0  0  0  0  0  0  0
  -36.8190   31.6040   -0.6520 C   0  0  0  0  0  0  0  0  0  0  0  0
  -36.8460   32.6810   -1.5090 C   0  0  0  0  0  0  0  0  0  0  0  0
  -35.8420   33.6270   -1.5330 C   0  0  0  0  0  0  0  0  0  0  0  0
  -34.7450   33.5510   -0.6900 C   0  0  0  0  0  0  0  0  0  0  0  0
  -33.6850   34.5970   -0.7240 C   0  0  0  0  0  0  0  0  0  0  0  0
  -32.6780   34.3640   -1.4630 O   0  0  0  0  0  0  0  0  0  0  0  0
  -33.8730   35.6220    0.0040 O   0  0  0  0  0  0  0  0  0  0  0  0
  -36.0830   34.5840   -2.4730 O   0  0  0  0  0  0  0  0  0  0  0  0
  -37.3410   34.1520   -3.0060 C   0  0  0  0  0  0  0  0  0  0  0  0
  -37.8340   32.9340   -2.4120 O   0  0  0  0  0  0  0  0  0  0  0  0
  -29.7694   30.1470    1.7689 H   0  0  0  0  0  0  0  0  0  0  0  0
  -30.8015   29.3165    2.9130 H   0  0  0  0  0  0  0  0  0  0  0  0
  -30.2864   27.4955    0.6361 H   0  0  0  0  0  0  0  0  0  0  0  0
  -31.6706   26.6089   -1.2532 H   0  0  0  0  0  0  0  0  0  0  0  0
  -33.6645   27.8733   -2.0489 H   0  0  0  0  0  0  0  0  0  0  0  0
  -34.2851   30.0574   -1.0033 H   0  0  0  0  0  0  0  0  0  0  0  0
  -33.4414   33.0556    1.9042 H   0  0  0  0  0  0  0  0  0  0  0  0
  -35.6682   30.6441    0.9072 H   0  0  0  0  0  0  0  0  0  0  0  0
  -37.6282   30.8589   -0.6461 H   0  0  0  0  0  0  0  0  0  0  0  0
  -38.0821   34.9467   -2.8349 H   0  0  0  0  0  0  0  0  0  0  0  0
  -37.1843   33.9479   -4.0755 H   0  0  0  0  0  0  0  0  0  0  0  0
  1  2  2  0
  2  3  1  0
  3  4  1  0
  4  5  2  0
  5  6  1  0
  6  7  2  0
  7  8  1  0
  8  9  2  0
  9 10  1  0
 10 11  2  0
 11 12  1  0
 12 13  2  0
 13 14  1  0
 14 15  2  0
 15 16  1  0
 16 17  2  0
 17 18  1  0
 18 19  2  0
 18 20  1  0
 16 21  1  0
 21 22  1  0
 22 23  1  0
 10  2  1  0
 17 12  1  0
  9  4  1  0
 23 15  1  0
  3 24  1  0
  3 25  1  0
  5 26  1  0
  6 27  1  0
  7 28  1  0
  8 29  1  0
 11 30  1  0
 13 31  1  0
 14 32  1  0
 22 33  1  0
 22 34  1  0
M  CHG  1  20  -1
M  END
>  <meeko>  (3) 
{"is_sidechain": [false], "free_energy": -8.43, "intermolecular_energy": -9.056, "internal_energy": -0.502}

$$$$
3zt2_ligand
     RDKit          3D

 34 37  0  0  0  0  0  0  0  0999 V2000
  -31.5210   32.1670    2.7530 O   0  0  0  0  0  0  0  0  0  0  0  0
  -31.6150   31.1500    2.0820 C   0  0  0  0  0  0  0  0  0  0  0  0
  -30.5330   30.0960    1.9500 C   0  0  0  0  0  0  0  0  0  0  0  0
  -31.1050   29.1510    0.9260 C   0  0  0  0  0  0  0  0  0  0  0  0
  -30.4860   28.0110    0.4310 C   0  0  0  0  0  0  0  0  0  0  0  0
  -31.1790   27.2250   -0.4900 C   0  0  0  0  0  0  0  0  0  0  0  0
  -32.4730   27.5800   -0.8940 C   0  0  0  0  0  0  0  0  0  0  0  0
  -33.0900   28.7310   -0.3930 C   0  0  0  0  0  0  0  0  0  0  0  0
  -32.4000   29.5240    0.5100 C   0  0  0  0  0  0  0  0  0  0  0  0
  -32.7730   30.7650    1.2020 C   0  0  0  0  0  0  0  0  0  0  0  0
  -33.8630   31.5430    1.1580 C   0  0  0  0  0  0  0  0  0  0  0  0
  -35.0400   31.3390    0.3070 C   0  0  0  0  0  0  0  0  0  0  0  0
  -35.7610   30.1330    0.4730 C   0  0  0  0  0  0  0  0  0  0  0  0
  -36.9000   29.8650   -0.2880 C   0  0  0  0  0  0  0  0  0  0  0  0
  -37.2910   30.8160   -1.2040 C   0  0  0  0  0  0  0  0  0  0  0  0
  -36.5970   31.9950   -1.3800 C   0  0  0  0  0  0  0  0  0  0  0  0
  -35.4650   32.2950   -0.6400 C   0  0  0  0  0  0  0  0  0  0  0  0
  -34.7460   33.5860   -0.8380 C   0  0  0  0  0  0  0  0  0  0  0  0
  -33.8570   33.6090   -1.7440 O   0  0  0  0  0  0  0  0  0  0  0  0
  -35.0730   34.5430   -0.0670 O   0  0  0  0  0  0  0  0  0  0  0  0
  -37.1650   32.7660   -2.3510 O   0  0  0  0  0  0  0  0  0  0  0  0
  -38.2860   31.9610   -2.7360 C   0  0  0  0  0  0  0  0  0  0  0  0
  -38.3720   30.7100   -2.0250 O   0  0  0  0  0  0  0  0  0  0  0  0
  -29.5903   30.5390    1.5963 H   0  0  0  0  0  0  0  0  0  0  0  0
  -30.2866   29.6055    2.9032 H   0  0  0  0  0  0  0  0  0  0  0  0
  -29.4727   27.7340    0.7574 H   0  0  0  0  0  0  0  0  0  0  0  0
  -30.7067   26.3209   -0.9017 H   0  0  0  0  0  0  0  0  0  0  0  0
  -33.0103   26.9455   -1.6142 H   0  0  0  0  0  0  0  0  0  0  0  0
  -34.1074   29.0026   -0.7109 H   0  0  0  0  0  0  0  0  0  0  0  0
  -33.8764   32.4185    1.8238 H   0  0  0  0  0  0  0  0  0  0  0  0
  -35.4186   29.3950    1.2134 H   0  0  0  0  0  0  0  0  0  0  0  0
  -37.4641   28.9293   -0.1608 H   0  0  0  0  0  0  0  0  0  0  0  0
  -39.2061   32.5329   -2.5453 H   0  0  0  0  0  0  0  0  0  0  0  0
  -38.1565   31.7175   -3.8009 H   0  0  0  0  0  0  0  0  0  0  0  0
  1  2  2  0
  2  3  1  0
  3  4  1  0
  4  5  2  0
  5  6  1  0
  6  7  2  0
  7  8  1  0
  8  9  2  0
  9 10  1  0
 10 11  2  0
 11 12  1  0
 12 13  2  0
 13 14  1  0
 14 15  2  0
 15 16  1  0
 16 17  2  0
 17 18  1  0
 18 19  2  0
 18 20  1  0
 16 21  1  0
 21 22  1  0
 22 23  1  0
 10  2  1  0
 17 12  1  0
  9  4  1  0
 23 15  1  0
  3 24  1  0
  3 25  1  0
  5 26  1  0
  6 27  1  0
  7 28  1  0
  8 29  1  0
 11 30  1  0
 13 31  1  0
 14 32  1  0
 22 33  1  0
 22 34  1  0
M  CHG  1  20  -1
M  END
>  <meeko>  (4) 
{"is_sidechain": [false], "free_energy": -8.17, "intermolecular_energy": -8.822, "internal_energy": -0.446}

$$$$
3zt2_ligand
     RDKit          3D

 34 37  0  0  0  0  0  0  0  0999 V2000
  -33.6690   28.1590   -2.9020 O   0  0  0  0  0  0  0  0  0  0  0  0
  -34.5190   28.6150   -2.1520 C   0  0  0  0  0  0  0  0  0  0  0  0
  -35.9490   28.1170   -2.0600 C   0  0  0  0  0  0  0  0  0  0  0  0
  -36.5840   29.0910   -1.1030 C   0  0  0  0  0  0  0  0  0  0  0  0
  -37.9120   29.0870   -0.6940 C   0  0  0  0  0  0  0  0  0  0  0  0
  -38.3250   30.0440    0.2320 C   0  0  0  0  0  0  0  0  0  0  0  0
  -37.4140   30.9790    0.7410 C   0  0  0  0  0  0  0  0  0  0  0  0
  -36.0790   30.9800    0.3230 C   0  0  0  0  0  0  0  0  0  0  0  0
  -35.6670   30.0410   -0.6090 C   0  0  0  0  0  0  0  0  0  0  0  0
  -34.3580   29.7900   -1.2280 C   0  0  0  0  0  0  0  0  0  0  0  0
  -33.1670   30.3980   -1.1260 C   0  0  0  0  0  0  0  0  0  0  0  0
  -32.8690   31.5890   -0.3230 C   0  0  0  0  0  0  0  0  0  0  0  0
  -33.2140   32.8460   -0.8710 C   0  0  0  0  0  0  0  0  0  0  0  0
  -32.9760   34.0280   -0.1660 C   0  0  0  0  0  0  0  0  0  0  0  0
  -32.3920   33.9200    1.0760 C   0  0  0  0  0  0  0  0  0  0  0  0
  -32.0480   32.7020    1.6230 C   0  0  0  0  0  0  0  0  0  0  0  0
  -32.2730   31.5090    0.9540 C   0  0  0  0  0  0  0  0  0  0  0  0
  -31.9070   30.2060    1.5770 C   0  0  0  0  0  0  0  0  0  0  0  0
  -32.8630   29.5030    2.0290 O   0  0  0  0  0  0  0  0  0  0  0  0
  -30.6690   29.9230    1.6190 O   0  0  0  0  0  0  0  0  0  0  0  0
  -31.4720   32.8520    2.8500 O   0  0  0  0  0  0  0  0  0  0  0  0
  -31.5200   34.2740    3.0160 C   0  0  0  0  0  0  0  0  0  0  0  0
  -32.0900   34.9700    1.8890 O   0  0  0  0  0  0  0  0  0  0  0  0
  -36.4429   28.1485   -3.0424 H   0  0  0  0  0  0  0  0  0  0  0  0
  -36.0240   27.0709   -1.7283 H   0  0  0  0  0  0  0  0  0  0  0  0
  -38.6210   28.3459   -1.0916 H   0  0  0  0  0  0  0  0  0  0  0  0
  -39.3731   30.0651    0.5652 H   0  0  0  0  0  0  0  0  0  0  0  0
  -37.7528   31.7215    1.4785 H   0  0  0  0  0  0  0  0  0  0  0  0
  -35.3674   31.7147    0.7278 H   0  0  0  0  0  0  0  0  0  0  0  0
  -32.3349   29.9625   -1.6986 H   0  0  0  0  0  0  0  0  0  0  0  0
  -33.6769   32.8937   -1.8677 H   0  0  0  0  0  0  0  0  0  0  0  0
  -33.2450   35.0080   -0.5871 H   0  0  0  0  0  0  0  0  0  0  0  0
  -32.1257   34.4995    3.9061 H   0  0  0  0  0  0  0  0  0  0  0  0
  -30.4811   34.6213    3.1165 H   0  0  0  0  0  0  0  0  0  0  0  0
  1  2  2  0
  2  3  1  0
  3  4  1  0
  4  5  2  0
  5  6  1  0
  6  7  2  0
  7  8  1  0
  8  9  2  0
  9 10  1  0
 10 11  2  0
 11 12  1  0
 12 13  2  0
 13 14  1  0
 14 15  2  0
 15 16  1  0
 16 17  2  0
 17 18  1  0
 18 19  2  0
 18 20  1  0
 16 21  1  0
 21 22  1  0
 22 23  1  0
 10  2  1  0
 17 12  1  0
  9  4  1  0
 23 15  1  0
  3 24  1  0
  3 25  1  0
  5 26  1  0
  6 27  1  0
  7 28  1  0
  8 29  1  0
 11 30  1  0
 13 31  1  0
 14 32  1  0
 22 33  1  0
 22 34  1  0
M  CHG  1  20  -1
M  END
>  <meeko>  (5) 
{"is_sidechain": [false], "free_energy": -7.927, "intermolecular_energy": -8.096, "internal_energy": -0.901}

$$$$
3zt2_ligand
     RDKit          3D

 34 37  0  0  0  0  0  0  0  0999 V2000
  -34.2800   27.6920   -2.2420 O   0  0  0  0  0  0  0  0  0  0  0  0
  -33.5560   28.2710   -1.4440 C   0  0  0  0  0  0  0  0  0  0  0  0
  -32.3560   27.6500   -0.7560 C   0  0  0  0  0  0  0  0  0  0  0  0
  -31.9180   28.7300    0.1980 C   0  0  0  0  0  0  0  0  0  0  0  0
  -30.8550   28.6510    1.0890 C   0  0  0  0  0  0  0  0  0  0  0  0
  -30.5640   29.7650    1.8760 C   0  0  0  0  0  0  0  0  0  0  0  0
  -31.3250   30.9360    1.7580 C   0  0  0  0  0  0  0  0  0  0  0  0
  -32.3950   31.0080    0.8600 C   0  0  0  0  0  0  0  0  0  0  0  0
  -32.6990   29.8990    0.0870 C   0  0  0  0  0  0  0  0  0  0  0  0
  -33.7370   29.6720   -0.9270 C   0  0  0  0  0  0  0  0  0  0  0  0
  -34.7350   30.4310   -1.3990 C   0  0  0  0  0  0  0  0  0  0  0  0
  -35.0790   31.7850   -0.9520 C   0  0  0  0  0  0  0  0  0  0  0  0
  -34.1560   32.8180   -1.2360 C   0  0  0  0  0  0  0  0  0  0  0  0
  -34.4120   34.1370   -0.8580 C   0  0  0  0  0  0  0  0  0  0  0  0
  -35.5930   34.3900   -0.1960 C   0  0  0  0  0  0  0  0  0  0  0  0
  -36.5020   33.3940    0.0910 C   0  0  0  0  0  0  0  0  0  0  0  0
  -36.2820   32.0750   -0.2730 C   0  0  0  0  0  0  0  0  0  0  0  0
  -37.2910   31.0220    0.0340 C   0  0  0  0  0  0  0  0  0  0  0  0
  -38.1370   30.7620   -0.8770 O   0  0  0  0  0  0  0  0  0  0  0  0
  -37.2280   30.4930    1.1870 O   0  0  0  0  0  0  0  0  0  0  0  0
  -37.5830   33.8850    0.7630 O   0  0  0  0  0  0  0  0  0  0  0  0
  -37.2630   35.2790    0.8390 C   0  0  0  0  0  0  0  0  0  0  0  0
  -35.9930   35.6160    0.2440 O   0  0  0  0  0  0  0  0  0  0  0  0
  -32.6397   26.7353   -0.2148 H   0  0  0  0  0  0  0  0  0  0  0  0
  -31.5653   27.3424   -1.4561 H   0  0  0  0  0  0  0  0  0  0  0  0
  -30.2570   27.7315    1.1718 H   0  0  0  0  0  0  0  0  0  0  0  0
  -29.7317   29.7243    2.5941 H   0  0  0  0  0  0  0  0  0  0  0  0
  -31.0777   31.8094    2.3794 H   0  0  0  0  0  0  0  0  0  0  0  0
  -32.9862   31.9311    0.7688 H   0  0  0  0  0  0  0  0  0  0  0  0
  -35.3552   29.9977   -2.1975 H   0  0  0  0  0  0  0  0  0  0  0  0
  -33.2210   32.5781   -1.7634 H   0  0  0  0  0  0  0  0  0  0  0  0
  -33.6979   34.9436   -1.0803 H   0  0  0  0  0  0  0  0  0  0  0  0
  -38.0507   35.8448    0.3200 H   0  0  0  0  0  0  0  0  0  0  0  0
  -37.1958   35.5355    1.9066 H   0  0  0  0  0  0  0  0  0  0  0  0
  1  2  2  0
  2  3  1  0
  3  4  1  0
  4  5  2  0
  5  6  1  0
  6  7  2  0
  7  8  1  0
  8  9  2  0
  9 10  1  0
 10 11  2  0
 11 12  1  0
 12 13  2  0
 13 14  1  0
 14 15  2  0
 15 16  1  0
 16 17  2  0
 17 18  1  0
 18 19  2  0
 18 20  1  0
 16 21  1  0
 21 22  1  0
 22 23  1  0
 10  2  1  0
 17 12  1  0
  9  4  1  0
 23 15  1  0
  3 24  1  0
  3 25  1  0
  5 26  1  0
  6 27  1  0
  7 28  1  0
  8 29  1  0
 11 30  1  0
 13 31  1  0
 14 32  1  0
 22 33  1  0
 22 34  1  0
M  CHG  1  20  -1
M  END
>  <meeko>  (6) 
{"is_sidechain": [false], "free_energy": -7.819, "intermolecular_energy": -8.237, "internal_energy": -0.639}

$$$$
3zt2_ligand
     RDKit          3D

 34 37  0  0  0  0  0  0  0  0999 V2000
  -34.7940   27.9670   -1.7700 O   0  0  0  0  0  0  0  0  0  0  0  0
  -34.1290   28.6660   -1.0190 C   0  0  0  0  0  0  0  0  0  0  0  0
  -32.7610   28.2970   -0.4770 C   0  0  0  0  0  0  0  0  0  0  0  0
  -32.4630   29.4220    0.4790 C   0  0  0  0  0  0  0  0  0  0  0  0
  -31.3210   29.5480    1.2610 C   0  0  0  0  0  0  0  0  0  0  0  0
  -31.1900   30.6780    2.0670 C   0  0  0  0  0  0  0  0  0  0  0  0
  -32.1850   31.6650    2.0750 C   0  0  0  0  0  0  0  0  0  0  0  0
  -33.3330   31.5300    1.2870 C   0  0  0  0  0  0  0  0  0  0  0  0
  -33.4770   30.4010    0.4960 C   0  0  0  0  0  0  0  0  0  0  0  0
  -34.5440   29.9840   -0.4240 C   0  0  0  0  0  0  0  0  0  0  0  0
  -35.7210   30.5270   -0.7640 C   0  0  0  0  0  0  0  0  0  0  0  0
  -36.2920   31.7660   -0.2240 C   0  0  0  0  0  0  0  0  0  0  0  0
  -37.1570   31.6520    0.8890 C   0  0  0  0  0  0  0  0  0  0  0  0
  -37.7320   32.7820    1.4720 C   0  0  0  0  0  0  0  0  0  0  0  0
  -37.4270   34.0070    0.9200 C   0  0  0  0  0  0  0  0  0  0  0  0
  -36.5880   34.1340   -0.1670 C   0  0  0  0  0  0  0  0  0  0  0  0
  -35.9970   33.0340   -0.7680 C   0  0  0  0  0  0  0  0  0  0  0  0
  -35.0800   33.2030   -1.9300 C   0  0  0  0  0  0  0  0  0  0  0  0
  -33.8510   33.3840   -1.6640 O   0  0  0  0  0  0  0  0  0  0  0  0
  -35.6120   33.1710   -3.0840 O   0  0  0  0  0  0  0  0  0  0  0  0
  -36.4520   35.4380   -0.5410 O   0  0  0  0  0  0  0  0  0  0  0  0
  -37.2660   36.1010    0.4340 C   0  0  0  0  0  0  0  0  0  0  0  0
  -37.9050   35.2030    1.3640 O   0  0  0  0  0  0  0  0  0  0  0  0
  -32.7905   27.3301    0.0466 H   0  0  0  0  0  0  0  0  0  0  0  0
  -31.9995   28.1811   -1.2623 H   0  0  0  0  0  0  0  0  0  0  0  0
  -30.5391   28.7745    1.2444 H   0  0  0  0  0  0  0  0  0  0  0  0
  -30.2991   30.7958    2.7014 H   0  0  0  0  0  0  0  0  0  0  0  0
  -32.0619   32.5560    2.7082 H   0  0  0  0  0  0  0  0  0  0  0  0
  -34.1101   32.3085    1.2950 H   0  0  0  0  0  0  0  0  0  0  0  0
  -36.3156   29.9930   -1.5198 H   0  0  0  0  0  0  0  0  0  0  0  0
  -37.3801   30.6570    1.3016 H   0  0  0  0  0  0  0  0  0  0  0  0
  -38.4033   32.6979    2.3394 H   0  0  0  0  0  0  0  0  0  0  0  0
  -36.6301   36.7952    1.0030 H   0  0  0  0  0  0  0  0  0  0  0  0
  -38.0668   36.6185   -0.1145 H   0  0  0  0  0  0  0  0  0  0  0  0
  1  2  2  0
  2  3  1  0
  3  4  1  0
  4  5  2  0
  5  6  1  0
  6  7  2  0
  7  8  1  0
  8  9  2  0
  9 10  1  0
 10 11  2  0
 11 12  1  0
 12 13  2  0
 13 14  1  0
 14 15  2  0
 15 16  1  0
 16 17  2  0
 17 18  1  0
 18 19  2  0
 18 20  1  0
 16 21  1  0
 21 22  1  0
 22 23  1  0
 10  2  1  0
 17 12  1  0
  9  4  1  0
 23 15  1  0
  3 24  1  0
  3 25  1  0
  5 26  1  0
  6 27  1  0
  7 28  1  0
  8 29  1  0
 11 30  1  0
 13 31  1  0
 14 32  1  0
 22 33  1  0
 22 34  1  0
M  CHG  1  20  -1
M  END
>  <meeko>  (7) 
{"is_sidechain": [false], "free_energy": -7.667, "intermolecular_energy": -7.679, "internal_energy": -1.027}

$$$$
3zt2_ligand
     RDKit          3D

 34 37  0  0  0  0  0  0  0  0999 V2000
  -37.9490   31.1100    0.0750 O   0  0  0  0  0  0  0  0  0  0  0  0
  -36.9670   31.8310   -0.0260 C   0  0  0  0  0  0  0  0  0  0  0  0
  -37.0080   33.3040   -0.3850 C   0  0  0  0  0  0  0  0  0  0  0  0
  -35.5500   33.6630   -0.5010 C   0  0  0  0  0  0  0  0  0  0  0  0
  -35.0400   34.9110   -0.8370 C   0  0  0  0  0  0  0  0  0  0  0  0
  -33.6560   35.0780   -0.8620 C   0  0  0  0  0  0  0  0  0  0  0  0
  -32.8060   34.0110   -0.5440 C   0  0  0  0  0  0  0  0  0  0  0  0
  -33.3250   32.7560   -0.2090 C   0  0  0  0  0  0  0  0  0  0  0  0
  -34.7000   32.5790   -0.1990 C   0  0  0  0  0  0  0  0  0  0  0  0
  -35.5300   31.4070    0.1090 C   0  0  0  0  0  0  0  0  0  0  0  0
  -35.2380   30.1400    0.4360 C   0  0  0  0  0  0  0  0  0  0  0  0
  -33.8940   29.5610    0.5420 C   0  0  0  0  0  0  0  0  0  0  0  0
  -33.0840   29.9940    1.6180 C   0  0  0  0  0  0  0  0  0  0  0  0
  -31.7970   29.4830    1.8000 C   0  0  0  0  0  0  0  0  0  0  0  0
  -31.3500   28.5480    0.8930 C   0  0  0  0  0  0  0  0  0  0  0  0
  -32.1270   28.1190   -0.1630 C   0  0  0  0  0  0  0  0  0  0  0  0
  -33.4100   28.6010   -0.3710 C   0  0  0  0  0  0  0  0  0  0  0  0
  -34.2330   28.1050   -1.5100 C   0  0  0  0  0  0  0  0  0  0  0  0
  -34.7250   26.9400   -1.3910 O   0  0  0  0  0  0  0  0  0  0  0  0
  -34.3540   28.8840   -2.5070 O   0  0  0  0  0  0  0  0  0  0  0  0
  -31.4650   27.2070   -0.9300 O   0  0  0  0  0  0  0  0  0  0  0  0
  -30.2180   27.0980   -0.2310 C   0  0  0  0  0  0  0  0  0  0  0  0
  -30.1250   27.9560    0.9240 O   0  0  0  0  0  0  0  0  0  0  0  0
  -37.5321   33.4644   -1.3387 H   0  0  0  0  0  0  0  0  0  0  0  0
  -37.5486   33.9158    0.3522 H   0  0  0  0  0  0  0  0  0  0  0  0
  -35.7124   35.7477   -1.0776 H   0  0  0  0  0  0  0  0  0  0  0  0
  -33.2286   36.0546   -1.1334 H   0  0  0  0  0  0  0  0  0  0  0  0
  -31.7165   34.1619   -0.5579 H   0  0  0  0  0  0  0  0  0  0  0  0
  -32.6527   31.9225    0.0426 H   0  0  0  0  0  0  0  0  0  0  0  0
  -36.0862   29.4714    0.6445 H   0  0  0  0  0  0  0  0  0  0  0  0
  -33.4736   30.7443    2.3218 H   0  0  0  0  0  0  0  0  0  0  0  0
  -31.1642   29.8149    2.6363 H   0  0  0  0  0  0  0  0  0  0  0  0
  -30.0948   26.0560    0.0994 H   0  0  0  0  0  0  0  0  0  0  0  0
  -29.4288   27.4123   -0.9298 H   0  0  0  0  0  0  0  0  0  0  0  0
  1  2  2  0
  2  3  1  0
  3  4  1  0
  4  5  2  0
  5  6  1  0
  6  7  2  0
  7  8  1  0
  8  9  2  0
  9 10  1  0
 10 11  2  0
 11 12  1  0
 12 13  2  0
 13 14  1  0
 14 15  2  0
 15 16  1  0
 16 17  2  0
 17 18  1  0
 18 19  2  0
 18 20  1  0
 16 21  1  0
 21 22  1  0
 22 23  1  0
 10  2  1  0
 17 12  1  0
  9  4  1  0
 23 15  1  0
  3 24  1  0
  3 25  1  0
  5 26  1  0
  6 27  1  0
  7 28  1  0
  8 29  1  0
 11 30  1  0
 13 31  1  0
 14 32  1  0
 22 33  1  0
 22 34  1  0
M  CHG  1  20  -1
M  END
>  <meeko>  (8) 
{"is_sidechain": [false], "free_energy": -7.526, "intermolecular_energy": -7.917, "internal_energy": -0.631}

$$$$
