3ehy_ligand
     RDKit          3D

 29 29  0  0  0  0  0  0  0  0999 V2000
   -6.3570   -7.3230  -10.3060 C   0  0  0  0  0  0  0  0  0  0  0  0
   -6.4420   -7.0220   -8.9190 O   0  0  0  0  0  0  0  0  0  0  0  0
   -5.2870   -6.6210   -8.3040 C   0  0  0  0  0  0  0  0  0  0  0  0
   -5.1400   -6.3350   -6.9440 C   0  0  0  0  0  0  0  0  0  0  0  0
   -3.8980   -5.9310   -6.4420 C   0  0  0  0  0  0  0  0  0  0  0  0
   -2.8040   -5.8210   -7.3030 C   0  0  0  0  0  0  0  0  0  0  0  0
   -1.2350   -5.2890   -6.6480 S   0  0  0  0  0  0  0  0  0  0  0  0
   -0.3560   -5.1290   -7.7880 O   0  0  0  0  0  0  0  0  0  0  0  0
   -0.8920   -6.1640   -5.5490 O   0  0  0  0  0  0  0  0  0  0  0  0
   -1.6300   -3.7580   -6.0800 N   0  0  0  0  0  0  0  0  0  0  0  0
   -1.2320   -3.4280   -4.6620 C   0  0  2  0  0  0  0  0  0  0  0  0
   -2.4480   -3.6200   -3.7720 C   0  0  0  0  0  0  0  0  0  0  0  0
   -0.8240   -1.9240   -4.6090 C   0  0  0  0  0  0  0  0  0  0  0  0
    0.2600   -1.6660   -4.0180 O   0  0  0  0  0  0  0  0  0  0  0  0
   -1.6660   -1.1460   -5.1610 O   0  0  0  0  0  0  0  0  0  0  0  0
   -2.9400   -6.0980   -8.6640 C   0  0  0  0  0  0  0  0  0  0  0  0
   -4.1840   -6.4990   -9.1570 C   0  0  0  0  0  0  0  0  0  0  0  0
   -6.0601   -8.3742  -10.4355 H   0  0  0  0  0  0  0  0  0  0  0  0
   -7.3369   -7.1579  -10.7778 H   0  0  0  0  0  0  0  0  0  0  0  0
   -5.6082   -6.6697  -10.7778 H   0  0  0  0  0  0  0  0  0  0  0  0
   -6.0021   -6.4276   -6.2671 H   0  0  0  0  0  0  0  0  0  0  0  0
   -3.7837   -5.7007   -5.3725 H   0  0  0  0  0  0  0  0  0  0  0  0
   -1.1570   -3.0480   -6.6750 H   0  0  0  0  0  0  0  0  0  0  0  0
   -0.4016   -4.0691   -4.3312 H   0  0  0  0  0  0  0  0  0  0  0  0
   -2.1413   -3.5716   -2.7167 H   0  0  0  0  0  0  0  0  0  0  0  0
   -3.1817   -2.8266   -3.9774 H   0  0  0  0  0  0  0  0  0  0  0  0
   -2.9015   -4.6009   -3.9774 H   0  0  0  0  0  0  0  0  0  0  0  0
   -2.0779   -6.0017   -9.3405 H   0  0  0  0  0  0  0  0  0  0  0  0
   -4.2981   -6.7215  -10.2282 H   0  0  0  0  0  0  0  0  0  0  0  0
  1  2  1  0
  2  3  1  0
  3  4  2  0
  4  5  1  0
  5  6  2  0
  6  7  1  0
  7  8  2  0
  7  9  2  0
  7 10  1  0
 10 11  1  0
 11 12  1  0
 11 13  1  0
 13 14  2  0
 13 15  1  0
  6 16  1  0
 16 17  2  0
 17  3  1  0
  1 18  1  0
  1 19  1  0
  1 20  1  0
  4 21  1  0
  5 22  1  0
 10 23  1  0
 11 24  1  1
 12 25  1  0
 12 26  1  0
 12 27  1  0
 16 28  1  0
 17 29  1  0
M  CHG  1  15  -1
M  END
>  <meeko>  (1) 
{"is_sidechain": [false], "free_energy": -7.324, "intermolecular_energy": -9.465, "internal_energy": -0.396}

$$$$
3ehy_ligand
     RDKit          3D

 29 29  0  0  0  0  0  0  0  0999 V2000
   -6.6650   -7.1980  -10.1130 C   0  0  0  0  0  0  0  0  0  0  0  0
   -6.4550   -7.0080   -8.7200 O   0  0  0  0  0  0  0  0  0  0  0  0
   -5.2040   -6.6040   -8.3370 C   0  0  0  0  0  0  0  0  0  0  0  0
   -4.0950   -6.4640   -9.1770 C   0  0  0  0  0  0  0  0  0  0  0  0
   -2.8680   -6.0430   -8.6540 C   0  0  0  0  0  0  0  0  0  0  0  0
   -2.7550   -5.7570   -7.2910 C   0  0  0  0  0  0  0  0  0  0  0  0
   -1.1790   -5.2380   -6.6430 S   0  0  0  0  0  0  0  0  0  0  0  0
   -0.3030   -5.0900   -7.7870 O   0  0  0  0  0  0  0  0  0  0  0  0
   -0.8400   -6.1150   -5.5440 O   0  0  0  0  0  0  0  0  0  0  0  0
   -1.5560   -3.7030   -6.0760 N   0  0  0  0  0  0  0  0  0  0  0  0
   -1.2460   -3.4100   -4.6290 C   0  0  2  0  0  0  0  0  0  0  0  0
   -2.5110   -3.6340   -3.8180 C   0  0  0  0  0  0  0  0  0  0  0  0
   -0.8530   -1.9050   -4.5110 C   0  0  0  0  0  0  0  0  0  0  0  0
   -1.6870   -1.0780   -4.9720 O   0  0  0  0  0  0  0  0  0  0  0  0
    0.2860   -1.7150   -3.9750 O   0  0  0  0  0  0  0  0  0  0  0  0
   -3.8530   -5.8990   -6.4430 C   0  0  0  0  0  0  0  0  0  0  0  0
   -5.0740   -6.3220   -6.9720 C   0  0  0  0  0  0  0  0  0  0  0  0
   -7.4728   -7.9289  -10.2657 H   0  0  0  0  0  0  0  0  0  0  0  0
   -6.9449   -6.2401  -10.5756 H   0  0  0  0  0  0  0  0  0  0  0  0
   -5.7398   -7.5721  -10.5756 H   0  0  0  0  0  0  0  0  0  0  0  0
   -4.1876   -6.6852  -10.2505 H   0  0  0  0  0  0  0  0  0  0  0  0
   -1.9943   -5.9373   -9.3139 H   0  0  0  0  0  0  0  0  0  0  0  0
   -1.0190   -3.0020   -6.6250 H   0  0  0  0  0  0  0  0  0  0  0  0
   -0.4320   -4.0552   -4.2669 H   0  0  0  0  0  0  0  0  0  0  0  0
   -2.2712   -3.5915   -2.7453 H   0  0  0  0  0  0  0  0  0  0  0  0
   -3.2455   -2.8519   -4.0607 H   0  0  0  0  0  0  0  0  0  0  0  0
   -2.9323   -4.6207   -4.0607 H   0  0  0  0  0  0  0  0  0  0  0  0
   -3.7582   -5.6802   -5.3692 H   0  0  0  0  0  0  0  0  0  0  0  0
   -5.9440   -6.4350   -6.3084 H   0  0  0  0  0  0  0  0  0  0  0  0
  1  2  1  0
  2  3  1  0
  3  4  2  0
  4  5  1  0
  5  6  2  0
  6  7  1  0
  7  8  2  0
  7  9  2  0
  7 10  1  0
 10 11  1  0
 11 12  1  0
 11 13  1  0
 13 14  2  0
 13 15  1  0
  6 16  1  0
 16 17  2  0
 17  3  1  0
  1 18  1  0
  1 19  1  0
  1 20  1  0
  4 21  1  0
  5 22  1  0
 10 23  1  0
 11 24  1  1
 12 25  1  0
 12 26  1  0
 12 27  1  0
 16 28  1  0
 17 29  1  0
M  CHG  1  15  -1
M  END
>  <meeko>  (2) 
{"is_sidechain": [false], "free_energy": -7.31, "intermolecular_energy": -9.463, "internal_energy": -0.379}

$$$$
3ehy_ligand
     RDKit          3D

 29 29  0  0  0  0  0  0  0  0999 V2000
   -7.0900   -8.3100  -10.4210 C   0  0  0  0  0  0  0  0  0  0  0  0
   -7.1240   -7.1700   -9.5710 O   0  0  0  0  0  0  0  0  0  0  0  0
   -5.9370   -6.7910   -9.0040 C   0  0  0  0  0  0  0  0  0  0  0  0
   -4.7450   -6.5390   -9.6890 C   0  0  0  0  0  0  0  0  0  0  0  0
   -3.5980   -6.1580   -8.9850 C   0  0  0  0  0  0  0  0  0  0  0  0
   -3.6490   -6.0240   -7.5950 C   0  0  0  0  0  0  0  0  0  0  0  0
   -2.1730   -5.5540   -6.7150 S   0  0  0  0  0  0  0  0  0  0  0  0
   -2.5560   -4.4630   -5.8420 O   0  0  0  0  0  0  0  0  0  0  0  0
   -1.1070   -5.4070   -7.6820 O   0  0  0  0  0  0  0  0  0  0  0  0
   -1.9220   -6.9150   -5.7650 N   0  0  0  0  0  0  0  0  0  0  0  0
   -1.6020   -6.6860   -4.3080 C   0  0  2  0  0  0  0  0  0  0  0  0
   -0.1150   -6.3990   -4.1890 C   0  0  0  0  0  0  0  0  0  0  0  0
   -1.9060   -8.0020   -3.5300 C   0  0  0  0  0  0  0  0  0  0  0  0
   -1.8940   -7.9160   -2.2710 O   0  0  0  0  0  0  0  0  0  0  0  0
   -2.1070   -9.0070   -4.2840 O   0  0  0  0  0  0  0  0  0  0  0  0
   -4.8320   -6.2790   -6.9010 C   0  0  0  0  0  0  0  0  0  0  0  0
   -5.9720   -6.6600   -7.6110 C   0  0  0  0  0  0  0  0  0  0  0  0
   -7.0628   -9.2233   -9.8086 H   0  0  0  0  0  0  0  0  0  0  0  0
   -7.9882   -8.3209  -11.0559 H   0  0  0  0  0  0  0  0  0  0  0  0
   -6.1927   -8.2674  -11.0559 H   0  0  0  0  0  0  0  0  0  0  0  0
   -4.7089   -6.6405  -10.7837 H   0  0  0  0  0  0  0  0  0  0  0  0
   -2.6588   -5.9645   -9.5238 H   0  0  0  0  0  0  0  0  0  0  0  0
   -2.7870   -7.4940   -5.7730 H   0  0  0  0  0  0  0  0  0  0  0  0
   -2.1940   -5.8504   -3.9064 H   0  0  0  0  0  0  0  0  0  0  0  0
    0.1641   -6.3451   -3.1264 H   0  0  0  0  0  0  0  0  0  0  0  0
    0.4540   -7.2039   -4.6772 H   0  0  0  0  0  0  0  0  0  0  0  0
    0.1136   -5.4402   -4.6772 H   0  0  0  0  0  0  0  0  0  0  0  0
   -4.8662   -6.1809   -5.8059 H   0  0  0  0  0  0  0  0  0  0  0  0
   -6.9084   -6.8595   -7.0695 H   0  0  0  0  0  0  0  0  0  0  0  0
  1  2  1  0
  2  3  1  0
  3  4  2  0
  4  5  1  0
  5  6  2  0
  6  7  1  0
  7  8  2  0
  7  9  2  0
  7 10  1  0
 10 11  1  0
 11 12  1  0
 11 13  1  0
 13 14  2  0
 13 15  1  0
  6 16  1  0
 16 17  2  0
 17  3  1  0
  1 18  1  0
  1 19  1  0
  1 20  1  0
  4 21  1  0
  5 22  1  0
 10 23  1  0
 11 24  1  1
 12 25  1  0
 12 26  1  0
 12 27  1  0
 16 28  1  0
 17 29  1  0
M  CHG  1  15  -1
M  END
>  <meeko>  (3) 
{"is_sidechain": [false], "free_energy": -7.283, "intermolecular_energy": -9.478, "internal_energy": -0.329}

$$$$
3ehy_ligand
     RDKit          3D

 29 29  0  0  0  0  0  0  0  0999 V2000
   -6.4410   -7.2220   -9.2290 C   0  0  0  0  0  0  0  0  0  0  0  0
   -5.1830   -6.6720   -9.5970 O   0  0  0  0  0  0  0  0  0  0  0  0
   -4.3400   -6.3260   -8.5760 C   0  0  0  0  0  0  0  0  0  0  0  0
   -4.6840   -6.2360   -7.2240 C   0  0  0  0  0  0  0  0  0  0  0  0
   -3.7230   -5.8680   -6.2780 C   0  0  0  0  0  0  0  0  0  0  0  0
   -2.4140   -5.5970   -6.6870 C   0  0  0  0  0  0  0  0  0  0  0  0
   -1.2080   -5.1130   -5.4680 S   0  0  0  0  0  0  0  0  0  0  0  0
   -1.5430   -3.7560   -5.0870 O   0  0  0  0  0  0  0  0  0  0  0  0
    0.1020   -5.4490   -5.9800 O   0  0  0  0  0  0  0  0  0  0  0  0
   -1.6200   -6.1250   -4.1930 N   0  0  0  0  0  0  0  0  0  0  0  0
   -0.7680   -7.3540   -3.9890 C   0  0  2  0  0  0  0  0  0  0  0  0
   -1.4430   -8.5200   -4.6910 C   0  0  0  0  0  0  0  0  0  0  0  0
   -0.7220   -7.6680   -2.4630 C   0  0  0  0  0  0  0  0  0  0  0  0
   -1.8330   -7.8960   -1.9110 O   0  0  0  0  0  0  0  0  0  0  0  0
    0.4500   -7.6270   -1.9680 O   0  0  0  0  0  0  0  0  0  0  0  0
   -2.0610   -5.6770   -8.0330 C   0  0  0  0  0  0  0  0  0  0  0  0
   -3.0270   -6.0430   -8.9720 C   0  0  0  0  0  0  0  0  0  0  0  0
   -6.5195   -7.2563   -8.1323 H   0  0  0  0  0  0  0  0  0  0  0  0
   -7.2483   -6.5947   -9.6349 H   0  0  0  0  0  0  0  0  0  0  0  0
   -6.5287   -8.2406   -9.6349 H   0  0  0  0  0  0  0  0  0  0  0  0
   -5.7133   -6.4553   -6.9039 H   0  0  0  0  0  0  0  0  0  0  0  0
   -3.9959   -5.7919   -5.2151 H   0  0  0  0  0  0  0  0  0  0  0  0
   -1.5530   -5.5890   -3.3040 H   0  0  0  0  0  0  0  0  0  0  0  0
    0.2459   -7.1939   -4.3843 H   0  0  0  0  0  0  0  0  0  0  0  0
   -1.8460   -9.2162   -3.9407 H   0  0  0  0  0  0  0  0  0  0  0  0
   -2.2632   -8.1441   -5.3203 H   0  0  0  0  0  0  0  0  0  0  0  0
   -0.7086   -9.0440   -5.3203 H   0  0  0  0  0  0  0  0  0  0  0  0
   -1.0321   -5.4541   -8.3520 H   0  0  0  0  0  0  0  0  0  0  0  0
   -2.7536   -6.1099  -10.0354 H   0  0  0  0  0  0  0  0  0  0  0  0
  1  2  1  0
  2  3  1  0
  3  4  2  0
  4  5  1  0
  5  6  2  0
  6  7  1  0
  7  8  2  0
  7  9  2  0
  7 10  1  0
 10 11  1  0
 11 12  1  0
 11 13  1  0
 13 14  2  0
 13 15  1  0
  6 16  1  0
 16 17  2  0
 17  3  1  0
  1 18  1  0
  1 19  1  0
  1 20  1  0
  4 21  1  0
  5 22  1  0
 10 23  1  0
 11 24  1  6
 12 25  1  0
 12 26  1  0
 12 27  1  0
 16 28  1  0
 17 29  1  0
M  CHG  1  15  -1
M  END
>  <meeko>  (4) 
{"is_sidechain": [false], "free_energy": -6.98, "intermolecular_energy": -8.957, "internal_energy": -0.459}

$$$$
3ehy_ligand
     RDKit          3D

 29 29  0  0  0  0  0  0  0  0999 V2000
   -6.5580   -7.0500   -8.4750 C   0  0  0  0  0  0  0  0  0  0  0  0
   -5.3310   -6.7430   -9.1240 O   0  0  0  0  0  0  0  0  0  0  0  0
   -4.3090   -6.2980   -8.3290 C   0  0  0  0  0  0  0  0  0  0  0  0
   -3.0390   -5.9120   -8.7670 C   0  0  0  0  0  0  0  0  0  0  0  0
   -2.0810   -5.4760   -7.8450 C   0  0  0  0  0  0  0  0  0  0  0  0
   -2.4000   -5.4230   -6.4860 C   0  0  0  0  0  0  0  0  0  0  0  0
   -1.1610   -4.8810   -5.3260 S   0  0  0  0  0  0  0  0  0  0  0  0
   -1.2170   -3.4340   -5.3240 O   0  0  0  0  0  0  0  0  0  0  0  0
    0.0660   -5.5870   -5.6250 O   0  0  0  0  0  0  0  0  0  0  0  0
   -1.8170   -5.4270   -3.8800 N   0  0  0  0  0  0  0  0  0  0  0  0
   -0.8870   -5.5180   -2.6950 C   0  0  2  0  0  0  0  0  0  0  0  0
   -1.2010   -6.8010   -1.9440 C   0  0  0  0  0  0  0  0  0  0  0  0
   -1.1860   -4.3160   -1.7490 C   0  0  0  0  0  0  0  0  0  0  0  0
   -2.1330   -3.5590   -2.0970 O   0  0  0  0  0  0  0  0  0  0  0  0
   -0.4040   -4.2490   -0.7460 O   0  0  0  0  0  0  0  0  0  0  0  0
   -3.6620   -5.8120   -6.0370 C   0  0  0  0  0  0  0  0  0  0  0  0
   -4.6120   -6.2470   -6.9630 C   0  0  0  0  0  0  0  0  0  0  0  0
   -6.4152   -7.0143   -7.3849 H   0  0  0  0  0  0  0  0  0  0  0  0
   -7.3221   -6.3154   -8.7690 H   0  0  0  0  0  0  0  0  0  0  0  0
   -6.8861   -8.0579   -8.7690 H   0  0  0  0  0  0  0  0  0  0  0  0
   -2.7923   -5.9510   -9.8383 H   0  0  0  0  0  0  0  0  0  0  0  0
   -1.0802   -5.1760   -8.1891 H   0  0  0  0  0  0  0  0  0  0  0  0
   -2.5760   -4.7780   -3.5900 H   0  0  0  0  0  0  0  0  0  0  0  0
    0.1632   -5.5047   -3.0220 H   0  0  0  0  0  0  0  0  0  0  0  0
   -1.1549   -6.6127   -0.8612 H   0  0  0  0  0  0  0  0  0  0  0  0
   -2.2101   -7.1461   -2.2135 H   0  0  0  0  0  0  0  0  0  0  0  0
   -0.4653   -7.5731   -2.2135 H   0  0  0  0  0  0  0  0  0  0  0  0
   -3.9061   -5.7764   -4.9650 H   0  0  0  0  0  0  0  0  0  0  0  0
   -5.6098   -6.5531   -6.6155 H   0  0  0  0  0  0  0  0  0  0  0  0
  1  2  1  0
  2  3  1  0
  3  4  2  0
  4  5  1  0
  5  6  2  0
  6  7  1  0
  7  8  2  0
  7  9  2  0
  7 10  1  0
 10 11  1  0
 11 12  1  0
 11 13  1  0
 13 14  2  0
 13 15  1  0
  6 16  1  0
 16 17  2  0
 17  3  1  0
  1 18  1  0
  1 19  1  0
  1 20  1  0
  4 21  1  0
  5 22  1  0
 10 23  1  0
 11 24  1  6
 12 25  1  0
 12 26  1  0
 12 27  1  0
 16 28  1  0
 17 29  1  0
M  CHG  1  15  -1
M  END
>  <meeko>  (5) 
{"is_sidechain": [false], "free_energy": -6.528, "intermolecular_energy": -8.453, "internal_energy": -0.379}

$$$$
3ehy_ligand
     RDKit          3D

 29 29  0  0  0  0  0  0  0  0999 V2000
   -5.0920   -6.6690   -9.7790 C   0  0  0  0  0  0  0  0  0  0  0  0
   -5.3850   -6.5920   -8.3900 O   0  0  0  0  0  0  0  0  0  0  0  0
   -4.3610   -6.2080   -7.5660 C   0  0  0  0  0  0  0  0  0  0  0  0
   -4.4700   -5.9290   -6.2000 C   0  0  0  0  0  0  0  0  0  0  0  0
   -3.3400   -5.5430   -5.4710 C   0  0  0  0  0  0  0  0  0  0  0  0
   -2.1010   -5.4440   -6.1110 C   0  0  0  0  0  0  0  0  0  0  0  0
   -0.6780   -4.9340   -5.1680 S   0  0  0  0  0  0  0  0  0  0  0  0
    0.4730   -5.4960   -5.8440 O   0  0  0  0  0  0  0  0  0  0  0  0
   -0.9440   -5.2140   -3.7750 O   0  0  0  0  0  0  0  0  0  0  0  0
   -0.6870   -3.2790   -5.4480 N   0  0  0  0  0  0  0  0  0  0  0  0
   -1.1070   -2.3910   -4.3030 C   0  0  2  0  0  0  0  0  0  0  0  0
   -1.4200   -1.0130   -4.8610 C   0  0  0  0  0  0  0  0  0  0  0  0
    0.0990   -2.2540   -3.3240 C   0  0  0  0  0  0  0  0  0  0  0  0
    1.1620   -1.7880   -3.8170 O   0  0  0  0  0  0  0  0  0  0  0  0
   -0.1520   -2.6610   -2.1440 O   0  0  0  0  0  0  0  0  0  0  0  0
   -1.9830   -5.7140   -7.4740 C   0  0  0  0  0  0  0  0  0  0  0  0
   -3.1160   -6.0970   -8.1950 C   0  0  0  0  0  0  0  0  0  0  0  0
   -4.0364   -6.9464   -9.9162 H   0  0  0  0  0  0  0  0  0  0  0  0
   -5.7347   -7.4287  -10.2477 H   0  0  0  0  0  0  0  0  0  0  0  0
   -5.2781   -5.6914  -10.2477 H   0  0  0  0  0  0  0  0  0  0  0  0
   -5.4452   -6.0131   -5.6982 H   0  0  0  0  0  0  0  0  0  0  0  0
   -3.4261   -5.3181   -4.3977 H   0  0  0  0  0  0  0  0  0  0  0  0
    0.2770   -2.9760   -5.6970 H   0  0  0  0  0  0  0  0  0  0  0  0
   -1.9827   -2.8116   -3.7870 H   0  0  0  0  0  0  0  0  0  0  0  0
   -1.5799   -0.3090   -4.0311 H   0  0  0  0  0  0  0  0  0  0  0  0
   -0.5775   -0.6672   -5.4780 H   0  0  0  0  0  0  0  0  0  0  0  0
   -2.3292   -1.0651   -5.4780 H   0  0  0  0  0  0  0  0  0  0  0  0
   -1.0081   -5.6263   -7.9758 H   0  0  0  0  0  0  0  0  0  0  0  0
   -3.0287   -6.3139   -9.2699 H   0  0  0  0  0  0  0  0  0  0  0  0
  1  2  1  0
  2  3  1  0
  3  4  2  0
  4  5  1  0
  5  6  2  0
  6  7  1  0
  7  8  2  0
  7  9  2  0
  7 10  1  0
 10 11  1  0
 11 12  1  0
 11 13  1  0
 13 14  2  0
 13 15  1  0
  6 16  1  0
 16 17  2  0
 17  3  1  0
  1 18  1  0
  1 19  1  0
  1 20  1  0
  4 21  1  0
  5 22  1  0
 10 23  1  0
 11 24  1  1
 12 25  1  0
 12 26  1  0
 12 27  1  0
 16 28  1  0
 17 29  1  0
M  CHG  1  15  -1
M  END
>  <meeko>  (6) 
{"is_sidechain": [false], "free_energy": -6.524, "intermolecular_energy": -8.637, "internal_energy": -0.19}

$$$$
3ehy_ligand
     RDKit          3D

 29 29  0  0  0  0  0  0  0  0999 V2000
    1.2680    0.4860   -2.5270 C   0  0  0  0  0  0  0  0  0  0  0  0
   -0.0480    0.1480   -2.9470 O   0  0  0  0  0  0  0  0  0  0  0  0
   -0.2270   -1.1100   -3.4570 C   0  0  0  0  0  0  0  0  0  0  0  0
    0.4670   -2.2590   -3.0650 C   0  0  0  0  0  0  0  0  0  0  0  0
    0.1870   -3.4880   -3.6710 C   0  0  0  0  0  0  0  0  0  0  0  0
   -0.7920   -3.5650   -4.6650 C   0  0  0  0  0  0  0  0  0  0  0  0
   -1.1210   -5.1370   -5.4370 S   0  0  0  0  0  0  0  0  0  0  0  0
   -1.5470   -6.0250   -4.3750 O   0  0  0  0  0  0  0  0  0  0  0  0
    0.0060   -5.4610   -6.2830 O   0  0  0  0  0  0  0  0  0  0  0  0
   -2.4670   -4.7590   -6.3670 N   0  0  0  0  0  0  0  0  0  0  0  0
   -2.9580   -5.8170   -7.3250 C   0  0  2  0  0  0  0  0  0  0  0  0
   -2.9280   -5.2370   -8.7290 C   0  0  0  0  0  0  0  0  0  0  0  0
   -4.4390   -6.1480   -6.9670 C   0  0  0  0  0  0  0  0  0  0  0  0
   -4.7340   -6.1110   -5.7420 O   0  0  0  0  0  0  0  0  0  0  0  0
   -5.1570   -6.4360   -7.9790 O   0  0  0  0  0  0  0  0  0  0  0  0
   -1.4860   -2.4240   -5.0680 C   0  0  0  0  0  0  0  0  0  0  0  0
   -1.1990   -1.2000   -4.4590 C   0  0  0  0  0  0  0  0  0  0  0  0
    1.3106    0.4970   -1.4279 H   0  0  0  0  0  0  0  0  0  0  0  0
    1.9791   -0.2587   -2.9141 H   0  0  0  0  0  0  0  0  0  0  0  0
    1.5322    1.4812   -2.9141 H   0  0  0  0  0  0  0  0  0  0  0  0
    1.2341   -2.1961   -2.2791 H   0  0  0  0  0  0  0  0  0  0  0  0
    0.7358   -4.3912   -3.3660 H   0  0  0  0  0  0  0  0  0  0  0  0
   -3.2680   -4.5630   -5.7340 H   0  0  0  0  0  0  0  0  0  0  0  0
   -2.3313   -6.7189   -7.2631 H   0  0  0  0  0  0  0  0  0  0  0  0
   -2.8713   -4.1400   -8.6714 H   0  0  0  0  0  0  0  0  0  0  0  0
   -2.0486   -5.6220   -9.2660 H   0  0  0  0  0  0  0  0  0  0  0  0
   -3.8425   -5.5292   -9.2660 H   0  0  0  0  0  0  0  0  0  0  0  0
   -2.2505   -2.4874   -5.8563 H   0  0  0  0  0  0  0  0  0  0  0  0
   -1.7436   -0.2966   -4.7709 H   0  0  0  0  0  0  0  0  0  0  0  0
  1  2  1  0
  2  3  1  0
  3  4  2  0
  4  5  1  0
  5  6  2  0
  6  7  1  0
  7  8  2  0
  7  9  2  0
  7 10  1  0
 10 11  1  0
 11 12  1  0
 11 13  1  0
 13 14  2  0
 13 15  1  0
  6 16  1  0
 16 17  2  0
 17  3  1  0
  1 18  1  0
  1 19  1  0
  1 20  1  0
  4 21  1  0
  5 22  1  0
 10 23  1  0
 11 24  1  6
 12 25  1  0
 12 26  1  0
 12 27  1  0
 16 28  1  0
 17 29  1  0
M  CHG  1  15  -1
M  END
>  <meeko>  (7) 
{"is_sidechain": [false], "free_energy": -6.363, "intermolecular_energy": -8.243, "internal_energy": -0.376}

$$$$
3ehy_ligand
     RDKit          3D

 29 29  0  0  0  0  0  0  0  0999 V2000
   -0.4060   -9.8310   -1.5360 C   0  0  0  0  0  0  0  0  0  0  0  0
   -1.5780   -9.0990   -1.8690 O   0  0  0  0  0  0  0  0  0  0  0  0
   -1.4540   -8.1500   -2.8490 C   0  0  0  0  0  0  0  0  0  0  0  0
   -1.4800   -8.3870   -4.2270 C   0  0  0  0  0  0  0  0  0  0  0  0
   -1.3390   -7.3240   -5.1240 C   0  0  0  0  0  0  0  0  0  0  0  0
   -1.1770   -6.0230   -4.6390 C   0  0  0  0  0  0  0  0  0  0  0  0
   -0.9810   -4.6850   -5.7990 S   0  0  0  0  0  0  0  0  0  0  0  0
   -0.0570   -5.1600   -6.8080 O   0  0  0  0  0  0  0  0  0  0  0  0
   -0.7180   -3.4790   -5.0460 O   0  0  0  0  0  0  0  0  0  0  0  0
   -2.5130   -4.6300   -6.4840 N   0  0  0  0  0  0  0  0  0  0  0  0
   -2.8620   -5.7140   -7.4740 C   0  0  2  0  0  0  0  0  0  0  0  0
   -2.8370   -5.1090   -8.8680 C   0  0  0  0  0  0  0  0  0  0  0  0
   -4.3160   -6.1930   -7.1790 C   0  0  0  0  0  0  0  0  0  0  0  0
   -4.6630   -6.1930   -5.9660 O   0  0  0  0  0  0  0  0  0  0  0  0
   -4.9580   -6.5480   -8.2190 O   0  0  0  0  0  0  0  0  0  0  0  0
   -1.1420   -5.7760   -3.2670 C   0  0  0  0  0  0  0  0  0  0  0  0
   -1.2820   -6.8440   -2.3780 C   0  0  0  0  0  0  0  0  0  0  0  0
   -0.3097   -9.8911   -0.4419 H   0  0  0  0  0  0  0  0  0  0  0  0
   -0.4764  -10.8460   -1.9542 H   0  0  0  0  0  0  0  0  0  0  0  0
    0.4752   -9.3224   -1.9542 H   0  0  0  0  0  0  0  0  0  0  0  0
   -1.6116   -9.4113   -4.6057 H   0  0  0  0  0  0  0  0  0  0  0  0
   -1.3555   -7.5108   -6.2079 H   0  0  0  0  0  0  0  0  0  0  0  0
   -3.2220   -4.7050   -5.7260 H   0  0  0  0  0  0  0  0  0  0  0  0
   -2.1530   -6.5517   -7.3996 H   0  0  0  0  0  0  0  0  0  0  0  0
   -2.7917   -4.0126   -8.7911 H   0  0  0  0  0  0  0  0  0  0  0  0
   -1.9532   -5.4753   -9.4109 H   0  0  0  0  0  0  0  0  0  0  0  0
   -3.7480   -5.4012   -9.4109 H   0  0  0  0  0  0  0  0  0  0  0  0
   -1.0057   -4.7519   -2.8893 H   0  0  0  0  0  0  0  0  0  0  0  0
   -1.2567   -6.6560   -1.2945 H   0  0  0  0  0  0  0  0  0  0  0  0
  1  2  1  0
  2  3  1  0
  3  4  2  0
  4  5  1  0
  5  6  2  0
  6  7  1  0
  7  8  2  0
  7  9  2  0
  7 10  1  0
 10 11  1  0
 11 12  1  0
 11 13  1  0
 13 14  2  0
 13 15  1  0
  6 16  1  0
 16 17  2  0
 17  3  1  0
  1 18  1  0
  1 19  1  0
  1 20  1  0
  4 21  1  0
  5 22  1  0
 10 23  1  0
 11 24  1  6
 12 25  1  0
 12 26  1  0
 12 27  1  0
 16 28  1  0
 17 29  1  0
M  CHG  1  15  -1
M  END
>  <meeko>  (8) 
{"is_sidechain": [false], "free_energy": -6.287, "intermolecular_energy": -8.339, "internal_energy": -0.182}

$$$$
3ehy_ligand
     RDKit          3D

 29 29  0  0  0  0  0  0  0  0999 V2000
   -1.6740   -1.4890   -0.9450 C   0  0  0  0  0  0  0  0  0  0  0  0
   -0.6100   -1.6790   -1.8690 O   0  0  0  0  0  0  0  0  0  0  0  0
   -0.8470   -2.5320   -2.9130 C   0  0  0  0  0  0  0  0  0  0  0  0
   -2.0730   -2.7160   -3.5580 C   0  0  0  0  0  0  0  0  0  0  0  0
   -2.1800   -3.6250   -4.6160 C   0  0  0  0  0  0  0  0  0  0  0  0
   -1.0560   -4.3440   -5.0300 C   0  0  0  0  0  0  0  0  0  0  0  0
   -1.2170   -5.5090   -6.3680 S   0  0  0  0  0  0  0  0  0  0  0  0
   -1.2030   -6.8240   -5.7590 O   0  0  0  0  0  0  0  0  0  0  0  0
   -0.2650   -5.1440   -7.3930 O   0  0  0  0  0  0  0  0  0  0  0  0
   -2.7850   -5.1920   -6.8800 N   0  0  0  0  0  0  0  0  0  0  0  0
   -3.5070   -6.3000   -7.6060 C   0  0  2  0  0  0  0  0  0  0  0  0
   -3.5670   -5.9400   -9.0810 C   0  0  0  0  0  0  0  0  0  0  0  0
   -4.9670   -6.3670   -7.0630 C   0  0  0  0  0  0  0  0  0  0  0  0
   -5.8620   -6.6320   -7.9120 O   0  0  0  0  0  0  0  0  0  0  0  0
   -5.0610   -6.1180   -5.8180 O   0  0  0  0  0  0  0  0  0  0  0  0
    0.1710   -4.1730   -4.3890 C   0  0  0  0  0  0  0  0  0  0  0  0
    0.2690   -3.2650   -3.3330 C   0  0  0  0  0  0  0  0  0  0  0  0
   -1.2849   -1.5585    0.0816 H   0  0  0  0  0  0  0  0  0  0  0  0
   -2.1222   -0.4966   -1.1009 H   0  0  0  0  0  0  0  0  0  0  0  0
   -2.4380   -2.2649   -1.1009 H   0  0  0  0  0  0  0  0  0  0  0  0
   -2.9554   -2.1451   -3.2332 H   0  0  0  0  0  0  0  0  0  0  0  0
   -3.1462   -3.7732   -5.1204 H   0  0  0  0  0  0  0  0  0  0  0  0
   -3.3710   -4.9750   -6.0490 H   0  0  0  0  0  0  0  0  0  0  0  0
   -2.9922   -7.2610   -7.4598 H   0  0  0  0  0  0  0  0  0  0  0  0
   -3.7470   -4.8601   -9.1878 H   0  0  0  0  0  0  0  0  0  0  0  0
   -2.6128   -6.2020   -9.5615 H   0  0  0  0  0  0  0  0  0  0  0  0
   -4.3847   -6.4973   -9.5615 H   0  0  0  0  0  0  0  0  0  0  0  0
    1.0518   -4.7473   -4.7120 H   0  0  0  0  0  0  0  0  0  0  0  0
    1.2345   -3.1240   -2.8251 H   0  0  0  0  0  0  0  0  0  0  0  0
  1  2  1  0
  2  3  1  0
  3  4  2  0
  4  5  1  0
  5  6  2  0
  6  7  1  0
  7  8  2  0
  7  9  2  0
  7 10  1  0
 10 11  1  0
 11 12  1  0
 11 13  1  0
 13 14  2  0
 13 15  1  0
  6 16  1  0
 16 17  2  0
 17  3  1  0
  1 18  1  0
  1 19  1  0
  1 20  1  0
  4 21  1  0
  5 22  1  0
 10 23  1  0
 11 24  1  6
 12 25  1  0
 12 26  1  0
 12 27  1  0
 16 28  1  0
 17 29  1  0
M  CHG  1  15  -1
M  END
>  <meeko>  (9) 
{"is_sidechain": [false], "free_energy": -6.094, "intermolecular_energy": -7.9, "internal_energy": -0.37}

$$$$
