3mss_ligand
     RDKit          3D

 42 43  0  0  0  0  0  0  0  0999 V2000
   17.0750    4.1030  -16.7110 C   0  0  0  0  0  0  0  0  0  0  0  0
   17.3730    3.0910  -15.7210 N   0  0  0  0  0  0  0  0  0  0  0  0
   16.4800    2.1000  -15.4180 C   0  0  0  0  0  0  0  0  0  0  0  0
   15.3790    1.9740  -15.9560 O   0  0  0  0  0  0  0  0  0  0  0  0
   16.8720    1.1020  -14.3120 C   0  0  1  0  0  0  0  0  0  0  0  0
   18.0160    1.7180  -13.5320 N   0  0  0  0  0  0  0  0  0  0  0  0
   15.7190    0.8170  -13.3410 C   0  0  0  0  0  0  0  0  0  0  0  0
   15.5620   -0.6500  -13.0260 C   0  0  0  0  0  0  0  0  0  0  0  0
   16.6870   -1.4700  -12.8740 C   0  0  0  0  0  0  0  0  0  0  0  0
   16.5480   -2.8240  -12.5470 C   0  0  0  0  0  0  0  0  0  0  0  0
   15.2800   -3.3750  -12.3740 C   0  0  0  0  0  0  0  0  0  0  0  0
   14.9990   -4.6690  -12.0470 O   0  0  0  0  0  0  0  0  0  0  0  0
   14.6100   -5.5470  -13.1020 C   0  0  0  0  0  0  0  0  0  0  0  0
   13.4320   -6.3580  -12.6280 C   0  0  0  0  0  0  0  0  0  0  0  0
   12.4210   -5.7540  -11.8650 C   0  0  0  0  0  0  0  0  0  0  0  0
   11.3310   -6.5000  -11.4160 C   0  0  0  0  0  0  0  0  0  0  0  0
   11.2410   -7.8570  -11.7190 C   0  0  0  0  0  0  0  0  0  0  0  0
   12.2440   -8.4710  -12.4680 C   0  0  0  0  0  0  0  0  0  0  0  0
   13.3370   -7.7260  -12.9180 C   0  0  0  0  0  0  0  0  0  0  0  0
   14.1570   -2.5630  -12.5350 C   0  0  0  0  0  0  0  0  0  0  0  0
   14.2900   -1.2130  -12.8660 C   0  0  0  0  0  0  0  0  0  0  0  0
   16.7990    5.0403  -16.2057 H   0  0  0  0  0  0  0  0  0  0  0  0
   17.9613    4.2728  -17.3400 H   0  0  0  0  0  0  0  0  0  0  0  0
   16.2381    3.7654  -17.3400 H   0  0  0  0  0  0  0  0  0  0  0  0
   18.2390    3.2040  -15.2010 H   0  0  0  0  0  0  0  0  0  0  0  0
   17.1480    0.1476  -14.7841 H   0  0  0  0  0  0  0  0  0  0  0  0
   18.8680    1.1570  -13.6940 H   0  0  0  0  0  0  0  0  0  0  0  0
   18.2000    2.7030  -13.7450 H   0  0  0  0  0  0  0  0  0  0  0  0
   17.8380    1.6130  -12.5230 H   0  0  0  0  0  0  0  0  0  0  0  0
   15.9091    1.3585  -12.4026 H   0  0  0  0  0  0  0  0  0  0  0  0
   14.7900    1.1503  -13.8267 H   0  0  0  0  0  0  0  0  0  0  0  0
   17.6920   -1.0450  -13.0132 H   0  0  0  0  0  0  0  0  0  0  0  0
   17.4415   -3.4542  -12.4264 H   0  0  0  0  0  0  0  0  0  0  0  0
   14.3263   -4.9611  -13.9887 H   0  0  0  0  0  0  0  0  0  0  0  0
   15.4448   -6.2106  -13.3719 H   0  0  0  0  0  0  0  0  0  0  0  0
   12.4885   -4.6840  -11.6190 H   0  0  0  0  0  0  0  0  0  0  0  0
   10.5416   -6.0163  -10.8220 H   0  0  0  0  0  0  0  0  0  0  0  0
   10.3793   -8.4435  -11.3676 H   0  0  0  0  0  0  0  0  0  0  0  0
   12.1747   -9.5430  -12.7049 H   0  0  0  0  0  0  0  0  0  0  0  0
   14.1283   -8.2164  -13.5039 H   0  0  0  0  0  0  0  0  0  0  0  0
   13.1533   -2.9921  -12.3994 H   0  0  0  0  0  0  0  0  0  0  0  0
   13.3934   -0.5903  -13.0014 H   0  0  0  0  0  0  0  0  0  0  0  0
  1  2  1  0
  2  3  1  0
  3  4  2  0
  3  5  1  0
  5  6  1  0
  5  7  1  0
  7  8  1  0
  8  9  2  0
  9 10  1  0
 10 11  2  0
 11 12  1  0
 12 13  1  0
 13 14  1  0
 14 15  2  0
 15 16  1  0
 16 17  2  0
 17 18  1  0
 18 19  2  0
 11 20  1  0
 20 21  2  0
 21  8  1  0
 19 14  1  0
  1 22  1  0
  1 23  1  0
  1 24  1  0
  2 25  1  0
  5 26  1  6
  6 27  1  0
  6 28  1  0
  6 29  1  0
  7 30  1  0
  7 31  1  0
  9 32  1  0
 10 33  1  0
 13 34  1  0
 13 35  1  0
 15 36  1  0
 16 37  1  0
 17 38  1  0
 18 39  1  0
 19 40  1  0
 20 41  1  0
 21 42  1  0
M  CHG  1   6   1
M  END
>  <meeko>  (1) 
{"is_sidechain": [false], "free_energy": -9.25, "intermolecular_energy": -12.765, "internal_energy": -0.57}

$$$$
3mss_ligand
     RDKit          3D

 42 43  0  0  0  0  0  0  0  0999 V2000
   11.0640  -12.2510  -10.4810 C   0  0  0  0  0  0  0  0  0  0  0  0
   11.3180  -11.1230  -11.3500 N   0  0  0  0  0  0  0  0  0  0  0  0
   12.5900  -10.6930  -11.6140 C   0  0  0  0  0  0  0  0  0  0  0  0
   13.6060  -11.2220  -11.1600 O   0  0  0  0  0  0  0  0  0  0  0  0
   12.7500   -9.4510  -12.5090 C   0  0  1  0  0  0  0  0  0  0  0  0
   12.5310   -9.8930  -13.9410 N   0  0  0  0  0  0  0  0  0  0  0  0
   11.7330   -8.3510  -12.1790 C   0  0  0  0  0  0  0  0  0  0  0  0
   12.3360   -6.9690  -12.1790 C   0  0  0  0  0  0  0  0  0  0  0  0
   11.7750   -5.9480  -11.4010 C   0  0  0  0  0  0  0  0  0  0  0  0
   12.3510   -4.6720  -11.3700 C   0  0  0  0  0  0  0  0  0  0  0  0
   13.4920   -4.4010  -12.1220 C   0  0  0  0  0  0  0  0  0  0  0  0
   14.1590   -3.2130  -12.1780 O   0  0  0  0  0  0  0  0  0  0  0  0
   15.5860   -3.2560  -12.1750 C   0  0  0  0  0  0  0  0  0  0  0  0
   16.0980   -1.8820  -12.5190 C   0  0  0  0  0  0  0  0  0  0  0  0
   17.4630   -1.5850  -12.3920 C   0  0  0  0  0  0  0  0  0  0  0  0
   17.9440   -0.3120  -12.7020 C   0  0  0  0  0  0  0  0  0  0  0  0
   17.0660    0.6780  -13.1380 C   0  0  0  0  0  0  0  0  0  0  0  0
   15.7050    0.3980  -13.2590 C   0  0  0  0  0  0  0  0  0  0  0  0
   15.2220   -0.8750  -12.9480 C   0  0  0  0  0  0  0  0  0  0  0  0
   14.0460   -5.4140  -12.9070 C   0  0  0  0  0  0  0  0  0  0  0  0
   13.4730   -6.6860  -12.9450 C   0  0  0  0  0  0  0  0  0  0  0  0
   11.1365  -11.9291   -9.4317 H   0  0  0  0  0  0  0  0  0  0  0  0
   10.0550  -12.6436  -10.6752 H   0  0  0  0  0  0  0  0  0  0  0  0
   11.8074  -13.0382  -10.6752 H   0  0  0  0  0  0  0  0  0  0  0  0
   10.5050  -10.6120  -11.6830 H   0  0  0  0  0  0  0  0  0  0  0  0
   13.7533   -9.0309  -12.3451 H   0  0  0  0  0  0  0  0  0  0  0  0
   13.2240  -10.6230  -14.1740 H   0  0  0  0  0  0  0  0  0  0  0  0
   11.5860  -10.2310  -14.1470 H   0  0  0  0  0  0  0  0  0  0  0  0
   12.7630   -9.1190  -14.5790 H   0  0  0  0  0  0  0  0  0  0  0  0
   10.9283   -8.3819  -12.9283 H   0  0  0  0  0  0  0  0  0  0  0  0
   11.3576   -8.5452  -11.1634 H   0  0  0  0  0  0  0  0  0  0  0  0
   10.8714   -6.1510  -10.8075 H   0  0  0  0  0  0  0  0  0  0  0  0
   11.9016   -3.8819  -10.7505 H   0  0  0  0  0  0  0  0  0  0  0  0
   15.9478   -3.5497  -11.1786 H   0  0  0  0  0  0  0  0  0  0  0  0
   15.9459   -3.9910  -12.9100 H   0  0  0  0  0  0  0  0  0  0  0  0
   18.1602   -2.3619  -12.0452 H   0  0  0  0  0  0  0  0  0  0  0  0
   19.0168   -0.0902  -12.6020 H   0  0  0  0  0  0  0  0  0  0  0  0
   17.4459    1.6799  -13.3867 H   0  0  0  0  0  0  0  0  0  0  0  0
   15.0113    1.1807  -13.5998 H   0  0  0  0  0  0  0  0  0  0  0  0
   14.1470   -1.0890  -13.0403 H   0  0  0  0  0  0  0  0  0  0  0  0
   14.9465   -5.2067  -13.5037 H   0  0  0  0  0  0  0  0  0  0  0  0
   13.9161   -7.4684  -13.5787 H   0  0  0  0  0  0  0  0  0  0  0  0
  1  2  1  0
  2  3  1  0
  3  4  2  0
  3  5  1  0
  5  6  1  0
  5  7  1  0
  7  8  1  0
  8  9  2  0
  9 10  1  0
 10 11  2  0
 11 12  1  0
 12 13  1  0
 13 14  1  0
 14 15  2  0
 15 16  1  0
 16 17  2  0
 17 18  1  0
 18 19  2  0
 11 20  1  0
 20 21  2  0
 21  8  1  0
 19 14  1  0
  1 22  1  0
  1 23  1  0
  1 24  1  0
  2 25  1  0
  5 26  1  6
  6 27  1  0
  6 28  1  0
  6 29  1  0
  7 30  1  0
  7 31  1  0
  9 32  1  0
 10 33  1  0
 13 34  1  0
 13 35  1  0
 15 36  1  0
 16 37  1  0
 17 38  1  0
 18 39  1  0
 19 40  1  0
 20 41  1  0
 21 42  1  0
M  CHG  1   6   1
M  END
>  <meeko>  (2) 
{"is_sidechain": [false], "free_energy": -8.799, "intermolecular_energy": -12.22, "internal_energy": -0.493}

$$$$
3mss_ligand
     RDKit          3D

 42 43  0  0  0  0  0  0  0  0999 V2000
   10.8230  -11.8580  -10.6390 C   0  0  0  0  0  0  0  0  0  0  0  0
   11.1590  -10.7230  -11.4720 N   0  0  0  0  0  0  0  0  0  0  0  0
   12.4570  -10.4220  -11.7830 C   0  0  0  0  0  0  0  0  0  0  0  0
   13.4280  -11.0800  -11.4070 O   0  0  0  0  0  0  0  0  0  0  0  0
   12.7110   -9.1630  -12.6320 C   0  0  1  0  0  0  0  0  0  0  0  0
   12.3800   -9.5100  -14.0690 N   0  0  0  0  0  0  0  0  0  0  0  0
   11.8360   -7.9780  -12.2040 C   0  0  0  0  0  0  0  0  0  0  0  0
   12.5720   -6.6620  -12.2250 C   0  0  0  0  0  0  0  0  0  0  0  0
   13.7140   -6.4970  -13.0210 C   0  0  0  0  0  0  0  0  0  0  0  0
   14.3810   -5.2670  -13.0720 C   0  0  0  0  0  0  0  0  0  0  0  0
   13.9170   -4.1880  -12.3220 C   0  0  0  0  0  0  0  0  0  0  0  0
   14.4600   -2.9370  -12.2830 O   0  0  0  0  0  0  0  0  0  0  0  0
   15.8830   -2.8370  -12.2580 C   0  0  0  0  0  0  0  0  0  0  0  0
   16.2580   -1.4100  -12.5660 C   0  0  0  0  0  0  0  0  0  0  0  0
   17.5140   -0.9120  -12.1870 C   0  0  0  0  0  0  0  0  0  0  0  0
   17.8650    0.4100  -12.4620 C   0  0  0  0  0  0  0  0  0  0  0  0
   16.9640    1.2500  -13.1140 C   0  0  0  0  0  0  0  0  0  0  0  0
   15.7090    0.7700  -13.4860 C   0  0  0  0  0  0  0  0  0  0  0  0
   15.3560   -0.5530  -13.2100 C   0  0  0  0  0  0  0  0  0  0  0  0
   12.7860   -4.3530  -11.5190 C   0  0  0  0  0  0  0  0  0  0  0  0
   12.1200   -5.5780  -11.4620 C   0  0  0  0  0  0  0  0  0  0  0  0
   10.9073  -11.5732   -9.5799 H   0  0  0  0  0  0  0  0  0  0  0  0
    9.7920  -12.1767  -10.8520 H   0  0  0  0  0  0  0  0  0  0  0  0
   11.5144  -12.6866  -10.8520 H   0  0  0  0  0  0  0  0  0  0  0  0
   10.3930  -10.1120  -11.7390 H   0  0  0  0  0  0  0  0  0  0  0  0
   13.7608   -8.8611  -12.5020 H   0  0  0  0  0  0  0  0  0  0  0  0
   12.3770  -10.5380  -14.1700 H   0  0  0  0  0  0  0  0  0  0  0  0
   11.4950   -9.1230  -14.4110 H   0  0  0  0  0  0  0  0  0  0  0  0
   13.1470   -9.2020  -14.6820 H   0  0  0  0  0  0  0  0  0  0  0  0
   10.9782   -7.9105  -12.8893 H   0  0  0  0  0  0  0  0  0  0  0  0
   11.5203   -8.1610  -11.1663 H   0  0  0  0  0  0  0  0  0  0  0  0
   14.0907   -7.3442  -13.6128 H   0  0  0  0  0  0  0  0  0  0  0  0
   15.2730   -5.1521  -13.7053 H   0  0  0  0  0  0  0  0  0  0  0  0
   16.2588   -3.1145  -11.2621 H   0  0  0  0  0  0  0  0  0  0  0  0
   16.3257   -3.5162  -13.0015 H   0  0  0  0  0  0  0  0  0  0  0  0
   18.2277   -1.5694  -11.6688 H   0  0  0  0  0  0  0  0  0  0  0  0
   18.8535    0.7896  -12.1640 H   0  0  0  0  0  0  0  0  0  0  0  0
   17.2428    2.2909  -13.3349 H   0  0  0  0  0  0  0  0  0  0  0  0
   14.9962    1.4337  -13.9973 H   0  0  0  0  0  0  0  0  0  0  0  0
   14.3623   -0.9248  -13.5005 H   0  0  0  0  0  0  0  0  0  0  0  0
   12.4153   -3.5057  -10.9234 H   0  0  0  0  0  0  0  0  0  0  0  0
   11.2372   -5.6926  -10.8158 H   0  0  0  0  0  0  0  0  0  0  0  0
  1  2  1  0
  2  3  1  0
  3  4  2  0
  3  5  1  0
  5  6  1  0
  5  7  1  0
  7  8  1  0
  8  9  2  0
  9 10  1  0
 10 11  2  0
 11 12  1  0
 12 13  1  0
 13 14  1  0
 14 15  2  0
 15 16  1  0
 16 17  2  0
 17 18  1  0
 18 19  2  0
 11 20  1  0
 20 21  2  0
 21  8  1  0
 19 14  1  0
  1 22  1  0
  1 23  1  0
  1 24  1  0
  2 25  1  0
  5 26  1  6
  6 27  1  0
  6 28  1  0
  6 29  1  0
  7 30  1  0
  7 31  1  0
  9 32  1  0
 10 33  1  0
 13 34  1  0
 13 35  1  0
 15 36  1  0
 16 37  1  0
 17 38  1  0
 18 39  1  0
 19 40  1  0
 20 41  1  0
 21 42  1  0
M  CHG  1   6   1
M  END
>  <meeko>  (3) 
{"is_sidechain": [false], "free_energy": -8.727, "intermolecular_energy": -12.164, "internal_energy": -0.449}

$$$$
3mss_ligand
     RDKit          3D

 42 43  0  0  0  0  0  0  0  0999 V2000
   16.0130    3.0330  -15.6170 C   0  0  0  0  0  0  0  0  0  0  0  0
   16.6260    1.7230  -15.5620 N   0  0  0  0  0  0  0  0  0  0  0  0
   16.9880    1.1520  -14.3720 C   0  0  0  0  0  0  0  0  0  0  0  0
   16.8160    1.6780  -13.2710 O   0  0  0  0  0  0  0  0  0  0  0  0
   17.6810   -0.2220  -14.4250 C   0  0  1  0  0  0  0  0  0  0  0  0
   19.0870   -0.0010  -14.9450 N   0  0  0  0  0  0  0  0  0  0  0  0
   17.7720   -0.8890  -13.0470 C   0  0  0  0  0  0  0  0  0  0  0  0
   16.6910   -1.9150  -12.8140 C   0  0  0  0  0  0  0  0  0  0  0  0
   15.3870   -1.5160  -12.4930 C   0  0  0  0  0  0  0  0  0  0  0  0
   14.3720   -2.4620  -12.3110 C   0  0  0  0  0  0  0  0  0  0  0  0
   14.6500   -3.8210  -12.4420 C   0  0  0  0  0  0  0  0  0  0  0  0
   13.7610   -4.8460  -12.3020 O   0  0  0  0  0  0  0  0  0  0  0  0
   14.0070   -6.0390  -13.0450 C   0  0  0  0  0  0  0  0  0  0  0  0
   13.0540   -7.1000  -12.5570 C   0  0  0  0  0  0  0  0  0  0  0  0
   13.3540   -8.4580  -12.7440 C   0  0  0  0  0  0  0  0  0  0  0  0
   12.4740   -9.4460  -12.3020 C   0  0  0  0  0  0  0  0  0  0  0  0
   11.2830   -9.0880  -11.6730 C   0  0  0  0  0  0  0  0  0  0  0  0
   10.9690   -7.7420  -11.4900 C   0  0  0  0  0  0  0  0  0  0  0  0
   11.8490   -6.7520  -11.9340 C   0  0  0  0  0  0  0  0  0  0  0  0
   15.9510   -4.2230  -12.7520 C   0  0  0  0  0  0  0  0  0  0  0  0
   16.9680   -3.2830  -12.9300 C   0  0  0  0  0  0  0  0  0  0  0  0
   15.8410    3.4006  -14.5946 H   0  0  0  0  0  0  0  0  0  0  0  0
   16.6795    3.7277  -16.1491 H   0  0  0  0  0  0  0  0  0  0  0  0
   15.0526    2.9664  -16.1491 H   0  0  0  0  0  0  0  0  0  0  0  0
   16.8540    1.2890  -16.4510 H   0  0  0  0  0  0  0  0  0  0  0  0
   17.0902   -0.8855  -15.0736 H   0  0  0  0  0  0  0  0  0  0  0  0
   19.4200    0.9210  -14.6200 H   0  0  0  0  0  0  0  0  0  0  0  0
   19.7600   -0.7280  -14.6840 H   0  0  0  0  0  0  0  0  0  0  0  0
   19.0620    0.0910  -15.9700 H   0  0  0  0  0  0  0  0  0  0  0  0
   18.7500   -1.3853  -12.9621 H   0  0  0  0  0  0  0  0  0  0  0  0
   17.6438   -0.0999  -12.2914 H   0  0  0  0  0  0  0  0  0  0  0  0
   15.1581   -0.4457  -12.3826 H   0  0  0  0  0  0  0  0  0  0  0  0
   13.3522   -2.1319  -12.0639 H   0  0  0  0  0  0  0  0  0  0  0  0
   13.8401   -5.8522  -14.1161 H   0  0  0  0  0  0  0  0  0  0  0  0
   15.0473   -6.3676  -12.9044 H   0  0  0  0  0  0  0  0  0  0  0  0
   14.2909   -8.7458  -13.2433 H   0  0  0  0  0  0  0  0  0  0  0  0
   12.7202  -10.5078  -12.4499 H   0  0  0  0  0  0  0  0  0  0  0  0
   10.5909   -9.8672  -11.3210 H   0  0  0  0  0  0  0  0  0  0  0  0
   10.0278   -7.4594  -10.9957 H   0  0  0  0  0  0  0  0  0  0  0  0
   11.5936   -5.6914  -11.7932 H   0  0  0  0  0  0  0  0  0  0  0  0
   16.1775   -5.2943  -12.8573 H   0  0  0  0  0  0  0  0  0  0  0  0
   17.9898   -3.6179  -13.1620 H   0  0  0  0  0  0  0  0  0  0  0  0
  1  2  1  0
  2  3  1  0
  3  4  2  0
  3  5  1  0
  5  6  1  0
  5  7  1  0
  7  8  1  0
  8  9  2  0
  9 10  1  0
 10 11  2  0
 11 12  1  0
 12 13  1  0
 13 14  1  0
 14 15  2  0
 15 16  1  0
 16 17  2  0
 17 18  1  0
 18 19  2  0
 11 20  1  0
 20 21  2  0
 21  8  1  0
 19 14  1  0
  1 22  1  0
  1 23  1  0
  1 24  1  0
  2 25  1  0
  5 26  1  6
  6 27  1  0
  6 28  1  0
  6 29  1  0
  7 30  1  0
  7 31  1  0
  9 32  1  0
 10 33  1  0
 13 34  1  0
 13 35  1  0
 15 36  1  0
 16 37  1  0
 17 38  1  0
 18 39  1  0
 19 40  1  0
 20 41  1  0
 21 42  1  0
M  CHG  1   6   1
M  END
>  <meeko>  (4) 
{"is_sidechain": [false], "free_energy": -8.63, "intermolecular_energy": -11.929, "internal_energy": -0.551}

$$$$
3mss_ligand
     RDKit          3D

 42 43  0  0  0  0  0  0  0  0999 V2000
   16.5330    2.5410  -15.3690 C   0  0  0  0  0  0  0  0  0  0  0  0
   17.1360    1.4230  -14.6770 N   0  0  0  0  0  0  0  0  0  0  0  0
   16.3990    0.3330  -14.3010 C   0  0  0  0  0  0  0  0  0  0  0  0
   15.1950    0.2010  -14.5240 O   0  0  0  0  0  0  0  0  0  0  0  0
   17.1250   -0.7810  -13.5220 C   0  0  1  0  0  0  0  0  0  0  0  0
   18.4260   -0.2010  -13.0080 N   0  0  0  0  0  0  0  0  0  0  0  0
   16.3120   -1.2880  -12.3250 C   0  0  0  0  0  0  0  0  0  0  0  0
   15.7670   -2.6800  -12.5270 C   0  0  0  0  0  0  0  0  0  0  0  0
   16.6060   -3.7180  -12.9550 C   0  0  0  0  0  0  0  0  0  0  0  0
   16.1150   -5.0190  -13.1100 C   0  0  0  0  0  0  0  0  0  0  0  0
   14.7750   -5.2970  -12.8450 C   0  0  0  0  0  0  0  0  0  0  0  0
   14.1670   -6.5140  -12.9450 O   0  0  0  0  0  0  0  0  0  0  0  0
   12.7920   -6.5970  -12.5720 C   0  0  0  0  0  0  0  0  0  0  0  0
   12.4790   -8.0360  -12.2500 C   0  0  0  0  0  0  0  0  0  0  0  0
   13.4310   -9.0370  -12.4950 C   0  0  0  0  0  0  0  0  0  0  0  0
   13.1470  -10.3710  -12.2060 C   0  0  0  0  0  0  0  0  0  0  0  0
   11.9060  -10.7220  -11.6750 C   0  0  0  0  0  0  0  0  0  0  0  0
   10.9480   -9.7370  -11.4370 C   0  0  0  0  0  0  0  0  0  0  0  0
   11.2320   -8.4000  -11.7270 C   0  0  0  0  0  0  0  0  0  0  0  0
   13.9340   -4.2630  -12.4300 C   0  0  0  0  0  0  0  0  0  0  0  0
   14.4190   -2.9630  -12.2780 C   0  0  0  0  0  0  0  0  0  0  0  0
   16.1446    3.2611  -14.6337 H   0  0  0  0  0  0  0  0  0  0  0  0
   17.2884    3.0324  -15.9998 H   0  0  0  0  0  0  0  0  0  0  0  0
   15.7074    2.1797  -15.9998 H   0  0  0  0  0  0  0  0  0  0  0  0
   18.1100    1.5260  -14.4070 H   0  0  0  0  0  0  0  0  0  0  0  0
   17.2815   -1.6342  -14.1985 H   0  0  0  0  0  0  0  0  0  0  0  0
   19.1800   -0.4310  -13.6760 H   0  0  0  0  0  0  0  0  0  0  0  0
   18.4080    0.8100  -12.8370 H   0  0  0  0  0  0  0  0  0  0  0  0
   18.7020   -0.6880  -12.1440 H   0  0  0  0  0  0  0  0  0  0  0  0
   16.9613   -1.2917  -11.4371 H   0  0  0  0  0  0  0  0  0  0  0  0
   15.4518   -0.6133  -12.2033 H   0  0  0  0  0  0  0  0  0  0  0  0
   17.6636   -3.5072  -13.1717 H   0  0  0  0  0  0  0  0  0  0  0  0
   16.7876   -5.8238  -13.4415 H   0  0  0  0  0  0  0  0  0  0  0  0
   12.6070   -5.9686  -11.6883 H   0  0  0  0  0  0  0  0  0  0  0  0
   12.1526   -6.2432  -13.3941 H   0  0  0  0  0  0  0  0  0  0  0  0
   14.4096   -8.7671  -12.9186 H   0  0  0  0  0  0  0  0  0  0  0  0
   13.9024  -11.1474  -12.3970 H   0  0  0  0  0  0  0  0  0  0  0  0
   11.6833  -11.7742  -11.4443 H   0  0  0  0  0  0  0  0  0  0  0  0
    9.9679  -10.0128  -11.0206 H   0  0  0  0  0  0  0  0  0  0  0  0
   10.4705   -7.6278  -11.5432 H   0  0  0  0  0  0  0  0  0  0  0  0
   12.8753   -4.4755  -12.2200 H   0  0  0  0  0  0  0  0  0  0  0  0
   13.7394   -2.1580  -11.9614 H   0  0  0  0  0  0  0  0  0  0  0  0
  1  2  1  0
  2  3  1  0
  3  4  2  0
  3  5  1  0
  5  6  1  0
  5  7  1  0
  7  8  1  0
  8  9  2  0
  9 10  1  0
 10 11  2  0
 11 12  1  0
 12 13  1  0
 13 14  1  0
 14 15  2  0
 15 16  1  0
 16 17  2  0
 17 18  1  0
 18 19  2  0
 11 20  1  0
 20 21  2  0
 21  8  1  0
 19 14  1  0
  1 22  1  0
  1 23  1  0
  1 24  1  0
  2 25  1  0
  5 26  1  6
  6 27  1  0
  6 28  1  0
  6 29  1  0
  7 30  1  0
  7 31  1  0
  9 32  1  0
 10 33  1  0
 13 34  1  0
 13 35  1  0
 15 36  1  0
 16 37  1  0
 17 38  1  0
 18 39  1  0
 19 40  1  0
 20 41  1  0
 21 42  1  0
M  CHG  1   6   1
M  END
>  <meeko>  (5) 
{"is_sidechain": [false], "free_energy": -8.39, "intermolecular_energy": -11.546, "internal_energy": -0.602}

$$$$
3mss_ligand
     RDKit          3D

 42 43  0  0  0  0  0  0  0  0999 V2000
   19.1450   -1.6890  -14.5170 C   0  0  0  0  0  0  0  0  0  0  0  0
   18.1320   -2.1690  -13.6020 N   0  0  0  0  0  0  0  0  0  0  0  0
   17.7350   -1.4300  -12.5210 C   0  0  0  0  0  0  0  0  0  0  0  0
   18.1790   -0.3140  -12.2460 O   0  0  0  0  0  0  0  0  0  0  0  0
   16.6880   -2.0530  -11.5790 C   0  0  1  0  0  0  0  0  0  0  0  0
   16.6460   -1.2050  -10.3240 N   0  0  0  0  0  0  0  0  0  0  0  0
   15.2830   -2.0790  -12.1940 C   0  0  0  0  0  0  0  0  0  0  0  0
   14.7460   -3.4760  -12.3800 C   0  0  0  0  0  0  0  0  0  0  0  0
   15.5490   -4.4790  -12.9400 C   0  0  0  0  0  0  0  0  0  0  0  0
   15.0670   -5.7860  -13.0830 C   0  0  0  0  0  0  0  0  0  0  0  0
   13.7740   -6.1040  -12.6720 C   0  0  0  0  0  0  0  0  0  0  0  0
   13.1820   -7.3310  -12.7430 O   0  0  0  0  0  0  0  0  0  0  0  0
   12.0740   -7.5800  -11.8790 C   0  0  0  0  0  0  0  0  0  0  0  0
   11.9040   -9.0710  -11.7510 C   0  0  0  0  0  0  0  0  0  0  0  0
   10.6390   -9.6180  -11.4870 C   0  0  0  0  0  0  0  0  0  0  0  0
   10.4760  -10.9980  -11.3600 C   0  0  0  0  0  0  0  0  0  0  0  0
   11.5740  -11.8460  -11.4900 C   0  0  0  0  0  0  0  0  0  0  0  0
   12.8380  -11.3140  -11.7410 C   0  0  0  0  0  0  0  0  0  0  0  0
   13.0040   -9.9320  -11.8680 C   0  0  0  0  0  0  0  0  0  0  0  0
   12.9690   -5.1040  -12.1240 C   0  0  0  0  0  0  0  0  0  0  0  0
   13.4420   -3.7990  -11.9840 C   0  0  0  0  0  0  0  0  0  0  0  0
   19.9943   -1.2866  -13.9454 H   0  0  0  0  0  0  0  0  0  0  0  0
   19.4900   -2.5194  -15.1506 H   0  0  0  0  0  0  0  0  0  0  0  0
   18.7208   -0.8961  -15.1506 H   0  0  0  0  0  0  0  0  0  0  0  0
   17.7950   -3.1160  -13.7510 H   0  0  0  0  0  0  0  0  0  0  0  0
   16.9781   -3.0945  -11.3763 H   0  0  0  0  0  0  0  0  0  0  0  0
   17.5770   -1.2280   -9.8770 H   0  0  0  0  0  0  0  0  0  0  0  0
   16.3530   -0.2340  -10.4710 H   0  0  0  0  0  0  0  0  0  0  0  0
   16.0270   -1.6480   -9.6310 H   0  0  0  0  0  0  0  0  0  0  0  0
   14.6003   -1.5265  -11.5316 H   0  0  0  0  0  0  0  0  0  0  0  0
   15.3518   -1.6180  -13.1904 H   0  0  0  0  0  0  0  0  0  0  0  0
   16.5697   -4.2367  -13.2710 H   0  0  0  0  0  0  0  0  0  0  0  0
   15.7105   -6.5634  -13.5207 H   0  0  0  0  0  0  0  0  0  0  0  0
   12.2674   -7.1408  -10.8892 H   0  0  0  0  0  0  0  0  0  0  0  0
   11.1605   -7.1271  -12.2918 H   0  0  0  0  0  0  0  0  0  0  0  0
    9.7689   -8.9536  -11.3793 H   0  0  0  0  0  0  0  0  0  0  0  0
    9.4794  -11.4170  -11.1570 H   0  0  0  0  0  0  0  0  0  0  0  0
   11.4436  -12.9341  -11.3947 H   0  0  0  0  0  0  0  0  0  0  0  0
   13.7058  -11.9828  -11.8392 H   0  0  0  0  0  0  0  0  0  0  0  0
   14.0044   -9.5173  -12.0610 H   0  0  0  0  0  0  0  0  0  0  0  0
   11.9472   -5.3483  -11.7979 H   0  0  0  0  0  0  0  0  0  0  0  0
   12.7888   -3.0214  -11.5613 H   0  0  0  0  0  0  0  0  0  0  0  0
  1  2  1  0
  2  3  1  0
  3  4  2  0
  3  5  1  0
  5  6  1  0
  5  7  1  0
  7  8  1  0
  8  9  2  0
  9 10  1  0
 10 11  2  0
 11 12  1  0
 12 13  1  0
 13 14  1  0
 14 15  2  0
 15 16  1  0
 16 17  2  0
 17 18  1  0
 18 19  2  0
 11 20  1  0
 20 21  2  0
 21  8  1  0
 19 14  1  0
  1 22  1  0
  1 23  1  0
  1 24  1  0
  2 25  1  0
  5 26  1  1
  6 27  1  0
  6 28  1  0
  6 29  1  0
  7 30  1  0
  7 31  1  0
  9 32  1  0
 10 33  1  0
 13 34  1  0
 13 35  1  0
 15 36  1  0
 16 37  1  0
 17 38  1  0
 18 39  1  0
 19 40  1  0
 20 41  1  0
 21 42  1  0
M  CHG  1   6   1
M  END
>  <meeko>  (6) 
{"is_sidechain": [false], "free_energy": -8.362, "intermolecular_energy": -11.551, "internal_energy": -0.559}

$$$$
3mss_ligand
     RDKit          3D

 42 43  0  0  0  0  0  0  0  0999 V2000
   12.6020  -12.6700   -8.9410 C   0  0  0  0  0  0  0  0  0  0  0  0
   12.8380  -11.6380   -9.9280 N   0  0  0  0  0  0  0  0  0  0  0  0
   11.8400  -11.1900  -10.7500 C   0  0  0  0  0  0  0  0  0  0  0  0
   10.6790  -11.6010  -10.7140 O   0  0  0  0  0  0  0  0  0  0  0  0
   12.2080  -10.1280  -11.8020 C   0  0  1  0  0  0  0  0  0  0  0  0
   12.0430  -10.7650  -13.1660 N   0  0  0  0  0  0  0  0  0  0  0  0
   11.3030   -8.8910  -11.7310 C   0  0  0  0  0  0  0  0  0  0  0  0
   12.0420   -7.6030  -11.9940 C   0  0  0  0  0  0  0  0  0  0  0  0
   11.7240   -6.4410  -11.2780 C   0  0  0  0  0  0  0  0  0  0  0  0
   12.4300   -5.2510  -11.4930 C   0  0  0  0  0  0  0  0  0  0  0  0
   13.4590   -5.2080  -12.4300 C   0  0  0  0  0  0  0  0  0  0  0  0
   14.2320   -4.1250  -12.7330 O   0  0  0  0  0  0  0  0  0  0  0  0
   13.8680   -2.8720  -12.1550 C   0  0  0  0  0  0  0  0  0  0  0  0
   15.0000   -1.9040  -12.3840 C   0  0  0  0  0  0  0  0  0  0  0  0
   16.2940   -2.2140  -11.9400 C   0  0  0  0  0  0  0  0  0  0  0  0
   17.3460   -1.3190  -12.1420 C   0  0  0  0  0  0  0  0  0  0  0  0
   17.1150   -0.1040  -12.7840 C   0  0  0  0  0  0  0  0  0  0  0  0
   15.8310    0.2190  -13.2210 C   0  0  0  0  0  0  0  0  0  0  0  0
   14.7770   -0.6750  -13.0190 C   0  0  0  0  0  0  0  0  0  0  0  0
   13.7710   -6.3610  -13.1530 C   0  0  0  0  0  0  0  0  0  0  0  0
   13.0670   -7.5490  -12.9460 C   0  0  0  0  0  0  0  0  0  0  0  0
   12.6999  -12.2420   -7.9324 H   0  0  0  0  0  0  0  0  0  0  0  0
   11.5878  -13.0759   -9.0702 H   0  0  0  0  0  0  0  0  0  0  0  0
   13.3389  -13.4764   -9.0702 H   0  0  0  0  0  0  0  0  0  0  0  0
   13.7990  -11.3270  -10.0410 H   0  0  0  0  0  0  0  0  0  0  0  0
   13.2389   -9.7935  -11.6140 H   0  0  0  0  0  0  0  0  0  0  0  0
   12.8080  -11.4440  -13.3100 H   0  0  0  0  0  0  0  0  0  0  0  0
   11.1380  -11.2210  -13.3220 H   0  0  0  0  0  0  0  0  0  0  0  0
   12.1990  -10.0570  -13.8970 H   0  0  0  0  0  0  0  0  0  0  0  0
   10.5056   -8.9968  -12.4813 H   0  0  0  0  0  0  0  0  0  0  0  0
   10.9010   -8.8363  -10.7085 H   0  0  0  0  0  0  0  0  0  0  0  0
   10.9101   -6.4640  -10.5383 H   0  0  0  0  0  0  0  0  0  0  0  0
   12.1711   -4.3482  -10.9204 H   0  0  0  0  0  0  0  0  0  0  0  0
   12.9517   -2.4937  -12.6318 H   0  0  0  0  0  0  0  0  0  0  0  0
   13.6795   -2.9898  -11.0777 H   0  0  0  0  0  0  0  0  0  0  0  0
   16.4812   -3.1698  -11.4287 H   0  0  0  0  0  0  0  0  0  0  0  0
   18.3581   -1.5730  -11.7941 H   0  0  0  0  0  0  0  0  0  0  0  0
   17.9449    0.5996  -12.9459 H   0  0  0  0  0  0  0  0  0  0  0  0
   15.6478    1.1792  -13.7255 H   0  0  0  0  0  0  0  0  0  0  0  0
   13.7649   -0.4124  -13.3608 H   0  0  0  0  0  0  0  0  0  0  0  0
   14.5821   -6.3331  -13.8955 H   0  0  0  0  0  0  0  0  0  0  0  0
   13.3185   -8.4449  -13.5326 H   0  0  0  0  0  0  0  0  0  0  0  0
  1  2  1  0
  2  3  1  0
  3  4  2  0
  3  5  1  0
  5  6  1  0
  5  7  1  0
  7  8  1  0
  8  9  2  0
  9 10  1  0
 10 11  2  0
 11 12  1  0
 12 13  1  0
 13 14  1  0
 14 15  2  0
 15 16  1  0
 16 17  2  0
 17 18  1  0
 18 19  2  0
 11 20  1  0
 20 21  2  0
 21  8  1  0
 19 14  1  0
  1 22  1  0
  1 23  1  0
  1 24  1  0
  2 25  1  0
  5 26  1  1
  6 27  1  0
  6 28  1  0
  6 29  1  0
  7 30  1  0
  7 31  1  0
  9 32  1  0
 10 33  1  0
 13 34  1  0
 13 35  1  0
 15 36  1  0
 16 37  1  0
 17 38  1  0
 18 39  1  0
 19 40  1  0
 20 41  1  0
 21 42  1  0
M  CHG  1   6   1
M  END
>  <meeko>  (7) 
{"is_sidechain": [false], "free_energy": -8.263, "intermolecular_energy": -11.608, "internal_energy": -0.365}

$$$$
3mss_ligand
     RDKit          3D

 42 43  0  0  0  0  0  0  0  0999 V2000
   18.7870   -1.6520  -14.3180 C   0  0  0  0  0  0  0  0  0  0  0  0
   17.7540   -1.6670  -13.3050 N   0  0  0  0  0  0  0  0  0  0  0  0
   17.1030   -2.8220  -12.9640 C   0  0  0  0  0  0  0  0  0  0  0  0
   17.3420   -3.9230  -13.4610 O   0  0  0  0  0  0  0  0  0  0  0  0
   15.9830   -2.7220  -11.9120 C   0  0  1  0  0  0  0  0  0  0  0  0
   16.1720   -1.4140  -11.1710 N   0  0  0  0  0  0  0  0  0  0  0  0
   14.5830   -2.7270  -12.5390 C   0  0  0  0  0  0  0  0  0  0  0  0
   13.8220   -4.0010  -12.2740 C   0  0  0  0  0  0  0  0  0  0  0  0
   12.7400   -4.0120  -11.3830 C   0  0  0  0  0  0  0  0  0  0  0  0
   12.0070   -5.1830  -11.1590 C   0  0  0  0  0  0  0  0  0  0  0  0
   12.3510   -6.3610  -11.8210 C   0  0  0  0  0  0  0  0  0  0  0  0
   11.7220   -7.5660  -11.7060 O   0  0  0  0  0  0  0  0  0  0  0  0
   12.2990   -8.6790  -12.3880 C   0  0  0  0  0  0  0  0  0  0  0  0
   11.9090   -9.9340  -11.6510 C   0  0  0  0  0  0  0  0  0  0  0  0
   12.8970  -10.7660  -11.1030 C   0  0  0  0  0  0  0  0  0  0  0  0
   12.5450  -11.9330  -10.4250 C   0  0  0  0  0  0  0  0  0  0  0  0
   11.2030  -12.2850  -10.2920 C   0  0  0  0  0  0  0  0  0  0  0  0
   10.2120  -11.4720  -10.8420 C   0  0  0  0  0  0  0  0  0  0  0  0
   10.5640  -10.3030  -11.5220 C   0  0  0  0  0  0  0  0  0  0  0  0
   13.4350   -6.3560  -12.7010 C   0  0  0  0  0  0  0  0  0  0  0  0
   14.1710   -5.1910  -12.9240 C   0  0  0  0  0  0  0  0  0  0  0  0
   19.7748   -1.6377  -13.8342 H   0  0  0  0  0  0  0  0  0  0  0  0
   18.6988   -2.5515  -14.9450 H   0  0  0  0  0  0  0  0  0  0  0  0
   18.6727   -0.7554  -14.9450 H   0  0  0  0  0  0  0  0  0  0  0  0
   17.4750   -0.7670  -12.9260 H   0  0  0  0  0  0  0  0  0  0  0  0
   16.0496   -3.5969  -11.2486 H   0  0  0  0  0  0  0  0  0  0  0  0
   15.5070   -1.3790  -10.3820 H   0  0  0  0  0  0  0  0  0  0  0  0
   17.1250   -1.2460  -10.8330 H   0  0  0  0  0  0  0  0  0  0  0  0
   15.8810   -0.6320  -11.7750 H   0  0  0  0  0  0  0  0  0  0  0  0
   14.0105   -1.8843  -12.1243 H   0  0  0  0  0  0  0  0  0  0  0  0
   14.7106   -2.6412  -13.6282 H   0  0  0  0  0  0  0  0  0  0  0  0
   12.4635   -3.0885  -10.8531 H   0  0  0  0  0  0  0  0  0  0  0  0
   11.1581   -5.1741  -10.4595 H   0  0  0  0  0  0  0  0  0  0  0  0
   11.9211   -8.7203  -13.4202 H   0  0  0  0  0  0  0  0  0  0  0  0
   13.3941   -8.5804  -12.4191 H   0  0  0  0  0  0  0  0  0  0  0  0
   13.9580  -10.4957  -11.2090 H   0  0  0  0  0  0  0  0  0  0  0  0
   13.3271  -12.5760   -9.9950 H   0  0  0  0  0  0  0  0  0  0  0  0
   10.9256  -13.2033   -9.7537 H   0  0  0  0  0  0  0  0  0  0  0  0
    9.1529  -11.7512  -10.7404 H   0  0  0  0  0  0  0  0  0  0  0  0
    9.7792   -9.6681  -11.9591 H   0  0  0  0  0  0  0  0  0  0  0  0
   13.7127   -7.2822  -13.2254 H   0  0  0  0  0  0  0  0  0  0  0  0
   15.0284   -5.2079  -13.6130 H   0  0  0  0  0  0  0  0  0  0  0  0
  1  2  1  0
  2  3  1  0
  3  4  2  0
  3  5  1  0
  5  6  1  0
  5  7  1  0
  7  8  1  0
  8  9  2  0
  9 10  1  0
 10 11  2  0
 11 12  1  0
 12 13  1  0
 13 14  1  0
 14 15  2  0
 15 16  1  0
 16 17  2  0
 17 18  1  0
 18 19  2  0
 11 20  1  0
 20 21  2  0
 21  8  1  0
 19 14  1  0
  1 22  1  0
  1 23  1  0
  1 24  1  0
  2 25  1  0
  5 26  1  1
  6 27  1  0
  6 28  1  0
  6 29  1  0
  7 30  1  0
  7 31  1  0
  9 32  1  0
 10 33  1  0
 13 34  1  0
 13 35  1  0
 15 36  1  0
 16 37  1  0
 17 38  1  0
 18 39  1  0
 19 40  1  0
 20 41  1  0
 21 42  1  0
M  CHG  1   6   1
M  END
>  <meeko>  (8) 
{"is_sidechain": [false], "free_energy": -8.252, "intermolecular_energy": -11.404, "internal_energy": -0.554}

$$$$
3mss_ligand
     RDKit          3D

 42 43  0  0  0  0  0  0  0  0999 V2000
   18.5650    1.2340  -11.9930 C   0  0  0  0  0  0  0  0  0  0  0  0
   17.4360    0.4120  -12.3730 N   0  0  0  0  0  0  0  0  0  0  0  0
   16.9830   -0.5980  -11.5680 C   0  0  0  0  0  0  0  0  0  0  0  0
   17.4710   -0.8810  -10.4730 O   0  0  0  0  0  0  0  0  0  0  0  0
   15.8080   -1.4480  -12.0870 C   0  0  1  0  0  0  0  0  0  0  0  0
   15.1180   -0.6510  -13.1750 N   0  0  0  0  0  0  0  0  0  0  0  0
   16.2670   -2.7860  -12.6820 C   0  0  0  0  0  0  0  0  0  0  0  0
   15.2330   -3.8750  -12.5530 C   0  0  0  0  0  0  0  0  0  0  0  0
   13.9690   -3.5980  -12.0150 C   0  0  0  0  0  0  0  0  0  0  0  0
   12.9930   -4.5970  -11.9260 C   0  0  0  0  0  0  0  0  0  0  0  0
   13.2710   -5.8880  -12.3680 C   0  0  0  0  0  0  0  0  0  0  0  0
   12.4160   -6.9510  -12.3500 O   0  0  0  0  0  0  0  0  0  0  0  0
   12.4860   -7.8730  -13.4370 C   0  0  0  0  0  0  0  0  0  0  0  0
   12.5410   -9.2670  -12.8670 C   0  0  0  0  0  0  0  0  0  0  0  0
   12.6260  -10.3760  -13.7220 C   0  0  0  0  0  0  0  0  0  0  0  0
   12.6710  -11.6700  -13.2030 C   0  0  0  0  0  0  0  0  0  0  0  0
   12.6250  -11.8700  -11.8240 C   0  0  0  0  0  0  0  0  0  0  0  0
   12.5290  -10.7770  -10.9650 C   0  0  0  0  0  0  0  0  0  0  0  0
   12.4830   -9.4810  -11.4840 C   0  0  0  0  0  0  0  0  0  0  0  0
   14.5330   -6.1710  -12.8950 C   0  0  0  0  0  0  0  0  0  0  0  0
   15.5110   -5.1790  -12.9820 C   0  0  0  0  0  0  0  0  0  0  0  0
   18.6309    1.2820  -10.8960 H   0  0  0  0  0  0  0  0  0  0  0  0
   19.4897    0.7963  -12.3971 H   0  0  0  0  0  0  0  0  0  0  0  0
   18.4324    2.2485  -12.3971 H   0  0  0  0  0  0  0  0  0  0  0  0
   17.0540    0.5640  -13.3020 H   0  0  0  0  0  0  0  0  0  0  0  0
   15.1414   -1.6745  -11.2418 H   0  0  0  0  0  0  0  0  0  0  0  0
   14.4590    0.0110  -12.7340 H   0  0  0  0  0  0  0  0  0  0  0  0
   15.7500   -0.1470  -13.8050 H   0  0  0  0  0  0  0  0  0  0  0  0
   14.5120   -1.2750  -13.7260 H   0  0  0  0  0  0  0  0  0  0  0  0
   16.4879   -2.6374  -13.7493 H   0  0  0  0  0  0  0  0  0  0  0  0
   17.1554   -3.1083  -12.1191 H   0  0  0  0  0  0  0  0  0  0  0  0
   13.7412   -2.5827  -11.6582 H   0  0  0  0  0  0  0  0  0  0  0  0
   12.0039   -4.3619  -11.5059 H   0  0  0  0  0  0  0  0  0  0  0  0
   11.5960   -7.7659  -14.0745 H   0  0  0  0  0  0  0  0  0  0  0  0
   13.3800   -7.6755  -14.0467 H   0  0  0  0  0  0  0  0  0  0  0  0
   12.6574  -10.2238  -14.8110 H   0  0  0  0  0  0  0  0  0  0  0  0
   12.7428  -12.5326  -13.8818 H   0  0  0  0  0  0  0  0  0  0  0  0
   12.6645  -12.8901  -11.4143 H   0  0  0  0  0  0  0  0  0  0  0  0
   12.4894  -10.9350   -9.8771 H   0  0  0  0  0  0  0  0  0  0  0  0
   12.4006   -8.6222  -10.8016 H   0  0  0  0  0  0  0  0  0  0  0  0
   14.7591   -7.1887  -13.2460 H   0  0  0  0  0  0  0  0  0  0  0  0
   16.5036   -5.4222  -13.3889 H   0  0  0  0  0  0  0  0  0  0  0  0
  1  2  1  0
  2  3  1  0
  3  4  2  0
  3  5  1  0
  5  6  1  0
  5  7  1  0
  7  8  1  0
  8  9  2  0
  9 10  1  0
 10 11  2  0
 11 12  1  0
 12 13  1  0
 13 14  1  0
 14 15  2  0
 15 16  1  0
 16 17  2  0
 17 18  1  0
 18 19  2  0
 11 20  1  0
 20 21  2  0
 21  8  1  0
 19 14  1  0
  1 22  1  0
  1 23  1  0
  1 24  1  0
  2 25  1  0
  5 26  1  1
  6 27  1  0
  6 28  1  0
  6 29  1  0
  7 30  1  0
  7 31  1  0
  9 32  1  0
 10 33  1  0
 13 34  1  0
 13 35  1  0
 15 36  1  0
 16 37  1  0
 17 38  1  0
 18 39  1  0
 19 40  1  0
 20 41  1  0
 21 42  1  0
M  CHG  1   6   1
M  END
>  <meeko>  (9) 
{"is_sidechain": [false], "free_energy": -8.22, "intermolecular_energy": -11.407, "internal_energy": -0.507}

$$$$
