3dx2_ligand
     RDKit          3D

 27 27  0  0  0  0  0  0  0  0999 V2000
   27.4710   64.9750   12.0630 C   0  0  0  0  0  0  0  0  0  0  0  0
   27.3540   66.1420   10.7010 S   0  0  0  0  0  4  0  0  0  0  0  0
   27.8600   67.6420   11.1810 O   0  0  0  0  0  0  0  0  0  0  0  0
   28.5060   65.4800    9.4620 C   0  0  2  0  0  0  0  0  0  0  0  0
   29.9950   65.6010    9.8460 C   0  0  1  0  0  0  0  0  0  0  0  0
   30.6990   64.2630    9.7810 N   0  0  0  0  0  0  0  0  0  0  0  0
   30.6260   66.4500    8.7150 C   0  0  1  0  0  0  0  0  0  0  0  0
   32.0080   66.1220    8.6170 O   0  0  0  0  0  0  0  0  0  0  0  0
   29.7910   66.0220    7.4980 C   0  0  1  0  0  0  0  0  0  0  0  0
   30.0670   64.6390    7.2170 O   0  0  0  0  0  0  0  0  0  0  0  0
   28.3750   66.1440    8.0760 C   0  0  1  0  0  0  0  0  0  0  0  0
   27.4120   65.4550    7.3040 O   0  0  0  0  0  0  0  0  0  0  0  0
   27.4165   65.5189   13.0176 H   0  0  0  0  0  0  0  0  0  0  0  0
   26.6404   64.2564   12.0025 H   0  0  0  0  0  0  0  0  0  0  0  0
   28.4277   64.4356   12.0025 H   0  0  0  0  0  0  0  0  0  0  0  0
   27.5550   67.9090   12.0870 H   0  0  0  0  0  0  0  0  0  0  0  0
   28.2076   64.4220    9.4228 H   0  0  0  0  0  0  0  0  0  0  0  0
   30.0871   66.0128   10.8619 H   0  0  0  0  0  0  0  0  0  0  0  0
   31.7240   64.2420    9.7310 H   0  0  0  0  0  0  0  0  0  0  0  0
   30.3730   63.6520   10.5610 H   0  0  0  0  0  0  0  0  0  0  0  0
   30.3220   63.7580    8.9540 H   0  0  0  0  0  0  0  0  0  0  0  0
   30.6055   67.5415    8.8497 H   0  0  0  0  0  0  0  0  0  0  0  0
   32.5200   66.9410    8.4500 H   0  0  0  0  0  0  0  0  0  0  0  0
   29.9688   66.5942    6.5755 H   0  0  0  0  0  0  0  0  0  0  0  0
   30.5130   64.6050    6.3410 H   0  0  0  0  0  0  0  0  0  0  0  0
   28.0328   67.1891    8.1014 H   0  0  0  0  0  0  0  0  0  0  0  0
   27.8460   64.7790    6.7440 H   0  0  0  0  0  0  0  0  0  0  0  0
  2  1  1  1
  2  3  2  3
  2  4  1  0
  4  5  1  0
  5  6  1  0
  5  7  1  0
  7  8  1  0
  7  9  1  0
  9 10  1  0
  9 11  1  0
 11 12  1  0
 11  4  1  0
  1 13  1  0
  1 14  1  0
  1 15  1  0
  3 16  1  0
  4 17  1  6
  5 18  1  1
  6 19  1  0
  6 20  1  0
  6 21  1  0
  7 22  1  1
  8 23  1  0
  9 24  1  6
 10 25  1  0
 11 26  1  1
 12 27  1  0
M  CHG  2   3   1   6   1
M  END
>  <meeko>  (1) 
{"is_sidechain": [false], "free_energy": -5.296, "intermolecular_energy": -6.225, "internal_energy": -0.082}

$$$$
3dx2_ligand
     RDKit          3D

 27 27  0  0  0  0  0  0  0  0999 V2000
   27.7350   66.1680   10.7190 C   0  0  0  0  0  0  0  0  0  0  0  0
   29.5080   65.8830   10.7990 S   0  0  0  0  0  4  0  0  0  0  0  0
   29.8280   64.2680   10.9580 O   0  0  0  0  0  0  0  0  0  0  0  0
   30.1150   66.4670    9.1880 C   0  0  2  0  0  0  0  0  0  0  0  0
   29.1160   66.2860    8.0270 C   0  0  1  0  0  0  0  0  0  0  0  0
   28.8610   67.5890    7.3000 N   0  0  0  0  0  0  0  0  0  0  0  0
   29.8560   65.3870    7.0060 C   0  0  1  0  0  0  0  0  0  0  0  0
   29.3360   65.6490    5.7080 O   0  0  0  0  0  0  0  0  0  0  0  0
   31.3150   65.8270    7.2000 C   0  0  1  0  0  0  0  0  0  0  0  0
   31.4430   67.1910    6.7610 O   0  0  0  0  0  0  0  0  0  0  0  0
   31.4180   65.7820    8.7310 C   0  0  1  0  0  0  0  0  0  0  0  0
   32.5340   66.4990    9.2210 O   0  0  0  0  0  0  0  0  0  0  0  0
   27.3278   66.2335   11.7387 H   0  0  0  0  0  0  0  0  0  0  0  0
   27.5387   67.1092   10.1846 H   0  0  0  0  0  0  0  0  0  0  0  0
   27.2536   65.3357   10.1846 H   0  0  0  0  0  0  0  0  0  0  0  0
   29.2240   63.7880   11.5820 H   0  0  0  0  0  0  0  0  0  0  0  0
   30.2801   67.5365    9.3855 H   0  0  0  0  0  0  0  0  0  0  0  0
   28.1643   65.8906    8.4116 H   0  0  0  0  0  0  0  0  0  0  0  0
   29.0690   67.6480    6.2970 H   0  0  0  0  0  0  0  0  0  0  0  0
   27.8840   67.9090    7.4760 H   0  0  0  0  0  0  0  0  0  0  0  0
   29.4090   68.3250    7.7900 H   0  0  0  0  0  0  0  0  0  0  0  0
   29.7460   64.3004    7.1371 H   0  0  0  0  0  0  0  0  0  0  0  0
   28.8690   66.5110    5.7180 H   0  0  0  0  0  0  0  0  0  0  0  0
   32.0664   65.2283    6.6643 H   0  0  0  0  0  0  0  0  0  0  0  0
   32.1840   67.5900    7.2690 H   0  0  0  0  0  0  0  0  0  0  0  0
   31.5471   64.7546    9.1022 H   0  0  0  0  0  0  0  0  0  0  0  0
   32.3360   67.4570    9.2520 H   0  0  0  0  0  0  0  0  0  0  0  0
  2  1  1  6
  2  3  2  3
  2  4  1  0
  4  5  1  0
  5  6  1  0
  5  7  1  0
  7  8  1  0
  7  9  1  0
  9 10  1  0
  9 11  1  0
 11 12  1  0
 11  4  1  0
  1 13  1  0
  1 14  1  0
  1 15  1  0
  3 16  1  0
  4 17  1  1
  5 18  1  1
  6 19  1  0
  6 20  1  0
  6 21  1  0
  7 22  1  1
  8 23  1  0
  9 24  1  6
 10 25  1  0
 11 26  1  1
 12 27  1  0
M  CHG  2   3   1   6   1
M  END
>  <meeko>  (2) 
{"is_sidechain": [false], "free_energy": -4.725, "intermolecular_energy": -5.535, "internal_energy": -0.101}

$$$$
3dx2_ligand
     RDKit          3D

 27 27  0  0  0  0  0  0  0  0999 V2000
   32.1250   66.5000    8.3150 C   0  0  0  0  0  0  0  0  0  0  0  0
   30.5400   66.2370    7.5100 S   0  0  0  0  0  4  0  0  0  0  0  0
   30.4910   64.7420    6.8020 O   0  0  0  0  0  0  0  0  0  0  0  0
   29.3430   66.3020    8.8760 C   0  0  2  0  0  0  0  0  0  0  0  0
   29.8980   65.8230   10.2330 C   0  0  1  0  0  0  0  0  0  0  0  0
   29.7040   66.8630   11.3150 N   0  0  0  0  0  0  0  0  0  0  0  0
   28.9850   64.6390   10.6370 C   0  0  1  0  0  0  0  0  0  0  0  0
   28.9860   64.5260   12.0550 O   0  0  0  0  0  0  0  0  0  0  0  0
   27.6340   65.0670   10.0410 C   0  0  1  0  0  0  0  0  0  0  0  0
   27.1760   66.2370   10.7410 O   0  0  0  0  0  0  0  0  0  0  0  0
   28.0700   65.4680    8.6250 C   0  0  1  0  0  0  0  0  0  0  0  0
   27.1030   66.2590    7.9640 O   0  0  0  0  0  0  0  0  0  0  0  0
   31.9901   66.4776    9.4065 H   0  0  0  0  0  0  0  0  0  0  0  0
   32.8246   65.7057    8.0156 H   0  0  0  0  0  0  0  0  0  0  0  0
   32.5305   67.4777    8.0156 H   0  0  0  0  0  0  0  0  0  0  0  0
   31.3280   64.4790    6.3390 H   0  0  0  0  0  0  0  0  0  0  0  0
   29.1091   67.3760    8.9178 H   0  0  0  0  0  0  0  0  0  0  0  0
   30.9690   65.5911   10.1375 H   0  0  0  0  0  0  0  0  0  0  0  0
   28.7510   67.1390   11.5760 H   0  0  0  0  0  0  0  0  0  0  0  0
   30.2380   66.5900   12.1690 H   0  0  0  0  0  0  0  0  0  0  0  0
   30.2190   67.7150   11.0160 H   0  0  0  0  0  0  0  0  0  0  0  0
   29.2832   63.6433   10.2770 H   0  0  0  0  0  0  0  0  0  0  0  0
   29.3280   63.6420   12.3060 H   0  0  0  0  0  0  0  0  0  0  0  0
   26.8344   64.3129   10.0866 H   0  0  0  0  0  0  0  0  0  0  0  0
   26.8120   65.9330   11.6030 H   0  0  0  0  0  0  0  0  0  0  0  0
   28.2195   64.5903    7.9790 H   0  0  0  0  0  0  0  0  0  0  0  0
   27.5350   66.8650    7.3280 H   0  0  0  0  0  0  0  0  0  0  0  0
  2  1  1  1
  2  3  2  3
  2  4  1  0
  4  5  1  0
  5  6  1  0
  5  7  1  0
  7  8  1  0
  7  9  1  0
  9 10  1  0
  9 11  1  0
 11 12  1  0
 11  4  1  0
  1 13  1  0
  1 14  1  0
  1 15  1  0
  3 16  1  0
  4 17  1  1
  5 18  1  6
  6 19  1  0
  6 20  1  0
  6 21  1  0
  7 22  1  6
  8 23  1  0
  9 24  1  6
 10 25  1  0
 11 26  1  6
 12 27  1  0
M  CHG  2   3   1   6   1
M  END
>  <meeko>  (3) 
{"is_sidechain": [false], "free_energy": -4.654, "intermolecular_energy": -5.45, "internal_energy": -0.102}

$$$$
3dx2_ligand
     RDKit          3D

 27 27  0  0  0  0  0  0  0  0999 V2000
   28.5460   67.7720   11.7390 C   0  0  0  0  0  0  0  0  0  0  0  0
   28.6190   65.9800   11.8580 S   0  0  0  0  0  4  0  0  0  0  0  0
   27.1030   65.3520   12.0630 O   0  0  0  0  0  0  0  0  0  0  0  0
   29.2770   65.4640   10.2440 C   0  0  2  0  0  0  0  0  0  0  0  0
   30.6140   66.1290    9.8590 C   0  0  1  0  0  0  0  0  0  0  0  0
   31.6710   65.1010    9.5170 N   0  0  0  0  0  0  0  0  0  0  0  0
   30.3190   66.8680    8.5300 C   0  0  1  0  0  0  0  0  0  0  0  0
   31.5300   66.9800    7.7920 O   0  0  0  0  0  0  0  0  0  0  0  0
   29.2730   65.9460    7.8840 C   0  0  1  0  0  0  0  0  0  0  0  0
   29.9030   64.6940    7.5620 O   0  0  0  0  0  0  0  0  0  0  0  0
   28.3180   65.7370    9.0670 C   0  0  1  0  0  0  0  0  0  0  0  0
   27.4600   64.6290    8.8830 O   0  0  0  0  0  0  0  0  0  0  0  0
   28.5283   68.2062   12.7495 H   0  0  0  0  0  0  0  0  0  0  0  0
   29.4299   68.1398   11.1973 H   0  0  0  0  0  0  0  0  0  0  0  0
   27.6351   68.0667   11.1973 H   0  0  0  0  0  0  0  0  0  0  0  0
   26.5270   65.8640   12.6880 H   0  0  0  0  0  0  0  0  0  0  0  0
   29.4183   64.3836   10.3951 H   0  0  0  0  0  0  0  0  0  0  0  0
   30.9708   66.7582   10.6878 H   0  0  0  0  0  0  0  0  0  0  0  0
   31.3790   64.1900    9.1460 H   0  0  0  0  0  0  0  0  0  0  0  0
   32.3860   65.5240    8.8860 H   0  0  0  0  0  0  0  0  0  0  0  0
   32.2300   64.9380   10.3780 H   0  0  0  0  0  0  0  0  0  0  0  0
   29.9460   67.8994    8.6139 H   0  0  0  0  0  0  0  0  0  0  0  0
   32.2340   66.4760    8.2530 H   0  0  0  0  0  0  0  0  0  0  0  0
   28.8026   66.3315    6.9674 H   0  0  0  0  0  0  0  0  0  0  0  0
   29.2230   64.1320    7.1260 H   0  0  0  0  0  0  0  0  0  0  0  0
   27.6515   66.6001    9.2114 H   0  0  0  0  0  0  0  0  0  0  0  0
   26.8340   64.8010    8.1500 H   0  0  0  0  0  0  0  0  0  0  0  0
  2  1  1  6
  2  3  2  3
  2  4  1  0
  4  5  1  0
  5  6  1  0
  5  7  1  0
  7  8  1  0
  7  9  1  0
  9 10  1  0
  9 11  1  0
 11 12  1  0
 11  4  1  0
  1 13  1  0
  1 14  1  0
  1 15  1  0
  3 16  1  0
  4 17  1  1
  5 18  1  1
  6 19  1  0
  6 20  1  0
  6 21  1  0
  7 22  1  1
  8 23  1  0
  9 24  1  6
 10 25  1  0
 11 26  1  1
 12 27  1  0
M  CHG  2   3   1   6   1
M  END
>  <meeko>  (4) 
{"is_sidechain": [false], "free_energy": -4.233, "intermolecular_energy": -4.857, "internal_energy": -0.201}

$$$$
3dx2_ligand
     RDKit          3D

 27 27  0  0  0  0  0  0  0  0999 V2000
   28.2030   66.3980    6.4810 C   0  0  0  0  0  0  0  0  0  0  0  0
   29.7710   65.7240    7.0460 S   0  0  0  0  0  4  0  0  0  0  0  0
   30.9590   66.8710    6.9590 O   0  0  0  0  0  0  0  0  0  0  0  0
   29.4590   65.3030    8.7870 C   0  0  2  0  0  0  0  0  0  0  0  0
   28.0850   65.7590    9.3170 C   0  0  1  0  0  0  0  0  0  0  0  0
   27.3090   64.6090    9.9210 N   0  0  0  0  0  0  0  0  0  0  0  0
   28.4120   66.6980   10.5040 C   0  0  1  0  0  0  0  0  0  0  0  0
   27.3180   66.6820   11.4130 O   0  0  0  0  0  0  0  0  0  0  0  0
   29.6990   66.0670   11.0580 C   0  0  1  0  0  0  0  0  0  0  0  0
   29.3790   64.7730   11.5960 O   0  0  0  0  0  0  0  0  0  0  0  0
   30.5010   65.8880    9.7620 C   0  0  1  0  0  0  0  0  0  0  0  0
   31.5780   64.9840    9.9110 O   0  0  0  0  0  0  0  0  0  0  0  0
   27.5838   66.6642    7.3503 H   0  0  0  0  0  0  0  0  0  0  0  0
   28.3876   67.2963    5.8735 H   0  0  0  0  0  0  0  0  0  0  0  0
   27.6782   65.6460    5.8735 H   0  0  0  0  0  0  0  0  0  0  0  0
   30.9300   67.4320    6.1410 H   0  0  0  0  0  0  0  0  0  0  0  0
   29.5123   64.2045    8.7647 H   0  0  0  0  0  0  0  0  0  0  0  0
   27.4991   66.2056    8.5001 H   0  0  0  0  0  0  0  0  0  0  0  0
   26.2890   64.6850   10.0050 H   0  0  0  0  0  0  0  0  0  0  0  0
   27.5560   63.7190    9.4360 H   0  0  0  0  0  0  0  0  0  0  0  0
   27.7010   64.4390   10.8700 H   0  0  0  0  0  0  0  0  0  0  0  0
   28.5596   67.7611   10.2631 H   0  0  0  0  0  0  0  0  0  0  0  0
   27.5550   67.2030   12.2090 H   0  0  0  0  0  0  0  0  0  0  0  0
   30.2085   66.6417   11.8455 H   0  0  0  0  0  0  0  0  0  0  0  0
   28.6940   64.9090   12.2890 H   0  0  0  0  0  0  0  0  0  0  0  0
   30.9578   66.8318    9.4295 H   0  0  0  0  0  0  0  0  0  0  0  0
   32.2010   65.3070   10.5940 H   0  0  0  0  0  0  0  0  0  0  0  0
  2  1  1  1
  2  3  2  3
  2  4  1  0
  4  5  1  0
  5  6  1  0
  5  7  1  0
  7  8  1  0
  7  9  1  0
  9 10  1  0
  9 11  1  0
 11 12  1  0
 11  4  1  0
  1 13  1  0
  1 14  1  0
  1 15  1  0
  3 16  1  0
  4 17  1  6
  5 18  1  6
  6 19  1  0
  6 20  1  0
  6 21  1  0
  7 22  1  6
  8 23  1  0
  9 24  1  1
 10 25  1  0
 11 26  1  6
 12 27  1  0
M  CHG  2   3   1   6   1
M  END
>  <meeko>  (5) 
{"is_sidechain": [false], "free_energy": -4.175, "intermolecular_energy": -4.867, "internal_energy": -0.122}

$$$$
3dx2_ligand
     RDKit          3D

 27 27  0  0  0  0  0  0  0  0999 V2000
   32.4780   64.9800   10.0920 C   0  0  0  0  0  0  0  0  0  0  0  0
   32.6880   66.3230    8.9160 S   0  0  0  0  0  4  0  0  0  0  0  0
   33.6520   65.8450    7.6590 O   0  0  0  0  0  0  0  0  0  0  0  0
   31.0050   66.6350    8.3060 C   0  0  2  0  0  0  0  0  0  0  0  0
   29.8860   66.0810    9.2120 C   0  0  1  0  0  0  0  0  0  0  0  0
   28.8920   67.1570    9.5930 N   0  0  0  0  0  0  0  0  0  0  0  0
   29.0990   65.0980    8.3120 C   0  0  1  0  0  0  0  0  0  0  0  0
   27.7630   65.0100    8.7920 O   0  0  0  0  0  0  0  0  0  0  0  0
   29.2290   65.7630    6.9320 C   0  0  1  0  0  0  0  0  0  0  0  0
   28.5110   67.0090    6.9560 O   0  0  0  0  0  0  0  0  0  0  0  0
   30.7360   66.0520    6.9040 C   0  0  1  0  0  0  0  0  0  0  0  0
   31.0880   67.0000    5.9160 O   0  0  0  0  0  0  0  0  0  0  0  0
   32.5400   65.3764   11.1162 H   0  0  0  0  0  0  0  0  0  0  0  0
   31.4954   64.5096    9.9397 H   0  0  0  0  0  0  0  0  0  0  0  0
   33.2701   64.2321    9.9397 H   0  0  0  0  0  0  0  0  0  0  0  0
   34.4350   65.2970    7.9260 H   0  0  0  0  0  0  0  0  0  0  0  0
   30.9731   67.7344    8.2893 H   0  0  0  0  0  0  0  0  0  0  0  0
   30.3234   65.6485   10.1239 H   0  0  0  0  0  0  0  0  0  0  0  0
   29.1850   67.9020   10.2340 H   0  0  0  0  0  0  0  0  0  0  0  0
   28.4760   67.5760    8.7330 H   0  0  0  0  0  0  0  0  0  0  0  0
   28.0660   66.6780   10.0060 H   0  0  0  0  0  0  0  0  0  0  0  0
   29.4570   64.0581    8.2900 H   0  0  0  0  0  0  0  0  0  0  0  0
   27.5550   64.0720    8.9920 H   0  0  0  0  0  0  0  0  0  0  0  0
   28.8518   65.1737    6.0832 H   0  0  0  0  0  0  0  0  0  0  0  0
   28.8880   67.5450    7.6900 H   0  0  0  0  0  0  0  0  0  0  0  0
   31.3206   65.1515    6.6647 H   0  0  0  0  0  0  0  0  0  0  0  0
   31.0510   67.9060    6.2850 H   0  0  0  0  0  0  0  0  0  0  0  0
  2  1  1  1
  2  3  2  3
  2  4  1  0
  4  5  1  0
  5  6  1  0
  5  7  1  0
  7  8  1  0
  7  9  1  0
  9 10  1  0
  9 11  1  0
 11 12  1  0
 11  4  1  0
  1 13  1  0
  1 14  1  0
  1 15  1  0
  3 16  1  0
  4 17  1  6
  5 18  1  1
  6 19  1  0
  6 20  1  0
  6 21  1  0
  7 22  1  6
  8 23  1  0
  9 24  1  6
 10 25  1  0
 11 26  1  6
 12 27  1  0
M  CHG  2   3   1   6   1
M  END
>  <meeko>  (6) 
{"is_sidechain": [false], "free_energy": -4.102, "intermolecular_energy": -4.72, "internal_energy": -0.184}

$$$$
3dx2_ligand
     RDKit          3D

 27 27  0  0  0  0  0  0  0  0999 V2000
   32.8460   66.5520    8.9830 C   0  0  0  0  0  0  0  0  0  0  0  0
   31.6130   66.5740    7.6750 S   0  0  0  0  0  4  0  0  0  0  0  0
   32.1650   65.7550    6.3480 O   0  0  0  0  0  0  0  0  0  0  0  0
   30.2010   65.6840    8.3950 C   0  0  2  0  0  0  0  0  0  0  0  0
   28.8920   66.4980    8.4410 C   0  0  1  0  0  0  0  0  0  0  0  0
   27.7530   65.7640    7.7680 N   0  0  0  0  0  0  0  0  0  0  0  0
   28.5130   66.5510    9.9420 C   0  0  1  0  0  0  0  0  0  0  0  0
   27.1030   66.7080   10.0500 O   0  0  0  0  0  0  0  0  0  0  0  0
   29.0350   65.1960   10.4440 C   0  0  1  0  0  0  0  0  0  0  0  0
   28.2600   64.1510    9.8300 O   0  0  0  0  0  0  0  0  0  0  0  0
   30.4440   65.1980    9.8380 C   0  0  1  0  0  0  0  0  0  0  0  0
   31.0280   63.9110    9.8170 O   0  0  0  0  0  0  0  0  0  0  0  0
   32.3430   66.5610    9.9612 H   0  0  0  0  0  0  0  0  0  0  0  0
   33.4587   65.6428    8.8941 H   0  0  0  0  0  0  0  0  0  0  0  0
   33.4908   67.4388    8.8941 H   0  0  0  0  0  0  0  0  0  0  0  0
   33.1180   65.9200    6.1290 H   0  0  0  0  0  0  0  0  0  0  0  0
   30.0974   64.8335    7.7052 H   0  0  0  0  0  0  0  0  0  0  0  0
   29.0398   67.4710    7.9496 H   0  0  0  0  0  0  0  0  0  0  0  0
   27.8380   65.5140    6.7760 H   0  0  0  0  0  0  0  0  0  0  0  0
   27.4980   64.9180    8.3230 H   0  0  0  0  0  0  0  0  0  0  0  0
   26.9010   66.3490    7.8830 H   0  0  0  0  0  0  0  0  0  0  0  0
   28.9327   67.3829   10.5267 H   0  0  0  0  0  0  0  0  0  0  0  0
   26.7750   67.2030    9.2700 H   0  0  0  0  0  0  0  0  0  0  0  0
   28.9969   65.0473   11.5332 H   0  0  0  0  0  0  0  0  0  0  0  0
   27.8650   63.6190   10.5570 H   0  0  0  0  0  0  0  0  0  0  0  0
   31.1381   65.8225   10.4196 H   0  0  0  0  0  0  0  0  0  0  0  0
   31.8510   63.9190    9.2860 H   0  0  0  0  0  0  0  0  0  0  0  0
  2  1  1  1
  2  3  2  3
  2  4  1  0
  4  5  1  0
  5  6  1  0
  5  7  1  0
  7  8  1  0
  7  9  1  0
  9 10  1  0
  9 11  1  0
 11 12  1  0
 11  4  1  0
  1 13  1  0
  1 14  1  0
  1 15  1  0
  3 16  1  0
  4 17  1  6
  5 18  1  6
  6 19  1  0
  6 20  1  0
  6 21  1  0
  7 22  1  1
  8 23  1  0
  9 24  1  1
 10 25  1  0
 11 26  1  1
 12 27  1  0
M  CHG  2   3   1   6   1
M  END
>  <meeko>  (7) 
{"is_sidechain": [false], "free_energy": -4.06, "intermolecular_energy": -4.839, "internal_energy": -0.015}

$$$$
3dx2_ligand
     RDKit          3D

 27 27  0  0  0  0  0  0  0  0999 V2000
   28.5760   66.6380    6.7420 C   0  0  0  0  0  0  0  0  0  0  0  0
   30.1360   65.8500    6.3230 S   0  0  0  0  0  4  0  0  0  0  0  0
   31.1610   66.9380    5.6150 O   0  0  0  0  0  0  0  0  0  0  0  0
   30.8100   65.3380    7.9310 C   0  0  2  0  0  0  0  0  0  0  0  0
   29.7580   65.2150    9.0530 C   0  0  1  0  0  0  0  0  0  0  0  0
   29.7960   63.8510    9.7080 N   0  0  0  0  0  0  0  0  0  0  0  0
   30.2300   66.2060   10.1460 C   0  0  1  0  0  0  0  0  0  0  0  0
   29.7450   65.7580   11.4060 O   0  0  0  0  0  0  0  0  0  0  0  0
   31.7580   66.1320    9.9980 C   0  0  1  0  0  0  0  0  0  0  0  0
   32.1910   64.8150   10.3800 O   0  0  0  0  0  0  0  0  0  0  0  0
   31.8980   66.2840    8.4770 C   0  0  1  0  0  0  0  0  0  0  0  0
   33.1670   65.8780    8.0060 O   0  0  0  0  0  0  0  0  0  0  0  0
   28.4736   66.6898    7.8360 H   0  0  0  0  0  0  0  0  0  0  0  0
   28.5548   67.6549    6.3232 H   0  0  0  0  0  0  0  0  0  0  0  0
   27.7449   66.0516    6.3232 H   0  0  0  0  0  0  0  0  0  0  0  0
   30.7270   67.5480    4.9640 H   0  0  0  0  0  0  0  0  0  0  0  0
   31.2304   64.3498    7.6930 H   0  0  0  0  0  0  0  0  0  0  0  0
   28.7528   65.3955    8.6444 H   0  0  0  0  0  0  0  0  0  0  0  0
   29.6080   63.7760   10.7140 H   0  0  0  0  0  0  0  0  0  0  0  0
   29.1830   63.1890    9.1850 H   0  0  0  0  0  0  0  0  0  0  0  0
   30.7370   63.4480    9.5230 H   0  0  0  0  0  0  0  0  0  0  0  0
   29.8700   67.2418   10.0594 H   0  0  0  0  0  0  0  0  0  0  0  0
   29.5370   66.5380   11.9640 H   0  0  0  0  0  0  0  0  0  0  0  0
   32.3281   66.8601   10.5937 H   0  0  0  0  0  0  0  0  0  0  0  0
   31.3880   64.2490   10.4300 H   0  0  0  0  0  0  0  0  0  0  0  0
   31.7921   67.3317    8.1591 H   0  0  0  0  0  0  0  0  0  0  0  0
   33.7130   66.6590    7.7830 H   0  0  0  0  0  0  0  0  0  0  0  0
  2  1  1  1
  2  3  2  3
  2  4  1  0
  4  5  1  0
  5  6  1  0
  5  7  1  0
  7  8  1  0
  7  9  1  0
  9 10  1  0
  9 11  1  0
 11 12  1  0
 11  4  1  0
  1 13  1  0
  1 14  1  0
  1 15  1  0
  3 16  1  0
  4 17  1  6
  5 18  1  6
  6 19  1  0
  6 20  1  0
  6 21  1  0
  7 22  1  6
  8 23  1  0
  9 24  1  1
 10 25  1  0
 11 26  1  1
 12 27  1  0
M  CHG  2   3   1   6   1
M  END
>  <meeko>  (8) 
{"is_sidechain": [false], "free_energy": -3.992, "intermolecular_energy": -4.582, "internal_energy": -0.192}

$$$$
3dx2_ligand
     RDKit          3D

 27 27  0  0  0  0  0  0  0  0999 V2000
   27.1030   64.6170   12.0590 C   0  0  0  0  0  0  0  0  0  0  0  0
   28.6260   63.8790   11.4530 S   0  0  0  0  0  4  0  0  0  0  0  0
   28.2980   62.5220   10.5660 O   0  0  0  0  0  0  0  0  0  0  0  0
   29.3270   65.1580   10.3680 C   0  0  2  0  0  0  0  0  0  0  0  0
   28.2810   65.9420    9.5490 C   0  0  1  0  0  0  0  0  0  0  0  0
   28.4140   67.4350    9.7570 N   0  0  0  0  0  0  0  0  0  0  0  0
   28.6760   65.6990    8.0710 C   0  0  1  0  0  0  0  0  0  0  0  0
   28.2170   66.7980    7.2910 O   0  0  0  0  0  0  0  0  0  0  0  0
   30.2050   65.5920    8.1680 C   0  0  1  0  0  0  0  0  0  0  0  0
   30.7300   66.8730    8.5590 O   0  0  0  0  0  0  0  0  0  0  0  0
   30.3420   64.6140    9.3430 C   0  0  1  0  0  0  0  0  0  0  0  0
   31.6390   64.6180    9.9040 O   0  0  0  0  0  0  0  0  0  0  0  0
   27.1070   64.6151   13.1590 H   0  0  0  0  0  0  0  0  0  0  0  0
   27.0267   65.6520   11.6944 H   0  0  0  0  0  0  0  0  0  0  0  0
   26.2434   64.0355   11.6944 H   0  0  0  0  0  0  0  0  0  0  0  0
   27.5880   61.9430   10.9470 H   0  0  0  0  0  0  0  0  0  0  0  0
   29.8183   65.8225   11.0940 H   0  0  0  0  0  0  0  0  0  0  0  0
   27.2673   65.6228    9.8327 H   0  0  0  0  0  0  0  0  0  0  0  0
   29.2740   67.8060   10.1770 H   0  0  0  0  0  0  0  0  0  0  0  0
   28.2150   67.9370    8.8640 H   0  0  0  0  0  0  0  0  0  0  0  0
   27.6090   67.7360   10.3430 H   0  0  0  0  0  0  0  0  0  0  0  0
   28.2439   64.8113    7.5860 H   0  0  0  0  0  0  0  0  0  0  0  0
   28.9270   67.4730    7.2400 H   0  0  0  0  0  0  0  0  0  0  0  0
   30.7182   65.2858    7.2445 H   0  0  0  0  0  0  0  0  0  0  0  0
   29.9600   67.4510    8.7620 H   0  0  0  0  0  0  0  0  0  0  0  0
   30.1637   63.5739    9.0326 H   0  0  0  0  0  0  0  0  0  0  0  0
   31.8700   63.7250   10.2320 H   0  0  0  0  0  0  0  0  0  0  0  0
  2  1  1  6
  2  3  2  3
  2  4  1  0
  4  5  1  0
  5  6  1  0
  5  7  1  0
  7  8  1  0
  7  9  1  0
  9 10  1  0
  9 11  1  0
 11 12  1  0
 11  4  1  0
  1 13  1  0
  1 14  1  0
  1 15  1  0
  3 16  1  0
  4 17  1  1
  5 18  1  6
  6 19  1  0
  6 20  1  0
  6 21  1  0
  7 22  1  6
  8 23  1  0
  9 24  1  6
 10 25  1  0
 11 26  1  6
 12 27  1  0
M  CHG  2   3   1   6   1
M  END
>  <meeko>  (9) 
{"is_sidechain": [false], "free_energy": -3.674, "intermolecular_energy": -4.304, "internal_energy": -0.097}

$$$$
