2w4x_ligand
     RDKit          3D

 33 33  0  0  0  0  0  0  0  0999 V2000
   -8.1050   -9.0030   11.2270 C   0  0  0  0  0  0  0  0  0  0  0  0
   -8.4450   -9.7750   10.0470 N   0  0  0  0  0  0  0  0  0  0  0  0
   -7.8210   -9.4070    8.7380 N   0  0  0  0  0  0  0  0  0  0  0  0
   -8.2930  -10.0300    7.7810 O   0  0  0  0  0  0  0  0  0  0  0  0
   -9.2600  -10.8970   10.1440 C   0  0  0  0  0  0  0  0  0  0  0  0
  -10.4120  -10.8620   10.5830 O   0  0  0  0  0  0  0  0  0  0  0  0
   -8.6950  -12.0870    9.7400 N   0  0  0  0  0  0  0  0  0  0  0  0
   -9.4890  -13.3240    9.6400 C   0  0  2  0  0  0  0  0  0  0  0  0
   -9.0400  -14.4200   10.6350 C   0  0  1  0  0  0  0  0  0  0  0  0
   -9.8310  -14.3390   11.8310 O   0  0  0  0  0  0  0  0  0  0  0  0
   -9.1750  -15.8330   10.0470 C   0  0  2  0  0  0  0  0  0  0  0  0
   -7.9690  -16.1430    9.3280 O   0  0  0  0  0  0  0  0  0  0  0  0
  -10.3780  -15.9460    9.0930 C   0  0  1  0  0  0  0  0  0  0  0  0
  -11.7190  -15.8570    9.8420 C   0  0  0  0  0  0  0  0  0  0  0  0
  -11.6600  -16.6480   11.0310 O   0  0  0  0  0  0  0  0  0  0  0  0
  -10.3600  -14.9710    8.0290 O   0  0  0  0  0  0  0  0  0  0  0  0
   -9.4680  -13.8830    8.2050 C   0  0  1  0  0  0  0  0  0  0  0  0
   -9.8980  -12.8500    7.3210 O   0  0  0  0  0  0  0  0  0  0  0  0
   -8.3591   -9.5800   12.1284 H   0  0  0  0  0  0  0  0  0  0  0  0
   -7.0271   -8.7838   11.2237 H   0  0  0  0  0  0  0  0  0  0  0  0
   -8.6710   -8.0598   11.2237 H   0  0  0  0  0  0  0  0  0  0  0  0
   -8.0150  -11.9980    8.9910 H   0  0  0  0  0  0  0  0  0  0  0  0
  -10.5174  -13.0411    9.9092 H   0  0  0  0  0  0  0  0  0  0  0  0
   -7.9771  -14.2429   10.8561 H   0  0  0  0  0  0  0  0  0  0  0  0
  -10.4760  -15.0830   11.7690 H   0  0  0  0  0  0  0  0  0  0  0  0
   -9.3378  -16.5403   10.8736 H   0  0  0  0  0  0  0  0  0  0  0  0
   -8.1950  -16.1880    8.3810 H   0  0  0  0  0  0  0  0  0  0  0  0
  -10.2820  -16.9424    8.6369 H   0  0  0  0  0  0  0  0  0  0  0  0
  -11.9195  -14.8091   10.1096 H   0  0  0  0  0  0  0  0  0  0  0  0
  -12.5241  -16.2332    9.1937 H   0  0  0  0  0  0  0  0  0  0  0  0
  -11.1970  -16.1190   11.7010 H   0  0  0  0  0  0  0  0  0  0  0  0
   -8.4442  -14.2300    8.0015 H   0  0  0  0  0  0  0  0  0  0  0  0
   -9.3700  -13.0050    6.5170 H   0  0  0  0  0  0  0  0  0  0  0  0
  1  2  1  0
  2  3  1  0
  3  4  2  0
  2  5  1  0
  5  6  2  0
  5  7  1  0
  7  8  1  0
  8  9  1  0
  9 10  1  0
  9 11  1  0
 11 12  1  0
 11 13  1  0
 13 14  1  0
 14 15  1  0
 13 16  1  0
 16 17  1  0
 17 18  1  0
 17  8  1  0
  1 19  1  0
  1 20  1  0
  1 21  1  0
  7 22  1  0
  8 23  1  1
  9 24  1  1
 10 25  1  0
 11 26  1  1
 12 27  1  0
 13 28  1  6
 14 29  1  0
 14 30  1  0
 15 31  1  0
 17 32  1  6
 18 33  1  0
M  END
>  <meeko>  (1) 
{"is_sidechain": [false], "free_energy": -6.017, "intermolecular_energy": -8.128, "internal_energy": -1.002}

$$$$
2w4x_ligand
     RDKit          3D

 33 33  0  0  0  0  0  0  0  0999 V2000
  -10.7750  -16.4700    9.1690 C   0  0  0  0  0  0  0  0  0  0  0  0
  -11.0600  -15.4510   10.1620 N   0  0  0  0  0  0  0  0  0  0  0  0
  -12.4330  -15.3840   10.7540 N   0  0  0  0  0  0  0  0  0  0  0  0
  -12.6200  -16.2200   11.6440 O   0  0  0  0  0  0  0  0  0  0  0  0
  -10.0540  -14.6140   10.6290 C   0  0  0  0  0  0  0  0  0  0  0  0
   -9.2740  -14.9300   11.5310 O   0  0  0  0  0  0  0  0  0  0  0  0
   -9.9840  -13.3710   10.0400 N   0  0  0  0  0  0  0  0  0  0  0  0
   -8.8760  -12.4420   10.3230 C   0  0  2  0  0  0  0  0  0  0  0  0
   -9.2950  -10.9550   10.2660 C   0  0  1  0  0  0  0  0  0  0  0  0
   -9.6430  -10.5010   11.5840 O   0  0  0  0  0  0  0  0  0  0  0  0
   -8.1810  -10.0540    9.7120 C   0  0  2  0  0  0  0  0  0  0  0  0
   -8.2890  -10.0280    8.2790 O   0  0  0  0  0  0  0  0  0  0  0  0
   -6.7820  -10.5630   10.1060 C   0  0  1  0  0  0  0  0  0  0  0  0
   -6.5110  -10.3990   11.6120 C   0  0  0  0  0  0  0  0  0  0  0  0
   -7.0440   -9.1520   12.0640 O   0  0  0  0  0  0  0  0  0  0  0  0
   -6.5410  -11.9340    9.7250 O   0  0  0  0  0  0  0  0  0  0  0  0
   -7.6910  -12.6860    9.3710 C   0  0  1  0  0  0  0  0  0  0  0  0
   -7.3270  -14.0620    9.4600 O   0  0  0  0  0  0  0  0  0  0  0  0
  -10.5118  -17.4110    9.6743 H   0  0  0  0  0  0  0  0  0  0  0  0
  -11.6635  -16.6277    8.5400 H   0  0  0  0  0  0  0  0  0  0  0  0
   -9.9336  -16.1438    8.5400 H   0  0  0  0  0  0  0  0  0  0  0  0
  -10.2740  -13.3480    9.0670 H   0  0  0  0  0  0  0  0  0  0  0  0
   -8.5668  -12.6530   11.3573 H   0  0  0  0  0  0  0  0  0  0  0  0
  -10.1577  -10.8871    9.5869 H   0  0  0  0  0  0  0  0  0  0  0  0
   -9.8600  -11.3170   12.0930 H   0  0  0  0  0  0  0  0  0  0  0  0
   -8.3021   -9.0472   10.1382 H   0  0  0  0  0  0  0  0  0  0  0  0
   -8.6250  -10.8970    7.9930 H   0  0  0  0  0  0  0  0  0  0  0  0
   -6.0837   -9.9295    9.5394 H   0  0  0  0  0  0  0  0  0  0  0  0
   -6.9904  -11.2224   12.1617 H   0  0  0  0  0  0  0  0  0  0  0  0
   -5.4259  -10.4180   11.7913 H   0  0  0  0  0  0  0  0  0  0  0  0
   -6.7380   -8.4710   11.4420 H   0  0  0  0  0  0  0  0  0  0  0  0
   -8.0119  -12.3863    8.3624 H   0  0  0  0  0  0  0  0  0  0  0  0
   -7.9120  -14.4940    8.8120 H   0  0  0  0  0  0  0  0  0  0  0  0
  1  2  1  0
  2  3  1  0
  3  4  2  0
  2  5  1  0
  5  6  2  0
  5  7  1  0
  7  8  1  0
  8  9  1  0
  9 10  1  0
  9 11  1  0
 11 12  1  0
 11 13  1  0
 13 14  1  0
 14 15  1  0
 13 16  1  0
 16 17  1  0
 17 18  1  0
 17  8  1  0
  1 19  1  0
  1 20  1  0
  1 21  1  0
  7 22  1  0
  8 23  1  1
  9 24  1  6
 10 25  1  0
 11 26  1  1
 12 27  1  0
 13 28  1  6
 14 29  1  0
 14 30  1  0
 15 31  1  0
 17 32  1  6
 18 33  1  0
M  END
>  <meeko>  (2) 
{"is_sidechain": [false], "free_energy": -5.979, "intermolecular_energy": -8.58, "internal_energy": -0.498}

$$$$
2w4x_ligand
     RDKit          3D

 33 33  0  0  0  0  0  0  0  0999 V2000
   -7.4190  -14.2010    8.8850 C   0  0  0  0  0  0  0  0  0  0  0  0
   -8.7060  -14.8480    9.0620 N   0  0  0  0  0  0  0  0  0  0  0  0
   -9.8560  -14.4150    8.2080 N   0  0  0  0  0  0  0  0  0  0  0  0
  -10.6920  -15.3060    8.0290 O   0  0  0  0  0  0  0  0  0  0  0  0
   -8.8470  -15.9170    9.9380 C   0  0  0  0  0  0  0  0  0  0  0  0
   -9.1800  -15.7860   11.1190 O   0  0  0  0  0  0  0  0  0  0  0  0
   -8.5630  -17.1610    9.4190 N   0  0  0  0  0  0  0  0  0  0  0  0
   -8.8200  -18.3940   10.1830 C   0  0  2  0  0  0  0  0  0  0  0  0
   -7.7020  -18.7280   11.1980 C   0  0  1  0  0  0  0  0  0  0  0  0
   -8.0440  -18.1900   12.4860 O   0  0  0  0  0  0  0  0  0  0  0  0
   -7.4730  -20.2400   11.3400 C   0  0  2  0  0  0  0  0  0  0  0  0
   -6.5330  -20.6530   10.3320 O   0  0  0  0  0  0  0  0  0  0  0  0
   -8.7790  -21.0370   11.1710 C   0  0  1  0  0  0  0  0  0  0  0  0
   -9.7450  -20.8200   12.3500 C   0  0  0  0  0  0  0  0  0  0  0  0
  -11.0810  -21.1120   11.9380 O   0  0  0  0  0  0  0  0  0  0  0  0
   -9.4670  -20.7580    9.9340 O   0  0  0  0  0  0  0  0  0  0  0  0
   -9.0440  -19.5940    9.2440 C   0  0  1  0  0  0  0  0  0  0  0  0
  -10.0870  -19.2530    8.3310 O   0  0  0  0  0  0  0  0  0  0  0  0
   -6.9808  -13.9807    9.8696 H   0  0  0  0  0  0  0  0  0  0  0  0
   -6.7469  -14.8684    8.3256 H   0  0  0  0  0  0  0  0  0  0  0  0
   -7.5538  -13.2635    8.3256 H   0  0  0  0  0  0  0  0  0  0  0  0
   -8.7730  -17.2640    8.4310 H   0  0  0  0  0  0  0  0  0  0  0  0
   -9.7372  -18.2011   10.7588 H   0  0  0  0  0  0  0  0  0  0  0  0
   -6.7735  -18.2771   10.8178 H   0  0  0  0  0  0  0  0  0  0  0  0
   -9.0190  -18.0510   12.4610 H   0  0  0  0  0  0  0  0  0  0  0  0
   -7.0877  -20.4411   12.3505 H   0  0  0  0  0  0  0  0  0  0  0  0
   -5.7220  -20.9450   10.7890 H   0  0  0  0  0  0  0  0  0  0  0  0
   -8.4627  -22.0903   11.1485 H   0  0  0  0  0  0  0  0  0  0  0  0
   -9.4646  -21.4855   13.1797 H   0  0  0  0  0  0  0  0  0  0  0  0
   -9.6866  -19.7725   12.6806 H   0  0  0  0  0  0  0  0  0  0  0  0
  -11.5600  -20.2670   11.9080 H   0  0  0  0  0  0  0  0  0  0  0  0
   -8.0855  -19.8077    8.7484 H   0  0  0  0  0  0  0  0  0  0  0  0
   -9.6240  -19.1700    7.4790 H   0  0  0  0  0  0  0  0  0  0  0  0
  1  2  1  0
  2  3  1  0
  3  4  2  0
  2  5  1  0
  5  6  2  0
  5  7  1  0
  7  8  1  0
  8  9  1  0
  9 10  1  0
  9 11  1  0
 11 12  1  0
 11 13  1  0
 13 14  1  0
 14 15  1  0
 13 16  1  0
 16 17  1  0
 17 18  1  0
 17  8  1  0
  1 19  1  0
  1 20  1  0
  1 21  1  0
  7 22  1  0
  8 23  1  1
  9 24  1  6
 10 25  1  0
 11 26  1  1
 12 27  1  0
 13 28  1  6
 14 29  1  0
 14 30  1  0
 15 31  1  0
 17 32  1  6
 18 33  1  0
M  END
>  <meeko>  (3) 
{"is_sidechain": [false], "free_energy": -5.824, "intermolecular_energy": -8.078, "internal_energy": -0.79}

$$$$
2w4x_ligand
     RDKit          3D

 33 33  0  0  0  0  0  0  0  0999 V2000
  -10.5120  -16.5450    9.1770 C   0  0  0  0  0  0  0  0  0  0  0  0
   -9.4080  -16.2090   10.0580 N   0  0  0  0  0  0  0  0  0  0  0  0
   -8.4050  -17.2670   10.3930 N   0  0  0  0  0  0  0  0  0  0  0  0
   -8.4340  -17.6050   11.5810 O   0  0  0  0  0  0  0  0  0  0  0  0
   -9.2280  -14.9050   10.5050 C   0  0  0  0  0  0  0  0  0  0  0  0
   -9.5370  -14.5290   11.6380 O   0  0  0  0  0  0  0  0  0  0  0  0
   -8.7010  -14.0230    9.5880 N   0  0  0  0  0  0  0  0  0  0  0  0
   -8.3120  -12.6540    9.9680 C   0  0  2  0  0  0  0  0  0  0  0  0
   -9.3330  -11.5820    9.5220 C   0  0  1  0  0  0  0  0  0  0  0  0
  -10.2540  -11.3190   10.5930 O   0  0  0  0  0  0  0  0  0  0  0  0
   -8.6570  -10.2630    9.1170 C   0  0  2  0  0  0  0  0  0  0  0  0
   -8.2980  -10.3450    7.7270 O   0  0  0  0  0  0  0  0  0  0  0  0
   -7.3930   -9.9860    9.9520 C   0  0  1  0  0  0  0  0  0  0  0  0
   -7.7290   -9.6550   11.4170 C   0  0  0  0  0  0  0  0  0  0  0  0
   -8.9180   -8.8640   11.4710 O   0  0  0  0  0  0  0  0  0  0  0  0
   -6.4320  -11.0620    9.9140 O   0  0  0  0  0  0  0  0  0  0  0  0
   -6.9150  -12.3020    9.4230 C   0  0  1  0  0  0  0  0  0  0  0  0
   -6.0010  -13.3050    9.8630 O   0  0  0  0  0  0  0  0  0  0  0  0
  -11.3929  -16.8131    9.7788 H   0  0  0  0  0  0  0  0  0  0  0  0
  -10.7513  -15.6790    8.5423 H   0  0  0  0  0  0  0  0  0  0  0  0
  -10.2283  -17.3975    8.5423 H   0  0  0  0  0  0  0  0  0  0  0  0
   -8.0580  -14.4410    8.9220 H   0  0  0  0  0  0  0  0  0  0  0  0
   -8.2907  -12.6448   11.0678 H   0  0  0  0  0  0  0  0  0  0  0  0
   -9.8582  -11.9801    8.6413 H   0  0  0  0  0  0  0  0  0  0  0  0
  -10.7320  -12.1690   10.7420 H   0  0  0  0  0  0  0  0  0  0  0  0
   -9.3632   -9.4391    9.2972 H   0  0  0  0  0  0  0  0  0  0  0  0
   -7.9340  -11.2360    7.5700 H   0  0  0  0  0  0  0  0  0  0  0  0
   -6.9314   -9.1073    9.4778 H   0  0  0  0  0  0  0  0  0  0  0  0
   -7.8854  -10.5891   11.9764 H   0  0  0  0  0  0  0  0  0  0  0  0
   -6.8962   -9.0922   11.8638 H   0  0  0  0  0  0  0  0  0  0  0  0
   -9.5120   -9.1970   10.7780 H   0  0  0  0  0  0  0  0  0  0  0  0
   -6.9957  -12.2396    8.3277 H   0  0  0  0  0  0  0  0  0  0  0  0
   -5.2470  -13.2070    9.2540 H   0  0  0  0  0  0  0  0  0  0  0  0
  1  2  1  0
  2  3  1  0
  3  4  2  0
  2  5  1  0
  5  6  2  0
  5  7  1  0
  7  8  1  0
  8  9  1  0
  9 10  1  0
  9 11  1  0
 11 12  1  0
 11 13  1  0
 13 14  1  0
 14 15  1  0
 13 16  1  0
 16 17  1  0
 17 18  1  0
 17  8  1  0
  1 19  1  0
  1 20  1  0
  1 21  1  0
  7 22  1  0
  8 23  1  1
  9 24  1  6
 10 25  1  0
 11 26  1  6
 12 27  1  0
 13 28  1  6
 14 29  1  0
 14 30  1  0
 15 31  1  0
 17 32  1  6
 18 33  1  0
M  END
>  <meeko>  (4) 
{"is_sidechain": [false], "free_energy": -5.804, "intermolecular_energy": -8.21, "internal_energy": -0.632}

$$$$
2w4x_ligand
     RDKit          3D

 33 33  0  0  0  0  0  0  0  0999 V2000
   -6.7740   -8.0310   10.8260 C   0  0  0  0  0  0  0  0  0  0  0  0
   -7.9160   -8.9220   10.9080 N   0  0  0  0  0  0  0  0  0  0  0  0
   -8.9920   -8.6270   11.9050 N   0  0  0  0  0  0  0  0  0  0  0  0
   -9.3130   -9.6120   12.5790 O   0  0  0  0  0  0  0  0  0  0  0  0
   -8.0600   -9.9740   10.0110 C   0  0  0  0  0  0  0  0  0  0  0  0
   -7.1390  -10.3970    9.3090 O   0  0  0  0  0  0  0  0  0  0  0  0
   -9.3220  -10.5200    9.9230 N   0  0  0  0  0  0  0  0  0  0  0  0
   -9.5840  -11.7360    9.1350 C   0  0  2  0  0  0  0  0  0  0  0  0
   -8.7550  -12.9570    9.5980 C   0  0  1  0  0  0  0  0  0  0  0  0
   -9.5210  -13.7330   10.5330 O   0  0  0  0  0  0  0  0  0  0  0  0
   -8.3400  -13.8610    8.4280 C   0  0  2  0  0  0  0  0  0  0  0  0
   -7.1050  -13.3630    7.8850 O   0  0  0  0  0  0  0  0  0  0  0  0
   -9.4080  -13.8880    7.3180 C   0  0  1  0  0  0  0  0  0  0  0  0
  -10.6840  -14.6240    7.7630 C   0  0  0  0  0  0  0  0  0  0  0  0
  -10.3360  -15.8830    8.3440 O   0  0  0  0  0  0  0  0  0  0  0  0
   -9.7590  -12.5780    6.8260 O   0  0  0  0  0  0  0  0  0  0  0  0
   -9.3490  -11.4870    7.6340 C   0  0  1  0  0  0  0  0  0  0  0  0
  -10.1370  -10.3640    7.2420 O   0  0  0  0  0  0  0  0  0  0  0  0
   -6.4392   -7.7698   11.8407 H   0  0  0  0  0  0  0  0  0  0  0  0
   -5.9560   -8.5320   10.2876 H   0  0  0  0  0  0  0  0  0  0  0  0
   -7.0610   -7.1157   10.2876 H   0  0  0  0  0  0  0  0  0  0  0  0
   -9.8550  -10.4920   10.7870 H   0  0  0  0  0  0  0  0  0  0  0  0
  -10.6432  -11.9782    9.3067 H   0  0  0  0  0  0  0  0  0  0  0  0
   -7.8397  -12.5681   10.0680 H   0  0  0  0  0  0  0  0  0  0  0  0
   -9.6070  -14.6260   10.1240 H   0  0  0  0  0  0  0  0  0  0  0  0
   -8.2228  -14.8880    8.8043 H   0  0  0  0  0  0  0  0  0  0  0  0
   -6.3850  -13.6610    8.4710 H   0  0  0  0  0  0  0  0  0  0  0  0
   -8.9389  -14.4412    6.4910 H   0  0  0  0  0  0  0  0  0  0  0  0
  -11.2180  -14.0135    8.5060 H   0  0  0  0  0  0  0  0  0  0  0  0
  -11.3310  -14.7922    6.8895 H   0  0  0  0  0  0  0  0  0  0  0  0
  -10.2130  -16.5090    7.6120 H   0  0  0  0  0  0  0  0  0  0  0  0
   -8.2694  -11.3307    7.4923 H   0  0  0  0  0  0  0  0  0  0  0  0
  -10.8270  -10.3210    7.9270 H   0  0  0  0  0  0  0  0  0  0  0  0
  1  2  1  0
  2  3  1  0
  3  4  2  0
  2  5  1  0
  5  6  2  0
  5  7  1  0
  7  8  1  0
  8  9  1  0
  9 10  1  0
  9 11  1  0
 11 12  1  0
 11 13  1  0
 13 14  1  0
 14 15  1  0
 13 16  1  0
 16 17  1  0
 17 18  1  0
 17  8  1  0
  1 19  1  0
  1 20  1  0
  1 21  1  0
  7 22  1  0
  8 23  1  6
  9 24  1  1
 10 25  1  0
 11 26  1  1
 12 27  1  0
 13 28  1  6
 14 29  1  0
 14 30  1  0
 15 31  1  0
 17 32  1  1
 18 33  1  0
M  END
>  <meeko>  (5) 
{"is_sidechain": [false], "free_energy": -5.725, "intermolecular_energy": -8.4, "internal_energy": -0.335}

$$$$
2w4x_ligand
     RDKit          3D

 33 33  0  0  0  0  0  0  0  0999 V2000
   -5.3000  -16.4040    8.2570 C   0  0  0  0  0  0  0  0  0  0  0  0
   -5.6080  -15.0480    7.8410 N   0  0  0  0  0  0  0  0  0  0  0  0
   -5.6980  -14.7450    6.3790 N   0  0  0  0  0  0  0  0  0  0  0  0
   -4.6660  -14.2410    5.9220 O   0  0  0  0  0  0  0  0  0  0  0  0
   -5.9100  -14.0700    8.7800 C   0  0  0  0  0  0  0  0  0  0  0  0
   -5.2280  -13.8630    9.7870 O   0  0  0  0  0  0  0  0  0  0  0  0
   -7.0530  -13.3390    8.5410 N   0  0  0  0  0  0  0  0  0  0  0  0
   -7.4110  -12.1710    9.3640 C   0  0  2  0  0  0  0  0  0  0  0  0
   -8.9110  -12.1210    9.7370 C   0  0  1  0  0  0  0  0  0  0  0  0
   -9.1090  -12.7360   11.0200 O   0  0  0  0  0  0  0  0  0  0  0  0
   -9.4530  -10.6850    9.7880 C   0  0  2  0  0  0  0  0  0  0  0  0
   -9.8800  -10.3130    8.4660 O   0  0  0  0  0  0  0  0  0  0  0  0
   -8.3880   -9.6860   10.2770 C   0  0  1  0  0  0  0  0  0  0  0  0
   -8.0540   -9.8810   11.7670 C   0  0  0  0  0  0  0  0  0  0  0  0
   -9.2600  -10.0840   12.5070 O   0  0  0  0  0  0  0  0  0  0  0  0
   -7.1680   -9.7240    9.5060 O   0  0  0  0  0  0  0  0  0  0  0  0
   -7.0030  -10.8580    8.6710 C   0  0  1  0  0  0  0  0  0  0  0  0
   -5.6140  -10.9370    8.3530 O   0  0  0  0  0  0  0  0  0  0  0  0
   -5.2880  -16.4567    9.3557 H   0  0  0  0  0  0  0  0  0  0  0  0
   -6.0651  -17.0904    7.8653 H   0  0  0  0  0  0  0  0  0  0  0  0
   -4.3134  -16.6926    7.8653 H   0  0  0  0  0  0  0  0  0  0  0  0
   -7.2700  -13.2050    7.5580 H   0  0  0  0  0  0  0  0  0  0  0  0
   -6.8468  -12.2836   10.3016 H   0  0  0  0  0  0  0  0  0  0  0  0
   -9.4593  -12.6640    8.9531 H   0  0  0  0  0  0  0  0  0  0  0  0
   -9.6220  -13.5590   10.8390 H   0  0  0  0  0  0  0  0  0  0  0  0
  -10.2911  -10.6540   10.4997 H   0  0  0  0  0  0  0  0  0  0  0  0
  -10.6760   -9.7580    8.5590 H   0  0  0  0  0  0  0  0  0  0  0  0
   -8.8454   -8.6960   10.1333 H   0  0  0  0  0  0  0  0  0  0  0  0
   -7.4009  -10.7584   11.8838 H   0  0  0  0  0  0  0  0  0  0  0  0
   -7.5397   -8.9855   12.1459 H   0  0  0  0  0  0  0  0  0  0  0  0
   -9.9510  -10.3180   11.8660 H   0  0  0  0  0  0  0  0  0  0  0  0
   -7.6451  -10.7405    7.7856 H   0  0  0  0  0  0  0  0  0  0  0  0
   -5.2190  -11.3210    9.1560 H   0  0  0  0  0  0  0  0  0  0  0  0
  1  2  1  0
  2  3  1  0
  3  4  2  0
  2  5  1  0
  5  6  2  0
  5  7  1  0
  7  8  1  0
  8  9  1  0
  9 10  1  0
  9 11  1  0
 11 12  1  0
 11 13  1  0
 13 14  1  0
 14 15  1  0
 13 16  1  0
 16 17  1  0
 17 18  1  0
 17  8  1  0
  1 19  1  0
  1 20  1  0
  1 21  1  0
  7 22  1  0
  8 23  1  1
  9 24  1  6
 10 25  1  0
 11 26  1  1
 12 27  1  0
 13 28  1  1
 14 29  1  0
 14 30  1  0
 15 31  1  0
 17 32  1  6
 18 33  1  0
M  END
>  <meeko>  (6) 
{"is_sidechain": [false], "free_energy": -5.711, "intermolecular_energy": -8.139, "internal_energy": -0.577}

$$$$
2w4x_ligand
     RDKit          3D

 33 33  0  0  0  0  0  0  0  0999 V2000
  -10.9760  -15.0430    9.3770 C   0  0  0  0  0  0  0  0  0  0  0  0
   -9.9650  -14.1170    8.9000 N   0  0  0  0  0  0  0  0  0  0  0  0
   -9.8440  -13.8750    7.4290 N   0  0  0  0  0  0  0  0  0  0  0  0
   -8.6720  -13.8160    7.0410 O   0  0  0  0  0  0  0  0  0  0  0  0
   -9.1870  -13.3930    9.7960 C   0  0  0  0  0  0  0  0  0  0  0  0
   -8.9330  -13.7810   10.9400 O   0  0  0  0  0  0  0  0  0  0  0  0
   -8.7240  -12.1780    9.3440 N   0  0  0  0  0  0  0  0  0  0  0  0
   -7.7640  -11.3780   10.1240 C   0  0  2  0  0  0  0  0  0  0  0  0
   -8.4420  -10.3970   11.1090 C   0  0  1  0  0  0  0  0  0  0  0  0
   -8.5550  -11.0120   12.4020 O   0  0  0  0  0  0  0  0  0  0  0  0
   -7.6620   -9.0820   11.2540 C   0  0  2  0  0  0  0  0  0  0  0  0
   -8.0980   -8.1790   10.2220 O   0  0  0  0  0  0  0  0  0  0  0  0
   -6.1430   -9.2980   11.1300 C   0  0  1  0  0  0  0  0  0  0  0  0
   -5.5680  -10.0640   12.3350 C   0  0  0  0  0  0  0  0  0  0  0  0
   -4.5800   -9.2630   12.9870 O   0  0  0  0  0  0  0  0  0  0  0  0
   -5.7560   -9.9670    9.9110 O   0  0  0  0  0  0  0  0  0  0  0  0
   -6.8030  -10.6070    9.2000 C   0  0  1  0  0  0  0  0  0  0  0  0
   -6.1900  -11.5440    8.3170 O   0  0  0  0  0  0  0  0  0  0  0  0
  -10.9801  -15.0467   10.4770 H   0  0  0  0  0  0  0  0  0  0  0  0
  -11.9637  -14.7297    9.0077 H   0  0  0  0  0  0  0  0  0  0  0  0
  -10.7504  -16.0543    9.0077 H   0  0  0  0  0  0  0  0  0  0  0  0
   -8.5430  -12.1400    8.3460 H   0  0  0  0  0  0  0  0  0  0  0  0
   -7.1944  -12.1013   10.7261 H   0  0  0  0  0  0  0  0  0  0  0  0
   -9.4352  -10.1609   10.6994 H   0  0  0  0  0  0  0  0  0  0  0  0
   -7.7030  -11.4890   12.5400 H   0  0  0  0  0  0  0  0  0  0  0  0
   -7.8592   -8.6684   12.2540 H   0  0  0  0  0  0  0  0  0  0  0  0
   -8.0270   -7.2730   10.5750 H   0  0  0  0  0  0  0  0  0  0  0  0
   -5.7167   -8.2842   11.1067 H   0  0  0  0  0  0  0  0  0  0  0  0
   -6.3781  -10.2937   13.0428 H   0  0  0  0  0  0  0  0  0  0  0  0
   -5.1067  -10.9996   11.9860 H   0  0  0  0  0  0  0  0  0  0  0  0
   -3.7960   -9.8240   13.1090 H   0  0  0  0  0  0  0  0  0  0  0  0
   -7.3935   -9.8404    8.6769 H   0  0  0  0  0  0  0  0  0  0  0  0
   -5.8270  -12.2190    8.9180 H   0  0  0  0  0  0  0  0  0  0  0  0
  1  2  1  0
  2  3  1  0
  3  4  2  0
  2  5  1  0
  5  6  2  0
  5  7  1  0
  7  8  1  0
  8  9  1  0
  9 10  1  0
  9 11  1  0
 11 12  1  0
 11 13  1  0
 13 14  1  0
 14 15  1  0
 13 16  1  0
 16 17  1  0
 17 18  1  0
 17  8  1  0
  1 19  1  0
  1 20  1  0
  1 21  1  0
  7 22  1  0
  8 23  1  1
  9 24  1  6
 10 25  1  0
 11 26  1  1
 12 27  1  0
 13 28  1  6
 14 29  1  0
 14 30  1  0
 15 31  1  0
 17 32  1  6
 18 33  1  0
M  END
>  <meeko>  (7) 
{"is_sidechain": [false], "free_energy": -5.418, "intermolecular_energy": -7.568, "internal_energy": -0.752}

$$$$
2w4x_ligand
     RDKit          3D

 33 33  0  0  0  0  0  0  0  0999 V2000
   -9.3040  -21.5090   10.8820 C   0  0  0  0  0  0  0  0  0  0  0  0
  -10.1160  -20.5310   11.5830 N   0  0  0  0  0  0  0  0  0  0  0  0
  -11.2990  -21.0040   12.3670 N   0  0  0  0  0  0  0  0  0  0  0  0
  -12.0250  -20.0830   12.7560 O   0  0  0  0  0  0  0  0  0  0  0  0
   -9.7490  -19.1910   11.6070 C   0  0  0  0  0  0  0  0  0  0  0  0
   -9.0260  -18.7030   12.4800 O   0  0  0  0  0  0  0  0  0  0  0  0
  -10.2660  -18.4080   10.5990 N   0  0  0  0  0  0  0  0  0  0  0  0
   -9.8390  -17.0100   10.4100 C   0  0  2  0  0  0  0  0  0  0  0  0
  -10.9620  -16.0950    9.8680 C   0  0  1  0  0  0  0  0  0  0  0  0
  -11.6290  -15.4510   10.9650 O   0  0  0  0  0  0  0  0  0  0  0  0
  -10.4280  -15.0180    8.9130 C   0  0  2  0  0  0  0  0  0  0  0  0
  -10.3840  -15.5700    7.5850 O   0  0  0  0  0  0  0  0  0  0  0  0
   -9.0180  -14.5440    9.3120 C   0  0  1  0  0  0  0  0  0  0  0  0
   -9.0300  -13.7340   10.6200 C   0  0  0  0  0  0  0  0  0  0  0  0
  -10.0640  -12.7490   10.5670 O   0  0  0  0  0  0  0  0  0  0  0  0
   -8.0610  -15.6190    9.4250 O   0  0  0  0  0  0  0  0  0  0  0  0
   -8.6080  -16.9260    9.4890 C   0  0  1  0  0  0  0  0  0  0  0  0
   -7.5930  -17.7720   10.0260 O   0  0  0  0  0  0  0  0  0  0  0  0
   -8.7790  -22.1413   11.6131 H   0  0  0  0  0  0  0  0  0  0  0  0
   -9.9499  -22.1371   10.2509 H   0  0  0  0  0  0  0  0  0  0  0  0
   -8.5678  -20.9896   10.2509 H   0  0  0  0  0  0  0  0  0  0  0  0
  -10.4120  -18.8940    9.7200 H   0  0  0  0  0  0  0  0  0  0  0  0
   -9.5749  -16.6408   11.4119 H   0  0  0  0  0  0  0  0  0  0  0  0
  -11.6590  -16.7334    9.3052 H   0  0  0  0  0  0  0  0  0  0  0  0
  -11.9710  -14.6010   10.6000 H   0  0  0  0  0  0  0  0  0  0  0  0
  -11.0983  -14.1471    8.9599 H   0  0  0  0  0  0  0  0  0  0  0  0
  -11.2640  -15.9410    7.3920 H   0  0  0  0  0  0  0  0  0  0  0  0
   -8.6962  -13.8941    8.4849 H   0  0  0  0  0  0  0  0  0  0  0  0
   -9.2129  -14.4109   11.4676 H   0  0  0  0  0  0  0  0  0  0  0  0
   -8.0580  -13.2353   10.7486 H   0  0  0  0  0  0  0  0  0  0  0  0
  -10.8760  -13.1730   10.8920 H   0  0  0  0  0  0  0  0  0  0  0  0
   -8.9311  -17.2231    8.4804 H   0  0  0  0  0  0  0  0  0  0  0  0
   -6.9040  -17.7650    9.3380 H   0  0  0  0  0  0  0  0  0  0  0  0
  1  2  1  0
  2  3  1  0
  3  4  2  0
  2  5  1  0
  5  6  2  0
  5  7  1  0
  7  8  1  0
  8  9  1  0
  9 10  1  0
  9 11  1  0
 11 12  1  0
 11 13  1  0
 13 14  1  0
 14 15  1  0
 13 16  1  0
 16 17  1  0
 17 18  1  0
 17  8  1  0
  1 19  1  0
  1 20  1  0
  1 21  1  0
  7 22  1  0
  8 23  1  1
  9 24  1  6
 10 25  1  0
 11 26  1  6
 12 27  1  0
 13 28  1  6
 14 29  1  0
 14 30  1  0
 15 31  1  0
 17 32  1  6
 18 33  1  0
M  END
>  <meeko>  (8) 
{"is_sidechain": [false], "free_energy": -5.41, "intermolecular_energy": -7.617, "internal_energy": -0.693}

$$$$
2w4x_ligand
     RDKit          3D

 33 33  0  0  0  0  0  0  0  0999 V2000
   -7.3710  -23.3870   13.8490 C   0  0  0  0  0  0  0  0  0  0  0  0
   -8.7360  -22.9410   14.0520 N   0  0  0  0  0  0  0  0  0  0  0  0
   -9.5510  -23.5770   15.1340 N   0  0  0  0  0  0  0  0  0  0  0  0
   -9.7170  -24.7900   14.9690 O   0  0  0  0  0  0  0  0  0  0  0  0
   -9.2500  -21.8760   13.3210 C   0  0  0  0  0  0  0  0  0  0  0  0
  -10.3950  -21.4420   13.4710 O   0  0  0  0  0  0  0  0  0  0  0  0
   -8.4070  -21.3310   12.3780 N   0  0  0  0  0  0  0  0  0  0  0  0
   -8.7600  -20.1040   11.6430 C   0  0  2  0  0  0  0  0  0  0  0  0
   -8.4530  -20.1880   10.1290 C   0  0  1  0  0  0  0  0  0  0  0  0
   -9.6280  -20.6160    9.4230 O   0  0  0  0  0  0  0  0  0  0  0  0
   -7.9910  -18.8430    9.5510 C   0  0  2  0  0  0  0  0  0  0  0  0
   -6.5670  -18.7380    9.7240 O   0  0  0  0  0  0  0  0  0  0  0  0
   -8.6750  -17.6530   10.2480 C   0  0  1  0  0  0  0  0  0  0  0  0
  -10.1740  -17.5690    9.9100 C   0  0  0  0  0  0  0  0  0  0  0  0
  -10.3870  -17.9860    8.5600 O   0  0  0  0  0  0  0  0  0  0  0  0
   -8.5090  -17.6540   11.6820 O   0  0  0  0  0  0  0  0  0  0  0  0
   -8.0590  -18.8740   12.2480 C   0  0  1  0  0  0  0  0  0  0  0  0
   -8.3740  -18.8240   13.6390 O   0  0  0  0  0  0  0  0  0  0  0  0
   -6.8879  -23.5448   14.8246 H   0  0  0  0  0  0  0  0  0  0  0  0
   -7.3738  -24.3309   13.2842 H   0  0  0  0  0  0  0  0  0  0  0  0
   -6.8159  -22.6235   13.2842 H   0  0  0  0  0  0  0  0  0  0  0  0
   -7.4220  -21.3720   12.6190 H   0  0  0  0  0  0  0  0  0  0  0  0
   -9.8496  -19.9964   11.7488 H   0  0  0  0  0  0  0  0  0  0  0  0
   -7.6342  -20.9116   10.0026 H   0  0  0  0  0  0  0  0  0  0  0  0
  -10.3550  -20.5960   10.0880 H   0  0  0  0  0  0  0  0  0  0  0  0
   -8.2654  -18.8092    8.4863 H   0  0  0  0  0  0  0  0  0  0  0  0
   -6.1560  -18.8330    8.8450 H   0  0  0  0  0  0  0  0  0  0  0  0
   -8.1624  -16.7642    9.8513 H   0  0  0  0  0  0  0  0  0  0  0  0
  -10.7392  -18.2246   10.5888 H   0  0  0  0  0  0  0  0  0  0  0  0
  -10.5168  -16.5306   10.0291 H   0  0  0  0  0  0  0  0  0  0  0  0
  -11.3080  -18.2890    8.4980 H   0  0  0  0  0  0  0  0  0  0  0  0
   -6.9820  -18.9785   12.0500 H   0  0  0  0  0  0  0  0  0  0  0  0
   -8.2370  -19.7410   13.9360 H   0  0  0  0  0  0  0  0  0  0  0  0
  1  2  1  0
  2  3  1  0
  3  4  2  0
  2  5  1  0
  5  6  2  0
  5  7  1  0
  7  8  1  0
  8  9  1  0
  9 10  1  0
  9 11  1  0
 11 12  1  0
 11 13  1  0
 13 14  1  0
 14 15  1  0
 13 16  1  0
 16 17  1  0
 17 18  1  0
 17  8  1  0
  1 19  1  0
  1 20  1  0
  1 21  1  0
  7 22  1  0
  8 23  1  6
  9 24  1  1
 10 25  1  0
 11 26  1  6
 12 27  1  0
 13 28  1  6
 14 29  1  0
 14 30  1  0
 15 31  1  0
 17 32  1  1
 18 33  1  0
M  END
>  <meeko>  (9) 
{"is_sidechain": [false], "free_energy": -5.356, "intermolecular_energy": -7.734, "internal_energy": -0.502}

$$$$
