2v7a_ligand
     RDKit          3D

 67 71  0  0  0  0  0  0  0  0999 V2000
  -44.9090  -44.9790   -7.1170 C   0  0  0  0  0  0  0  0  0  0  0  0
  -43.5060  -44.7700   -7.2500 O   0  0  0  0  0  0  0  0  0  0  0  0
  -42.8870  -45.7580   -8.0830 C   0  0  1  0  0  0  0  0  0  0  0  0
  -41.6750  -45.1330   -8.8270 C   0  0  0  0  0  0  0  0  0  0  0  0
  -41.2550  -44.0110   -8.5200 O   0  0  0  0  0  0  0  0  0  0  0  0
  -41.0810  -45.8200   -9.8690 N   0  0  0  0  0  0  0  0  0  0  0  0
  -39.7570  -45.5270  -10.4660 C   0  0  0  0  0  0  0  0  0  0  0  0
  -39.6540  -46.6190  -11.4380 C   0  0  0  0  0  0  0  0  0  0  0  0
  -38.7390  -47.0950  -12.3710 N   0  0  0  0  0  0  0  0  0  0  0  0
  -39.4140  -48.3340  -13.0050 N   0  0  0  0  0  0  0  0  0  0  0  0
  -40.6880  -48.4870  -12.3840 C   0  0  0  0  0  0  0  0  0  0  0  0
  -41.6330  -49.5520  -12.7140 N   0  0  0  0  0  0  0  0  0  0  0  0
  -41.4410  -50.8020  -12.1620 C   0  0  0  0  0  0  0  0  0  0  0  0
  -40.4790  -51.0100  -11.4200 O   0  0  0  0  0  0  0  0  0  0  0  0
  -42.4030  -51.8840  -12.5100 C   0  0  0  0  0  0  0  0  0  0  0  0
  -43.6950  -51.9510  -11.9860 C   0  0  0  0  0  0  0  0  0  0  0  0
  -44.5470  -53.0050  -12.3540 C   0  0  0  0  0  0  0  0  0  0  0  0
  -44.1420  -54.0190  -13.2400 C   0  0  0  0  0  0  0  0  0  0  0  0
  -45.0430  -55.0470  -13.5810 N   0  0  0  0  0  0  0  0  0  0  0  0
  -44.6630  -55.7530  -14.8380 C   0  0  0  0  0  0  0  0  0  0  0  0
  -45.7490  -56.7670  -15.2800 C   0  0  0  0  0  0  0  0  0  0  0  0
  -46.5350  -57.2250  -14.0660 N   0  0  0  0  0  0  0  0  0  0  0  0
  -47.3720  -58.4370  -14.3100 C   0  0  0  0  0  0  0  0  0  0  0  0
  -47.3180  -56.0720  -13.4530 C   0  0  0  0  0  0  0  0  0  0  0  0
  -46.4920  -54.7610  -13.4610 C   0  0  0  0  0  0  0  0  0  0  0  0
  -42.8390  -53.9320  -13.7490 C   0  0  0  0  0  0  0  0  0  0  0  0
  -41.9780  -52.8870  -13.3860 C   0  0  0  0  0  0  0  0  0  0  0  0
  -40.8260  -47.4380  -11.4350 C   0  0  0  0  0  0  0  0  0  0  0  0
  -41.7940  -46.9610  -10.4640 C   0  0  0  0  0  0  0  0  0  0  0  0
  -42.4810  -47.0010   -7.3010 C   0  0  0  0  0  0  0  0  0  0  0  0
  -43.2230  -48.1930   -7.3510 C   0  0  0  0  0  0  0  0  0  0  0  0
  -42.8200  -49.3180   -6.6290 C   0  0  0  0  0  0  0  0  0  0  0  0
  -41.6630  -49.2730   -5.8540 C   0  0  0  0  0  0  0  0  0  0  0  0
  -40.9070  -48.1050   -5.8040 C   0  0  0  0  0  0  0  0  0  0  0  0
  -41.3100  -46.9800   -6.5240 C   0  0  0  0  0  0  0  0  0  0  0  0
  -45.1743  -45.0185   -6.0502 H   0  0  0  0  0  0  0  0  0  0  0  0
  -45.4503  -44.1516   -7.5991 H   0  0  0  0  0  0  0  0  0  0  0  0
  -45.1856  -45.9283   -7.5991 H   0  0  0  0  0  0  0  0  0  0  0  0
  -43.6278  -46.0907   -8.8250 H   0  0  0  0  0  0  0  0  0  0  0  0
  -39.7421  -44.5431  -10.9577 H   0  0  0  0  0  0  0  0  0  0  0  0
  -38.9293  -45.4775   -9.7431 H   0  0  0  0  0  0  0  0  0  0  0  0
  -37.8110  -46.7480  -12.6250 H   0  0  0  0  0  0  0  0  0  0  0  0
  -39.0490  -48.9540  -13.7400 H   0  0  0  0  0  0  0  0  0  0  0  0
  -42.3720  -49.3680  -13.3800 H   0  0  0  0  0  0  0  0  0  0  0  0
  -44.0456  -51.1788  -11.2854 H   0  0  0  0  0  0  0  0  0  0  0  0
  -45.5638  -53.0384  -11.9357 H   0  0  0  0  0  0  0  0  0  0  0  0
  -44.5246  -55.0090  -15.6363 H   0  0  0  0  0  0  0  0  0  0  0  0
  -43.7327  -56.3089  -14.6499 H   0  0  0  0  0  0  0  0  0  0  0  0
  -46.4297  -56.2860  -15.9978 H   0  0  0  0  0  0  0  0  0  0  0  0
  -45.2692  -57.6350  -15.7559 H   0  0  0  0  0  0  0  0  0  0  0  0
  -45.8240  -57.4560  -13.3550 H   0  0  0  0  0  0  0  0  0  0  0  0
  -47.6739  -58.8741  -13.3468 H   0  0  0  0  0  0  0  0  0  0  0  0
  -48.2684  -58.1545  -14.8815 H   0  0  0  0  0  0  0  0  0  0  0  0
  -46.7904  -59.1753  -14.8815 H   0  0  0  0  0  0  0  0  0  0  0  0
  -48.2403  -55.9176  -14.0323 H   0  0  0  0  0  0  0  0  0  0  0  0
  -47.5514  -56.3281  -12.4090 H   0  0  0  0  0  0  0  0  0  0  0  0
  -46.8082  -54.1418  -14.3134 H   0  0  0  0  0  0  0  0  0  0  0  0
  -46.6672  -54.2306  -12.5134 H   0  0  0  0  0  0  0  0  0  0  0  0
  -42.4836  -54.7018  -14.4498 H   0  0  0  0  0  0  0  0  0  0  0  0
  -40.9572  -52.8560  -13.7948 H   0  0  0  0  0  0  0  0  0  0  0  0
  -42.7268  -46.6411  -10.9514 H   0  0  0  0  0  0  0  0  0  0  0  0
  -42.1070  -47.7221   -9.7341 H   0  0  0  0  0  0  0  0  0  0  0  0
  -44.1332  -48.2405   -7.9669 H   0  0  0  0  0  0  0  0  0  0  0  0
  -43.4167  -50.2411   -6.6721 H   0  0  0  0  0  0  0  0  0  0  0  0
  -41.3475  -50.1585   -5.2828 H   0  0  0  0  0  0  0  0  0  0  0  0
  -39.9909  -48.0691   -5.1961 H   0  0  0  0  0  0  0  0  0  0  0  0
  -40.7028  -46.0637   -6.4830 H   0  0  0  0  0  0  0  0  0  0  0  0
  1  2  1  0
  2  3  1  0
  3  4  1  0
  4  5  2  0
  4  6  1  0
  6  7  1  0
  7  8  1  0
  8  9  1  0
  9 10  1  0
 10 11  2  0
 11 12  1  0
 12 13  1  0
 13 14  2  0
 13 15  1  0
 15 16  2  0
 16 17  1  0
 17 18  2  0
 18 19  1  0
 19 20  1  0
 20 21  1  0
 21 22  1  0
 22 23  1  0
 22 24  1  0
 24 25  1  0
 18 26  1  0
 26 27  2  0
 11 28  1  0
 28 29  1  0
  3 30  1  0
 30 31  2  0
 31 32  1  0
 32 33  2  0
 33 34  1  0
 34 35  2  0
 29  6  1  0
 35 30  1  0
 28  8  2  0
 27 15  1  0
 25 19  1  0
  1 36  1  0
  1 37  1  0
  1 38  1  0
  3 39  1  6
  7 40  1  0
  7 41  1  0
  9 42  1  0
 10 43  1  0
 12 44  1  0
 16 45  1  0
 17 46  1  0
 20 47  1  0
 20 48  1  0
 21 49  1  0
 21 50  1  0
 22 51  1  0
 23 52  1  0
 23 53  1  0
 23 54  1  0
 24 55  1  0
 24 56  1  0
 25 57  1  0
 25 58  1  0
 26 59  1  0
 27 60  1  0
 29 61  1  0
 29 62  1  0
 31 63  1  0
 32 64  1  0
 33 65  1  0
 34 66  1  0
 35 67  1  0
M  CHG  2  10   1  22   1
M  END
>  <meeko>  (1) 
{"is_sidechain": [false], "free_energy": -9.027, "intermolecular_energy": -12.721, "internal_energy": -1.169}

$$$$
2v7a_ligand
     RDKit          3D

 67 71  0  0  0  0  0  0  0  0999 V2000
  -44.8700  -44.7570   -7.0490 C   0  0  0  0  0  0  0  0  0  0  0  0
  -44.0850  -45.5210   -7.9600 O   0  0  0  0  0  0  0  0  0  0  0  0
  -42.6820  -45.4110   -7.6900 C   0  0  1  0  0  0  0  0  0  0  0  0
  -42.2340  -46.5680   -6.7570 C   0  0  0  0  0  0  0  0  0  0  0  0
  -41.1680  -46.5020   -6.1330 O   0  0  0  0  0  0  0  0  0  0  0  0
  -43.0140  -47.7040   -6.6500 N   0  0  0  0  0  0  0  0  0  0  0  0
  -44.0830  -47.9400   -5.6510 C   0  0  0  0  0  0  0  0  0  0  0  0
  -44.5820  -49.2450   -6.0930 C   0  0  0  0  0  0  0  0  0  0  0  0
  -45.5750  -50.1510   -5.7380 N   0  0  0  0  0  0  0  0  0  0  0  0
  -45.4350  -51.3200   -6.7430 N   0  0  0  0  0  0  0  0  0  0  0  0
  -44.3560  -50.9990   -7.6180 C   0  0  0  0  0  0  0  0  0  0  0  0
  -43.9110  -51.8600   -8.7120 N   0  0  0  0  0  0  0  0  0  0  0  0
  -44.7070  -51.9700   -9.8340 C   0  0  0  0  0  0  0  0  0  0  0  0
  -45.7760  -51.3620   -9.8960 O   0  0  0  0  0  0  0  0  0  0  0  0
  -44.2500  -52.8560  -10.9400 C   0  0  0  0  0  0  0  0  0  0  0  0
  -43.4810  -52.4000  -12.0130 C   0  0  0  0  0  0  0  0  0  0  0  0
  -43.0920  -53.2920  -13.0250 C   0  0  0  0  0  0  0  0  0  0  0  0
  -43.4570  -54.6500  -13.0060 C   0  0  0  0  0  0  0  0  0  0  0  0
  -43.0290  -55.5010  -14.0440 N   0  0  0  0  0  0  0  0  0  0  0  0
  -43.0410  -54.8350  -15.3780 C   0  0  0  0  0  0  0  0  0  0  0  0
  -42.7240  -55.8310  -16.5230 C   0  0  0  0  0  0  0  0  0  0  0  0
  -41.8940  -56.9780  -15.9770 N   0  0  0  0  0  0  0  0  0  0  0  0
  -41.2500  -57.8140  -17.0340 C   0  0  0  0  0  0  0  0  0  0  0  0
  -42.6870  -57.7970  -14.9680 C   0  0  0  0  0  0  0  0  0  0  0  0
  -43.5490  -56.8880  -14.0550 C   0  0  0  0  0  0  0  0  0  0  0  0
  -44.2320  -55.0830  -11.9210 C   0  0  0  0  0  0  0  0  0  0  0  0
  -44.6310  -54.2000  -10.9070 C   0  0  0  0  0  0  0  0  0  0  0  0
  -43.8420  -49.7370   -7.2140 C   0  0  0  0  0  0  0  0  0  0  0  0
  -42.8020  -48.8030   -7.6050 C   0  0  0  0  0  0  0  0  0  0  0  0
  -41.8500  -45.3690   -8.9660 C   0  0  0  0  0  0  0  0  0  0  0  0
  -40.4930  -45.0070   -8.9640 C   0  0  0  0  0  0  0  0  0  0  0  0
  -39.7550  -44.9880  -10.1500 C   0  0  0  0  0  0  0  0  0  0  0  0
  -40.3600  -45.3400  -11.3540 C   0  0  0  0  0  0  0  0  0  0  0  0
  -41.7000  -45.7150  -11.3740 C   0  0  0  0  0  0  0  0  0  0  0  0
  -42.4380  -45.7340  -10.1900 C   0  0  0  0  0  0  0  0  0  0  0  0
  -44.5968  -45.0229   -6.0172 H   0  0  0  0  0  0  0  0  0  0  0  0
  -44.6832  -43.6855   -7.2132 H   0  0  0  0  0  0  0  0  0  0  0  0
  -45.9361  -44.9728   -7.2132 H   0  0  0  0  0  0  0  0  0  0  0  0
  -42.5078  -44.4532   -7.1779 H   0  0  0  0  0  0  0  0  0  0  0  0
  -43.6799  -47.9850   -4.6285 H   0  0  0  0  0  0  0  0  0  0  0  0
  -44.8472  -47.1502   -5.6038 H   0  0  0  0  0  0  0  0  0  0  0  0
  -46.2720  -50.1100   -4.9920 H   0  0  0  0  0  0  0  0  0  0  0  0
  -45.9900  -52.1820   -6.7990 H   0  0  0  0  0  0  0  0  0  0  0  0
  -43.0610  -52.3990   -8.6020 H   0  0  0  0  0  0  0  0  0  0  0  0
  -43.1804  -51.3431  -12.0651 H   0  0  0  0  0  0  0  0  0  0  0  0
  -42.4820  -52.9165  -13.8598 H   0  0  0  0  0  0  0  0  0  0  0  0
  -44.0368  -54.4005  -15.5499 H   0  0  0  0  0  0  0  0  0  0  0  0
  -42.2639  -54.0564  -15.3779 H   0  0  0  0  0  0  0  0  0  0  0  0
  -43.6637  -56.2233  -16.9390 H   0  0  0  0  0  0  0  0  0  0  0  0
  -42.1615  -55.3143  -17.3146 H   0  0  0  0  0  0  0  0  0  0  0  0
  -41.1530  -56.5310  -15.4160 H   0  0  0  0  0  0  0  0  0  0  0  0
  -40.6440  -58.6006  -16.5607 H   0  0  0  0  0  0  0  0  0  0  0  0
  -42.0274  -58.2766  -17.6599 H   0  0  0  0  0  0  0  0  0  0  0  0
  -40.6043  -57.1804  -17.6599 H   0  0  0  0  0  0  0  0  0  0  0  0
  -43.3476  -58.4900  -15.5096 H   0  0  0  0  0  0  0  0  0  0  0  0
  -41.9766  -58.3494  -14.3354 H   0  0  0  0  0  0  0  0  0  0  0  0
  -44.5838  -56.8813  -14.4279 H   0  0  0  0  0  0  0  0  0  0  0  0
  -43.5115  -57.2846  -13.0297 H   0  0  0  0  0  0  0  0  0  0  0  0
  -44.5340  -56.1392  -11.8636 H   0  0  0  0  0  0  0  0  0  0  0  0
  -45.2507  -54.5695  -10.0766 H   0  0  0  0  0  0  0  0  0  0  0  0
  -41.8016  -49.2460   -7.4910 H   0  0  0  0  0  0  0  0  0  0  0  0
  -42.8524  -48.4943   -8.6596 H   0  0  0  0  0  0  0  0  0  0  0  0
  -40.0050  -44.7350   -8.0164 H   0  0  0  0  0  0  0  0  0  0  0  0
  -38.6950  -44.6947  -10.1329 H   0  0  0  0  0  0  0  0  0  0  0  0
  -39.7793  -45.3216  -12.2881 H   0  0  0  0  0  0  0  0  0  0  0  0
  -42.1778  -45.9967  -12.3240 H   0  0  0  0  0  0  0  0  0  0  0  0
  -43.4946  -46.0388  -10.2145 H   0  0  0  0  0  0  0  0  0  0  0  0
  1  2  1  0
  2  3  1  0
  3  4  1  0
  4  5  2  0
  4  6  1  0
  6  7  1  0
  7  8  1  0
  8  9  1  0
  9 10  1  0
 10 11  2  0
 11 12  1  0
 12 13  1  0
 13 14  2  0
 13 15  1  0
 15 16  2  0
 16 17  1  0
 17 18  2  0
 18 19  1  0
 19 20  1  0
 20 21  1  0
 21 22  1  0
 22 23  1  0
 22 24  1  0
 24 25  1  0
 18 26  1  0
 26 27  2  0
 11 28  1  0
 28 29  1  0
  3 30  1  0
 30 31  2  0
 31 32  1  0
 32 33  2  0
 33 34  1  0
 34 35  2  0
 29  6  1  0
 35 30  1  0
 28  8  2  0
 27 15  1  0
 25 19  1  0
  1 36  1  0
  1 37  1  0
  1 38  1  0
  3 39  1  1
  7 40  1  0
  7 41  1  0
  9 42  1  0
 10 43  1  0
 12 44  1  0
 16 45  1  0
 17 46  1  0
 20 47  1  0
 20 48  1  0
 21 49  1  0
 21 50  1  0
 22 51  1  0
 23 52  1  0
 23 53  1  0
 23 54  1  0
 24 55  1  0
 24 56  1  0
 25 57  1  0
 25 58  1  0
 26 59  1  0
 27 60  1  0
 29 61  1  0
 29 62  1  0
 31 63  1  0
 32 64  1  0
 33 65  1  0
 34 66  1  0
 35 67  1  0
M  CHG  2  10   1  22   1
M  END
>  <meeko>  (2) 
{"is_sidechain": [false], "free_energy": -9.0, "intermolecular_energy": -12.662, "internal_energy": -1.19}

$$$$
2v7a_ligand
     RDKit          3D

 67 71  0  0  0  0  0  0  0  0999 V2000
  -39.1560  -48.6820  -12.2960 C   0  0  0  0  0  0  0  0  0  0  0  0
  -40.1390  -49.6130  -12.7420 O   0  0  0  0  0  0  0  0  0  0  0  0
  -41.1880  -49.7950  -11.7830 C   0  0  1  0  0  0  0  0  0  0  0  0
  -41.9640  -48.4630  -11.5960 C   0  0  0  0  0  0  0  0  0  0  0  0
  -42.4450  -47.8680  -12.5680 O   0  0  0  0  0  0  0  0  0  0  0  0
  -42.0860  -47.9120  -10.3340 N   0  0  0  0  0  0  0  0  0  0  0  0
  -41.6450  -46.5580   -9.9240 C   0  0  0  0  0  0  0  0  0  0  0  0
  -42.1120  -46.5310   -8.5360 C   0  0  0  0  0  0  0  0  0  0  0  0
  -42.1350  -45.6440   -7.4660 N   0  0  0  0  0  0  0  0  0  0  0  0
  -42.8350  -46.4110   -6.3180 N   0  0  0  0  0  0  0  0  0  0  0  0
  -43.1730  -47.7030   -6.8170 C   0  0  0  0  0  0  0  0  0  0  0  0
  -43.8520  -48.7290   -6.0280 N   0  0  0  0  0  0  0  0  0  0  0  0
  -44.9340  -48.3600   -5.2540 C   0  0  0  0  0  0  0  0  0  0  0  0
  -45.3020  -47.1850   -5.2240 O   0  0  0  0  0  0  0  0  0  0  0  0
  -45.6150  -49.4100   -4.4470 C   0  0  0  0  0  0  0  0  0  0  0  0
  -46.3400  -49.1290   -3.2880 C   0  0  0  0  0  0  0  0  0  0  0  0
  -46.9510  -50.1710   -2.5720 C   0  0  0  0  0  0  0  0  0  0  0  0
  -46.8530  -51.5140   -2.9780 C   0  0  0  0  0  0  0  0  0  0  0  0
  -47.4950  -52.5170   -2.2260 N   0  0  0  0  0  0  0  0  0  0  0  0
  -47.0640  -53.8920   -2.6130 C   0  0  0  0  0  0  0  0  0  0  0  0
  -47.8960  -54.9810   -1.8890 C   0  0  0  0  0  0  0  0  0  0  0  0
  -48.4310  -54.4230   -0.5830 N   0  0  0  0  0  0  0  0  0  0  0  0
  -48.9560  -55.4650    0.3490 C   0  0  0  0  0  0  0  0  0  0  0  0
  -49.4190  -53.2920   -0.8340 C   0  0  0  0  0  0  0  0  0  0  0  0
  -48.9520  -52.3810   -1.9980 C   0  0  0  0  0  0  0  0  0  0  0  0
  -46.1160  -51.7720   -4.1430 C   0  0  0  0  0  0  0  0  0  0  0  0
  -45.4990  -50.7390   -4.8630 C   0  0  0  0  0  0  0  0  0  0  0  0
  -42.7270  -47.7680   -8.1650 C   0  0  0  0  0  0  0  0  0  0  0  0
  -42.7190  -48.7080   -9.2710 C   0  0  0  0  0  0  0  0  0  0  0  0
  -42.1240  -50.9370  -12.1600 C   0  0  0  0  0  0  0  0  0  0  0  0
  -43.4190  -51.0510  -11.6290 C   0  0  0  0  0  0  0  0  0  0  0  0
  -44.2560  -52.1040  -12.0010 C   0  0  0  0  0  0  0  0  0  0  0  0
  -43.8150  -53.0560  -12.9180 C   0  0  0  0  0  0  0  0  0  0  0  0
  -42.5390  -52.9520  -13.4650 C   0  0  0  0  0  0  0  0  0  0  0  0
  -41.7020  -51.9000  -13.0930 C   0  0  0  0  0  0  0  0  0  0  0  0
  -39.1387  -48.6657  -11.1963 H   0  0  0  0  0  0  0  0  0  0  0  0
  -38.1677  -48.9831  -12.6738 H   0  0  0  0  0  0  0  0  0  0  0  0
  -39.4030  -47.6789  -12.6738 H   0  0  0  0  0  0  0  0  0  0  0  0
  -40.7284  -50.0783  -10.8246 H   0  0  0  0  0  0  0  0  0  0  0  0
  -40.5520  -46.4512   -9.9864 H   0  0  0  0  0  0  0  0  0  0  0  0
  -42.0308  -45.7416  -10.5522 H   0  0  0  0  0  0  0  0  0  0  0  0
  -41.7840  -44.6860   -7.3920 H   0  0  0  0  0  0  0  0  0  0  0  0
  -43.0350  -46.0870   -5.3640 H   0  0  0  0  0  0  0  0  0  0  0  0
  -43.4840  -49.6710   -6.0210 H   0  0  0  0  0  0  0  0  0  0  0  0
  -46.4328  -48.0912   -2.9354 H   0  0  0  0  0  0  0  0  0  0  0  0
  -47.5244  -49.9293   -1.6649 H   0  0  0  0  0  0  0  0  0  0  0  0
  -47.1891  -54.0118   -3.6993 H   0  0  0  0  0  0  0  0  0  0  0  0
  -46.0108  -54.0153   -2.3203 H   0  0  0  0  0  0  0  0  0  0  0  0
  -48.7368  -55.2863   -2.5292 H   0  0  0  0  0  0  0  0  0  0  0  0
  -47.2581  -55.8528   -1.6816 H   0  0  0  0  0  0  0  0  0  0  0  0
  -47.6240  -53.9610   -0.1380 H   0  0  0  0  0  0  0  0  0  0  0  0
  -48.7937  -55.1428    1.3882 H   0  0  0  0  0  0  0  0  0  0  0  0
  -50.0326  -55.6057    0.1727 H   0  0  0  0  0  0  0  0  0  0  0  0
  -48.4284  -56.4140    0.1727 H   0  0  0  0  0  0  0  0  0  0  0  0
  -50.3990  -53.7225   -1.0875 H   0  0  0  0  0  0  0  0  0  0  0  0
  -49.4852  -52.6813    0.0785 H   0  0  0  0  0  0  0  0  0  0  0  0
  -49.4879  -52.6661   -2.9153 H   0  0  0  0  0  0  0  0  0  0  0  0
  -49.1696  -51.3355   -1.7341 H   0  0  0  0  0  0  0  0  0  0  0  0
  -46.0198  -52.8080   -4.4999 H   0  0  0  0  0  0  0  0  0  0  0  0
  -44.9171  -50.9775   -5.7655 H   0  0  0  0  0  0  0  0  0  0  0  0
  -42.1253  -49.6028   -9.0325 H   0  0  0  0  0  0  0  0  0  0  0  0
  -43.7141  -49.0951   -9.5353 H   0  0  0  0  0  0  0  0  0  0  0  0
  -43.7786  -50.3001  -10.9101 H   0  0  0  0  0  0  0  0  0  0  0  0
  -45.2649  -52.1825  -11.5698 H   0  0  0  0  0  0  0  0  0  0  0  0
  -44.4735  -53.8877  -13.2090 H   0  0  0  0  0  0  0  0  0  0  0  0
  -42.1903  -53.7006  -14.1917 H   0  0  0  0  0  0  0  0  0  0  0  0
  -40.6980  -51.8229  -13.5358 H   0  0  0  0  0  0  0  0  0  0  0  0
  1  2  1  0
  2  3  1  0
  3  4  1  0
  4  5  2  0
  4  6  1  0
  6  7  1  0
  7  8  1  0
  8  9  1  0
  9 10  1  0
 10 11  2  0
 11 12  1  0
 12 13  1  0
 13 14  2  0
 13 15  1  0
 15 16  2  0
 16 17  1  0
 17 18  2  0
 18 19  1  0
 19 20  1  0
 20 21  1  0
 21 22  1  0
 22 23  1  0
 22 24  1  0
 24 25  1  0
 18 26  1  0
 26 27  2  0
 11 28  1  0
 28 29  1  0
  3 30  1  0
 30 31  2  0
 31 32  1  0
 32 33  2  0
 33 34  1  0
 34 35  2  0
 29  6  1  0
 35 30  1  0
 28  8  2  0
 27 15  1  0
 25 19  1  0
  1 36  1  0
  1 37  1  0
  1 38  1  0
  3 39  1  1
  7 40  1  0
  7 41  1  0
  9 42  1  0
 10 43  1  0
 12 44  1  0
 16 45  1  0
 17 46  1  0
 20 47  1  0
 20 48  1  0
 21 49  1  0
 21 50  1  0
 22 51  1  0
 23 52  1  0
 23 53  1  0
 23 54  1  0
 24 55  1  0
 24 56  1  0
 25 57  1  0
 25 58  1  0
 26 59  1  0
 27 60  1  0
 29 61  1  0
 29 62  1  0
 31 63  1  0
 32 64  1  0
 33 65  1  0
 34 66  1  0
 35 67  1  0
M  CHG  2  10   1  22   1
M  END
>  <meeko>  (3) 
{"is_sidechain": [false], "free_energy": -8.706, "intermolecular_energy": -12.356, "internal_energy": -1.082}

$$$$
2v7a_ligand
     RDKit          3D

 67 71  0  0  0  0  0  0  0  0999 V2000
  -40.9700  -47.5680  -11.6370 C   0  0  0  0  0  0  0  0  0  0  0  0
  -41.8160  -48.5590  -12.2170 O   0  0  0  0  0  0  0  0  0  0  0  0
  -42.3550  -49.4530  -11.2360 C   0  0  1  0  0  0  0  0  0  0  0  0
  -43.6040  -48.8130  -10.5730 C   0  0  0  0  0  0  0  0  0  0  0  0
  -44.6110  -48.5500  -11.2420 O   0  0  0  0  0  0  0  0  0  0  0  0
  -43.5820  -48.4970   -9.2280 N   0  0  0  0  0  0  0  0  0  0  0  0
  -43.0200  -47.2630   -8.6290 C   0  0  0  0  0  0  0  0  0  0  0  0
  -43.3630  -47.4680   -7.2200 C   0  0  0  0  0  0  0  0  0  0  0  0
  -43.2350  -46.7920   -6.0110 N   0  0  0  0  0  0  0  0  0  0  0  0
  -43.8810  -47.7210   -4.9560 N   0  0  0  0  0  0  0  0  0  0  0  0
  -44.3430  -48.8830   -5.6410 C   0  0  0  0  0  0  0  0  0  0  0  0
  -45.0160  -50.0020   -4.9850 N   0  0  0  0  0  0  0  0  0  0  0  0
  -45.9990  -49.7300   -4.0550 C   0  0  0  0  0  0  0  0  0  0  0  0
  -46.2850  -48.5640   -3.7790 O   0  0  0  0  0  0  0  0  0  0  0  0
  -46.6740  -50.8760   -3.3850 C   0  0  0  0  0  0  0  0  0  0  0  0
  -47.8550  -50.7420   -2.6520 C   0  0  0  0  0  0  0  0  0  0  0  0
  -48.4320  -51.8670   -2.0400 C   0  0  0  0  0  0  0  0  0  0  0  0
  -47.8540  -53.1450   -2.1300 C   0  0  0  0  0  0  0  0  0  0  0  0
  -48.4820  -54.2390   -1.5040 N   0  0  0  0  0  0  0  0  0  0  0  0
  -48.3850  -54.1870   -0.0170 C   0  0  0  0  0  0  0  0  0  0  0  0
  -48.9380  -55.4760    0.6430 C   0  0  0  0  0  0  0  0  0  0  0  0
  -49.9630  -56.1130   -0.2770 N   0  0  0  0  0  0  0  0  0  0  0  0
  -50.8000  -57.1580    0.3830 C   0  0  0  0  0  0  0  0  0  0  0  0
  -49.3150  -56.5940   -1.5690 C   0  0  0  0  0  0  0  0  0  0  0  0
  -48.2540  -55.5860   -2.0790 C   0  0  0  0  0  0  0  0  0  0  0  0
  -46.6660  -53.2540   -2.8670 C   0  0  0  0  0  0  0  0  0  0  0  0
  -46.0790  -52.1370   -3.4790 C   0  0  0  0  0  0  0  0  0  0  0  0
  -44.0210  -48.7220   -7.0160 C   0  0  0  0  0  0  0  0  0  0  0  0
  -44.1700  -49.4430   -8.2670 C   0  0  0  0  0  0  0  0  0  0  0  0
  -42.6720  -50.8250  -11.8180 C   0  0  0  0  0  0  0  0  0  0  0  0
  -41.9680  -51.3570  -12.9100 C   0  0  0  0  0  0  0  0  0  0  0  0
  -42.2770  -52.6220  -13.4140 C   0  0  0  0  0  0  0  0  0  0  0  0
  -43.2890  -53.3790  -12.8280 C   0  0  0  0  0  0  0  0  0  0  0  0
  -43.9890  -52.8740  -11.7360 C   0  0  0  0  0  0  0  0  0  0  0  0
  -43.6810  -51.6100  -11.2320 C   0  0  0  0  0  0  0  0  0  0  0  0
  -41.0263  -47.6340  -10.5404 H   0  0  0  0  0  0  0  0  0  0  0  0
  -39.9325  -47.7360  -11.9616 H   0  0  0  0  0  0  0  0  0  0  0  0
  -41.2987  -46.5697  -11.9616 H   0  0  0  0  0  0  0  0  0  0  0  0
  -41.5878  -49.6169  -10.4650 H   0  0  0  0  0  0  0  0  0  0  0  0
  -41.9318  -47.1994   -8.7767 H   0  0  0  0  0  0  0  0  0  0  0  0
  -43.4044  -46.3278   -9.0623 H   0  0  0  0  0  0  0  0  0  0  0  0
  -42.8180  -45.8820   -5.8030 H   0  0  0  0  0  0  0  0  0  0  0  0
  -43.9760  -47.5680   -3.9440 H   0  0  0  0  0  0  0  0  0  0  0  0
  -44.7120  -50.9460   -5.1830 H   0  0  0  0  0  0  0  0  0  0  0  0
  -48.3331  -49.7562   -2.5539 H   0  0  0  0  0  0  0  0  0  0  0  0
  -49.3660  -51.7439   -1.4722 H   0  0  0  0  0  0  0  0  0  0  0  0
  -47.3290  -54.0670    0.2667 H   0  0  0  0  0  0  0  0  0  0  0  0
  -48.9888  -53.3375    0.3348 H   0  0  0  0  0  0  0  0  0  0  0  0
  -48.1127  -56.1820    0.8178 H   0  0  0  0  0  0  0  0  0  0  0  0
  -49.4123  -55.2232    1.6027 H   0  0  0  0  0  0  0  0  0  0  0  0
  -50.5770  -55.3400   -0.5730 H   0  0  0  0  0  0  0  0  0  0  0  0
  -50.7189  -57.0568    1.4753 H   0  0  0  0  0  0  0  0  0  0  0  0
  -51.8499  -57.0322    0.0800 H   0  0  0  0  0  0  0  0  0  0  0  0
  -50.4479  -58.1551    0.0800 H   0  0  0  0  0  0  0  0  0  0  0  0
  -48.8287  -57.5636   -1.3861 H   0  0  0  0  0  0  0  0  0  0  0  0
  -50.0988  -56.6887   -2.3350 H   0  0  0  0  0  0  0  0  0  0  0  0
  -47.2537  -55.9376   -1.7862 H   0  0  0  0  0  0  0  0  0  0  0  0
  -48.3330  -55.5178   -3.1740 H   0  0  0  0  0  0  0  0  0  0  0  0
  -46.1838  -54.2376   -2.9673 H   0  0  0  0  0  0  0  0  0  0  0  0
  -45.1397  -52.2548   -4.0393 H   0  0  0  0  0  0  0  0  0  0  0  0
  -43.6167  -50.3936   -8.2503 H   0  0  0  0  0  0  0  0  0  0  0  0
  -45.2072  -49.7273   -8.4978 H   0  0  0  0  0  0  0  0  0  0  0  0
  -41.1624  -50.7695  -13.3746 H   0  0  0  0  0  0  0  0  0  0  0  0
  -41.7206  -53.0213  -14.2748 H   0  0  0  0  0  0  0  0  0  0  0  0
  -43.5345  -54.3740  -13.2275 H   0  0  0  0  0  0  0  0  0  0  0  0
  -44.7859  -53.4721  -11.2699 H   0  0  0  0  0  0  0  0  0  0  0  0
  -44.2350  -51.2222  -10.3644 H   0  0  0  0  0  0  0  0  0  0  0  0
  1  2  1  0
  2  3  1  0
  3  4  1  0
  4  5  2  0
  4  6  1  0
  6  7  1  0
  7  8  1  0
  8  9  1  0
  9 10  1  0
 10 11  2  0
 11 12  1  0
 12 13  1  0
 13 14  2  0
 13 15  1  0
 15 16  2  0
 16 17  1  0
 17 18  2  0
 18 19  1  0
 19 20  1  0
 20 21  1  0
 21 22  1  0
 22 23  1  0
 22 24  1  0
 24 25  1  0
 18 26  1  0
 26 27  2  0
 11 28  1  0
 28 29  1  0
  3 30  1  0
 30 31  2  0
 31 32  1  0
 32 33  2  0
 33 34  1  0
 34 35  2  0
 29  6  1  0
 35 30  1  0
 28  8  2  0
 27 15  1  0
 25 19  1  0
  1 36  1  0
  1 37  1  0
  1 38  1  0
  3 39  1  1
  7 40  1  0
  7 41  1  0
  9 42  1  0
 10 43  1  0
 12 44  1  0
 16 45  1  0
 17 46  1  0
 20 47  1  0
 20 48  1  0
 21 49  1  0
 21 50  1  0
 22 51  1  0
 23 52  1  0
 23 53  1  0
 23 54  1  0
 24 55  1  0
 24 56  1  0
 25 57  1  0
 25 58  1  0
 26 59  1  0
 27 60  1  0
 29 61  1  0
 29 62  1  0
 31 63  1  0
 32 64  1  0
 33 65  1  0
 34 66  1  0
 35 67  1  0
M  CHG  2  10   1  22   1
M  END
>  <meeko>  (4) 
{"is_sidechain": [false], "free_energy": -8.137, "intermolecular_energy": -11.576, "internal_energy": -1.06}

$$$$
2v7a_ligand
     RDKit          3D

 67 71  0  0  0  0  0  0  0  0999 V2000
  -41.4020  -44.1480  -13.0790 C   0  0  0  0  0  0  0  0  0  0  0  0
  -40.7840  -44.7870  -11.9660 O   0  0  0  0  0  0  0  0  0  0  0  0
  -41.5480  -45.9010  -11.4870 C   0  0  1  0  0  0  0  0  0  0  0  0
  -40.7350  -47.2110  -11.6670 C   0  0  0  0  0  0  0  0  0  0  0  0
  -39.5070  -47.1800  -11.8150 O   0  0  0  0  0  0  0  0  0  0  0  0
  -41.3920  -48.4270  -11.7030 N   0  0  0  0  0  0  0  0  0  0  0  0
  -41.4790  -49.3400  -12.8670 C   0  0  0  0  0  0  0  0  0  0  0  0
  -42.2080  -50.4640  -12.2740 C   0  0  0  0  0  0  0  0  0  0  0  0
  -42.6680  -51.7200  -12.6540 N   0  0  0  0  0  0  0  0  0  0  0  0
  -43.3600  -52.2960  -11.3960 N   0  0  0  0  0  0  0  0  0  0  0  0
  -43.2480  -51.3180  -10.3650 C   0  0  0  0  0  0  0  0  0  0  0  0
  -43.7820  -51.4920   -9.0160 N   0  0  0  0  0  0  0  0  0  0  0  0
  -45.1240  -51.2540   -8.7990 C   0  0  0  0  0  0  0  0  0  0  0  0
  -45.8460  -50.8890   -9.7280 O   0  0  0  0  0  0  0  0  0  0  0  0
  -45.6580  -51.4250   -7.4190 C   0  0  0  0  0  0  0  0  0  0  0  0
  -45.0530  -50.8620   -6.2940 C   0  0  0  0  0  0  0  0  0  0  0  0
  -45.6080  -51.0710   -5.0210 C   0  0  0  0  0  0  0  0  0  0  0  0
  -46.7660  -51.8460   -4.8280 C   0  0  0  0  0  0  0  0  0  0  0  0
  -47.2830  -52.0140   -3.5290 N   0  0  0  0  0  0  0  0  0  0  0  0
  -46.5820  -53.0840   -2.7630 C   0  0  0  0  0  0  0  0  0  0  0  0
  -47.2700  -53.3620   -1.4010 C   0  0  0  0  0  0  0  0  0  0  0  0
  -48.0100  -52.1180   -0.9470 N   0  0  0  0  0  0  0  0  0  0  0  0
  -48.4230  -52.1510    0.4880 C   0  0  0  0  0  0  0  0  0  0  0  0
  -49.1570  -51.7860   -1.8920 C   0  0  0  0  0  0  0  0  0  0  0  0
  -48.7560  -52.0210   -3.3710 C   0  0  0  0  0  0  0  0  0  0  0  0
  -47.3520  -52.4050   -5.9730 C   0  0  0  0  0  0  0  0  0  0  0  0
  -46.8040  -52.2060   -7.2480 C   0  0  0  0  0  0  0  0  0  0  0  0
  -42.5490  -50.2060  -10.9080 C   0  0  0  0  0  0  0  0  0  0  0  0
  -42.0740  -48.9000  -10.4880 C   0  0  0  0  0  0  0  0  0  0  0  0
  -41.9960  -45.7160  -10.0430 C   0  0  0  0  0  0  0  0  0  0  0  0
  -41.0950  -45.3930   -9.0150 C   0  0  0  0  0  0  0  0  0  0  0  0
  -41.5380  -45.2200   -7.7020 C   0  0  0  0  0  0  0  0  0  0  0  0
  -42.8900  -45.3590   -7.3970 C   0  0  0  0  0  0  0  0  0  0  0  0
  -43.8000  -45.6660   -8.4060 C   0  0  0  0  0  0  0  0  0  0  0  0
  -43.3580  -45.8380   -9.7180 C   0  0  0  0  0  0  0  0  0  0  0  0
  -42.1244  -43.4010  -12.7183 H   0  0  0  0  0  0  0  0  0  0  0  0
  -40.6338  -43.6504  -13.6891 H   0  0  0  0  0  0  0  0  0  0  0  0
  -41.9250  -44.8991  -13.6891 H   0  0  0  0  0  0  0  0  0  0  0  0
  -42.4675  -45.9671  -12.0872 H   0  0  0  0  0  0  0  0  0  0  0  0
  -42.0393  -48.8861  -13.6976 H   0  0  0  0  0  0  0  0  0  0  0  0
  -40.5092  -49.6075  -13.3120 H   0  0  0  0  0  0  0  0  0  0  0  0
  -42.5940  -52.2090  -13.5490 H   0  0  0  0  0  0  0  0  0  0  0  0
  -43.8270  -53.2050  -11.2850 H   0  0  0  0  0  0  0  0  0  0  0  0
  -43.1500  -51.7260   -8.2610 H   0  0  0  0  0  0  0  0  0  0  0  0
  -44.1422  -50.2551   -6.4045 H   0  0  0  0  0  0  0  0  0  0  0  0
  -45.1215  -50.6140   -4.1467 H   0  0  0  0  0  0  0  0  0  0  0  0
  -46.5850  -54.0087   -3.3588 H   0  0  0  0  0  0  0  0  0  0  0  0
  -45.5545  -52.7452   -2.5643 H   0  0  0  0  0  0  0  0  0  0  0  0
  -47.9825  -54.1926   -1.5125 H   0  0  0  0  0  0  0  0  0  0  0  0
  -46.5093  -53.6304   -0.6532 H   0  0  0  0  0  0  0  0  0  0  0  0
  -47.3410  -51.3440   -1.0770 H   0  0  0  0  0  0  0  0  0  0  0  0
  -47.5312  -52.0797    1.1280 H   0  0  0  0  0  0  0  0  0  0  0  0
  -49.0925  -51.3035    0.6964 H   0  0  0  0  0  0  0  0  0  0  0  0
  -48.9495  -53.0941    0.6964 H   0  0  0  0  0  0  0  0  0  0  0  0
  -50.0182  -52.4256   -1.6485 H   0  0  0  0  0  0  0  0  0  0  0  0
  -49.4128  -50.7235   -1.7668 H   0  0  0  0  0  0  0  0  0  0  0  0
  -49.1485  -52.9946   -3.6998 H   0  0  0  0  0  0  0  0  0  0  0  0
  -49.1779  -51.2093   -3.9818 H   0  0  0  0  0  0  0  0  0  0  0  0
  -48.2624  -53.0135   -5.8683 H   0  0  0  0  0  0  0  0  0  0  0  0
  -47.2816  -52.6699   -8.1236 H   0  0  0  0  0  0  0  0  0  0  0  0
  -42.9090  -48.2387  -10.2134 H   0  0  0  0  0  0  0  0  0  0  0  0
  -41.4316  -48.9238   -9.5954 H   0  0  0  0  0  0  0  0  0  0  0  0
  -40.0263  -45.2748   -9.2472 H   0  0  0  0  0  0  0  0  0  0  0  0
  -40.8182  -44.9736   -6.9075 H   0  0  0  0  0  0  0  0  0  0  0  0
  -43.2382  -45.2267   -6.3620 H   0  0  0  0  0  0  0  0  0  0  0  0
  -44.8686  -45.7730   -8.1680 H   0  0  0  0  0  0  0  0  0  0  0  0
  -44.0855  -46.0723  -10.5091 H   0  0  0  0  0  0  0  0  0  0  0  0
  1  2  1  0
  2  3  1  0
  3  4  1  0
  4  5  2  0
  4  6  1  0
  6  7  1  0
  7  8  1  0
  8  9  1  0
  9 10  1  0
 10 11  2  0
 11 12  1  0
 12 13  1  0
 13 14  2  0
 13 15  1  0
 15 16  2  0
 16 17  1  0
 17 18  2  0
 18 19  1  0
 19 20  1  0
 20 21  1  0
 21 22  1  0
 22 23  1  0
 22 24  1  0
 24 25  1  0
 18 26  1  0
 26 27  2  0
 11 28  1  0
 28 29  1  0
  3 30  1  0
 30 31  2  0
 31 32  1  0
 32 33  2  0
 33 34  1  0
 34 35  2  0
 29  6  1  0
 35 30  1  0
 28  8  2  0
 27 15  1  0
 25 19  1  0
  1 36  1  0
  1 37  1  0
  1 38  1  0
  3 39  1  6
  7 40  1  0
  7 41  1  0
  9 42  1  0
 10 43  1  0
 12 44  1  0
 16 45  1  0
 17 46  1  0
 20 47  1  0
 20 48  1  0
 21 49  1  0
 21 50  1  0
 22 51  1  0
 23 52  1  0
 23 53  1  0
 23 54  1  0
 24 55  1  0
 24 56  1  0
 25 57  1  0
 25 58  1  0
 26 59  1  0
 27 60  1  0
 29 61  1  0
 29 62  1  0
 31 63  1  0
 32 64  1  0
 33 65  1  0
 34 66  1  0
 35 67  1  0
M  CHG  2  10   1  22   1
M  END
>  <meeko>  (5) 
{"is_sidechain": [false], "free_energy": -7.939, "intermolecular_energy": -11.338, "internal_energy": -1.02}

$$$$
2v7a_ligand
     RDKit          3D

 67 71  0  0  0  0  0  0  0  0999 V2000
  -42.4170  -51.2460  -11.4370 C   0  0  0  0  0  0  0  0  0  0  0  0
  -41.8960  -50.0150  -10.9430 O   0  0  0  0  0  0  0  0  0  0  0  0
  -42.6120  -48.8810  -11.4490 C   0  0  1  0  0  0  0  0  0  0  0  0
  -43.8760  -48.6310  -10.5840 C   0  0  0  0  0  0  0  0  0  0  0  0
  -45.0030  -48.6280  -11.0950 O   0  0  0  0  0  0  0  0  0  0  0  0
  -43.7430  -48.3670   -9.2330 N   0  0  0  0  0  0  0  0  0  0  0  0
  -43.0950  -47.1770   -8.6340 C   0  0  0  0  0  0  0  0  0  0  0  0
  -43.3400  -47.4250   -7.2110 C   0  0  0  0  0  0  0  0  0  0  0  0
  -43.1000  -46.8010   -5.9930 N   0  0  0  0  0  0  0  0  0  0  0  0
  -43.6990  -47.7490   -4.9260 N   0  0  0  0  0  0  0  0  0  0  0  0
  -44.2510  -48.8670   -5.6160 C   0  0  0  0  0  0  0  0  0  0  0  0
  -44.9130  -49.9880   -4.9520 N   0  0  0  0  0  0  0  0  0  0  0  0
  -46.0790  -49.7480   -4.2520 C   0  0  0  0  0  0  0  0  0  0  0  0
  -46.5350  -48.6060   -4.1820 O   0  0  0  0  0  0  0  0  0  0  0  0
  -46.7420  -50.8940   -3.5720 C   0  0  0  0  0  0  0  0  0  0  0  0
  -47.9690  -50.7840   -2.9150 C   0  0  0  0  0  0  0  0  0  0  0  0
  -48.5330  -51.9070   -2.2880 C   0  0  0  0  0  0  0  0  0  0  0  0
  -47.8960  -53.1610   -2.2870 C   0  0  0  0  0  0  0  0  0  0  0  0
  -48.5130  -54.2550   -1.6500 N   0  0  0  0  0  0  0  0  0  0  0  0
  -48.4250  -54.1810   -0.1630 C   0  0  0  0  0  0  0  0  0  0  0  0
  -48.9640  -55.4690    0.5110 C   0  0  0  0  0  0  0  0  0  0  0  0
  -49.9750  -56.1320   -0.4060 N   0  0  0  0  0  0  0  0  0  0  0  0
  -50.8020  -57.1800    0.2630 C   0  0  0  0  0  0  0  0  0  0  0  0
  -49.3140  -56.6210   -1.6880 C   0  0  0  0  0  0  0  0  0  0  0  0
  -48.2640  -55.6050   -2.2060 C   0  0  0  0  0  0  0  0  0  0  0  0
  -46.6630  -53.2460   -2.9490 C   0  0  0  0  0  0  0  0  0  0  0  0
  -46.0890  -52.1300   -3.5750 C   0  0  0  0  0  0  0  0  0  0  0  0
  -44.0260  -48.6630   -7.0050 C   0  0  0  0  0  0  0  0  0  0  0  0
  -44.2920  -49.3310   -8.2660 C   0  0  0  0  0  0  0  0  0  0  0  0
  -41.7370  -47.6360  -11.5330 C   0  0  0  0  0  0  0  0  0  0  0  0
  -40.3350  -47.7070  -11.5750 C   0  0  0  0  0  0  0  0  0  0  0  0
  -39.5620  -46.5480  -11.6620 C   0  0  0  0  0  0  0  0  0  0  0  0
  -40.1780  -45.3000  -11.7170 C   0  0  0  0  0  0  0  0  0  0  0  0
  -41.5670  -45.2100  -11.6900 C   0  0  0  0  0  0  0  0  0  0  0  0
  -42.3400  -46.3680  -11.6030 C   0  0  0  0  0  0  0  0  0  0  0  0
  -42.6912  -51.8938  -10.5913 H   0  0  0  0  0  0  0  0  0  0  0  0
  -43.3081  -51.0471  -12.0505 H   0  0  0  0  0  0  0  0  0  0  0  0
  -41.6539  -51.7473  -12.0505 H   0  0  0  0  0  0  0  0  0  0  0  0
  -42.9242  -49.1062  -12.4794 H   0  0  0  0  0  0  0  0  0  0  0  0
  -42.0191  -47.1436   -8.8607 H   0  0  0  0  0  0  0  0  0  0  0  0
  -43.4768  -46.2136   -9.0030 H   0  0  0  0  0  0  0  0  0  0  0  0
  -42.6370  -45.9140   -5.7830 H   0  0  0  0  0  0  0  0  0  0  0  0
  -43.7130  -47.6320   -3.9050 H   0  0  0  0  0  0  0  0  0  0  0  0
  -44.4770  -50.9010   -4.9710 H   0  0  0  0  0  0  0  0  0  0  0  0
  -48.4940  -49.8177   -2.8885 H   0  0  0  0  0  0  0  0  0  0  0  0
  -49.5039  -51.8025   -1.7815 H   0  0  0  0  0  0  0  0  0  0  0  0
  -47.3724  -54.0424    0.1248 H   0  0  0  0  0  0  0  0  0  0  0  0
  -49.0420  -53.3351    0.1741 H   0  0  0  0  0  0  0  0  0  0  0  0
  -48.1301  -56.1612    0.6995 H   0  0  0  0  0  0  0  0  0  0  0  0
  -49.4471  -55.2102    1.4648 H   0  0  0  0  0  0  0  0  0  0  0  0
  -50.5980  -55.3710   -0.7160 H   0  0  0  0  0  0  0  0  0  0  0  0
  -50.7172  -57.0726    1.3545 H   0  0  0  0  0  0  0  0  0  0  0  0
  -51.8540  -57.0633   -0.0363 H   0  0  0  0  0  0  0  0  0  0  0  0
  -50.4439  -58.1761   -0.0363 H   0  0  0  0  0  0  0  0  0  0  0  0
  -48.8154  -57.5813   -1.4898 H   0  0  0  0  0  0  0  0  0  0  0  0
  -50.0924  -56.7366   -2.4566 H   0  0  0  0  0  0  0  0  0  0  0  0
  -47.2605  -55.9391   -1.9038 H   0  0  0  0  0  0  0  0  0  0  0  0
  -48.3384  -55.5519   -3.3022 H   0  0  0  0  0  0  0  0  0  0  0  0
  -46.1338  -54.2099   -2.9780 H   0  0  0  0  0  0  0  0  0  0  0  0
  -45.1137  -52.2284   -4.0741 H   0  0  0  0  0  0  0  0  0  0  0  0
  -43.7725  -50.2988   -8.3250 H   0  0  0  0  0  0  0  0  0  0  0  0
  -45.3525  -49.5737   -8.4289 H   0  0  0  0  0  0  0  0  0  0  0  0
  -39.8397  -48.6885  -11.5389 H   0  0  0  0  0  0  0  0  0  0  0  0
  -38.4647  -46.6204  -11.6872 H   0  0  0  0  0  0  0  0  0  0  0  0
  -39.5680  -44.3869  -11.7817 H   0  0  0  0  0  0  0  0  0  0  0  0
  -42.0552  -44.2254  -11.7373 H   0  0  0  0  0  0  0  0  0  0  0  0
  -43.4370  -46.2878  -11.5890 H   0  0  0  0  0  0  0  0  0  0  0  0
  1  2  1  0
  2  3  1  0
  3  4  1  0
  4  5  2  0
  4  6  1  0
  6  7  1  0
  7  8  1  0
  8  9  1  0
  9 10  1  0
 10 11  2  0
 11 12  1  0
 12 13  1  0
 13 14  2  0
 13 15  1  0
 15 16  2  0
 16 17  1  0
 17 18  2  0
 18 19  1  0
 19 20  1  0
 20 21  1  0
 21 22  1  0
 22 23  1  0
 22 24  1  0
 24 25  1  0
 18 26  1  0
 26 27  2  0
 11 28  1  0
 28 29  1  0
  3 30  1  0
 30 31  2  0
 31 32  1  0
 32 33  2  0
 33 34  1  0
 34 35  2  0
 29  6  1  0
 35 30  1  0
 28  8  2  0
 27 15  1  0
 25 19  1  0
  1 36  1  0
  1 37  1  0
  1 38  1  0
  3 39  1  6
  7 40  1  0
  7 41  1  0
  9 42  1  0
 10 43  1  0
 12 44  1  0
 16 45  1  0
 17 46  1  0
 20 47  1  0
 20 48  1  0
 21 49  1  0
 21 50  1  0
 22 51  1  0
 23 52  1  0
 23 53  1  0
 23 54  1  0
 24 55  1  0
 24 56  1  0
 25 57  1  0
 25 58  1  0
 26 59  1  0
 27 60  1  0
 29 61  1  0
 29 62  1  0
 31 63  1  0
 32 64  1  0
 33 65  1  0
 34 66  1  0
 35 67  1  0
M  CHG  2  10   1  22   1
M  END
>  <meeko>  (6) 
{"is_sidechain": [false], "free_energy": -7.924, "intermolecular_energy": -11.63, "internal_energy": -0.704}

$$$$
2v7a_ligand
     RDKit          3D

 67 71  0  0  0  0  0  0  0  0999 V2000
  -45.0000  -45.2750   -8.0320 C   0  0  0  0  0  0  0  0  0  0  0  0
  -43.7420  -45.1490   -8.6890 O   0  0  0  0  0  0  0  0  0  0  0  0
  -43.2050  -46.4180   -9.0800 C   0  0  1  0  0  0  0  0  0  0  0  0
  -42.1970  -46.2240  -10.2460 C   0  0  0  0  0  0  0  0  0  0  0  0
  -41.7680  -45.1000  -10.5310 O   0  0  0  0  0  0  0  0  0  0  0  0
  -41.8020  -47.3130  -11.0000 N   0  0  0  0  0  0  0  0  0  0  0  0
  -40.4780  -47.5010  -11.6370 C   0  0  0  0  0  0  0  0  0  0  0  0
  -40.6400  -48.8430  -12.2020 C   0  0  0  0  0  0  0  0  0  0  0  0
  -39.8840  -49.7680  -12.9150 N   0  0  0  0  0  0  0  0  0  0  0  0
  -40.8200  -50.9820  -13.1260 N   0  0  0  0  0  0  0  0  0  0  0  0
  -42.0670  -50.6660  -12.5100 C   0  0  0  0  0  0  0  0  0  0  0  0
  -43.2180  -51.5660  -12.4940 N   0  0  0  0  0  0  0  0  0  0  0  0
  -43.6670  -52.0460  -11.2790 C   0  0  0  0  0  0  0  0  0  0  0  0
  -43.0910  -51.7280  -10.2380 O   0  0  0  0  0  0  0  0  0  0  0  0
  -44.8340  -52.9690  -11.2730 C   0  0  0  0  0  0  0  0  0  0  0  0
  -45.5760  -53.2510  -10.1240 C   0  0  0  0  0  0  0  0  0  0  0  0
  -46.6620  -54.1390  -10.1900 C   0  0  0  0  0  0  0  0  0  0  0  0
  -47.0360  -54.7740  -11.3880 C   0  0  0  0  0  0  0  0  0  0  0  0
  -48.1410  -55.6480  -11.3970 N   0  0  0  0  0  0  0  0  0  0  0  0
  -49.4340  -54.9460  -11.1560 C   0  0  0  0  0  0  0  0  0  0  0  0
  -50.6120  -55.9430  -11.0100 C   0  0  0  0  0  0  0  0  0  0  0  0
  -50.2850  -57.2230  -11.7560 N   0  0  0  0  0  0  0  0  0  0  0  0
  -51.4630  -58.1150  -11.9690 C   0  0  0  0  0  0  0  0  0  0  0  0
  -49.1000  -57.9390  -11.1230 C   0  0  0  0  0  0  0  0  0  0  0  0
  -48.0060  -56.9350  -10.6760 C   0  0  0  0  0  0  0  0  0  0  0  0
  -46.2730  -54.4790  -12.5260 C   0  0  0  0  0  0  0  0  0  0  0  0
  -45.1840  -53.5980  -12.4710 C   0  0  0  0  0  0  0  0  0  0  0  0
  -41.9490  -49.3640  -11.9540 C   0  0  0  0  0  0  0  0  0  0  0  0
  -42.7550  -48.4150  -11.2060 C   0  0  0  0  0  0  0  0  0  0  0  0
  -42.5700  -47.1620   -7.9120 C   0  0  0  0  0  0  0  0  0  0  0  0
  -41.5680  -46.5880   -7.1130 C   0  0  0  0  0  0  0  0  0  0  0  0
  -41.0130  -47.2930   -6.0430 C   0  0  0  0  0  0  0  0  0  0  0  0
  -41.4580  -48.5800   -5.7490 C   0  0  0  0  0  0  0  0  0  0  0  0
  -42.4600  -49.1610   -6.5210 C   0  0  0  0  0  0  0  0  0  0  0  0
  -43.0150  -48.4570   -7.5910 C   0  0  0  0  0  0  0  0  0  0  0  0
  -44.8479  -45.2598   -6.9427 H   0  0  0  0  0  0  0  0  0  0  0  0
  -45.6512  -44.4376   -8.3231 H   0  0  0  0  0  0  0  0  0  0  0  0
  -45.4721  -46.2249   -8.3231 H   0  0  0  0  0  0  0  0  0  0  0  0
  -44.0372  -47.0474   -9.4282 H   0  0  0  0  0  0  0  0  0  0  0  0
  -40.2941  -46.7505  -12.4199 H   0  0  0  0  0  0  0  0  0  0  0  0
  -39.6221  -47.3918  -10.9547 H   0  0  0  0  0  0  0  0  0  0  0  0
  -38.9200  -49.7160  -13.2520 H   0  0  0  0  0  0  0  0  0  0  0  0
  -40.6210  -51.8630  -13.6140 H   0  0  0  0  0  0  0  0  0  0  0  0
  -43.6260  -51.8630  -13.3710 H   0  0  0  0  0  0  0  0  0  0  0  0
  -45.3099  -52.7776   -9.1674 H   0  0  0  0  0  0  0  0  0  0  0  0
  -47.2383  -54.3444   -9.2759 H   0  0  0  0  0  0  0  0  0  0  0  0
  -49.3513  -54.3548  -10.2321 H   0  0  0  0  0  0  0  0  0  0  0  0
  -49.6386  -54.2995  -12.0221 H   0  0  0  0  0  0  0  0  0  0  0  0
  -50.7713  -56.1693   -9.9454 H   0  0  0  0  0  0  0  0  0  0  0  0
  -51.5253  -55.4963  -11.4300 H   0  0  0  0  0  0  0  0  0  0  0  0
  -49.9350  -56.9160  -12.6760 H   0  0  0  0  0  0  0  0  0  0  0  0
  -51.8703  -58.4234  -10.9948 H   0  0  0  0  0  0  0  0  0  0  0  0
  -52.2355  -57.5734  -12.5346 H   0  0  0  0  0  0  0  0  0  0  0  0
  -51.1512  -59.0055  -12.5346 H   0  0  0  0  0  0  0  0  0  0  0  0
  -49.4493  -58.5022  -10.2450 H   0  0  0  0  0  0  0  0  0  0  0  0
  -48.6637  -58.6159  -11.8723 H   0  0  0  0  0  0  0  0  0  0  0  0
  -48.1035  -56.7540   -9.5954 H   0  0  0  0  0  0  0  0  0  0  0  0
  -47.0201  -57.3647  -10.9070 H   0  0  0  0  0  0  0  0  0  0  0  0
  -46.5349  -54.9499  -13.4850 H   0  0  0  0  0  0  0  0  0  0  0  0
  -44.5985  -53.3995  -13.3808 H   0  0  0  0  0  0  0  0  0  0  0  0
  -43.6294  -48.0859  -11.7867 H   0  0  0  0  0  0  0  0  0  0  0  0
  -43.1756  -48.8222  -10.2747 H   0  0  0  0  0  0  0  0  0  0  0  0
  -41.2156  -45.5694   -7.3329 H   0  0  0  0  0  0  0  0  0  0  0  0
  -40.2235  -46.8316   -5.4316 H   0  0  0  0  0  0  0  0  0  0  0  0
  -41.0182  -49.1362   -4.9081 H   0  0  0  0  0  0  0  0  0  0  0  0
  -42.8148  -50.1757   -6.2877 H   0  0  0  0  0  0  0  0  0  0  0  0
  -43.8112  -48.9214   -8.1913 H   0  0  0  0  0  0  0  0  0  0  0  0
  1  2  1  0
  2  3  1  0
  3  4  1  0
  4  5  2  0
  4  6  1  0
  6  7  1  0
  7  8  1  0
  8  9  1  0
  9 10  1  0
 10 11  2  0
 11 12  1  0
 12 13  1  0
 13 14  2  0
 13 15  1  0
 15 16  2  0
 16 17  1  0
 17 18  2  0
 18 19  1  0
 19 20  1  0
 20 21  1  0
 21 22  1  0
 22 23  1  0
 22 24  1  0
 24 25  1  0
 18 26  1  0
 26 27  2  0
 11 28  1  0
 28 29  1  0
  3 30  1  0
 30 31  2  0
 31 32  1  0
 32 33  2  0
 33 34  1  0
 34 35  2  0
 29  6  1  0
 35 30  1  0
 28  8  2  0
 27 15  1  0
 25 19  1  0
  1 36  1  0
  1 37  1  0
  1 38  1  0
  3 39  1  6
  7 40  1  0
  7 41  1  0
  9 42  1  0
 10 43  1  0
 12 44  1  0
 16 45  1  0
 17 46  1  0
 20 47  1  0
 20 48  1  0
 21 49  1  0
 21 50  1  0
 22 51  1  0
 23 52  1  0
 23 53  1  0
 23 54  1  0
 24 55  1  0
 24 56  1  0
 25 57  1  0
 25 58  1  0
 26 59  1  0
 27 60  1  0
 29 61  1  0
 29 62  1  0
 31 63  1  0
 32 64  1  0
 33 65  1  0
 34 66  1  0
 35 67  1  0
M  CHG  2  10   1  22   1
M  END
>  <meeko>  (7) 
{"is_sidechain": [false], "free_energy": -7.73, "intermolecular_energy": -10.977, "internal_energy": -1.085}

$$$$
2v7a_ligand
     RDKit          3D

 67 71  0  0  0  0  0  0  0  0999 V2000
  -41.5440  -44.1510  -13.1630 C   0  0  0  0  0  0  0  0  0  0  0  0
  -40.8930  -44.6220  -11.9870 O   0  0  0  0  0  0  0  0  0  0  0  0
  -41.4910  -45.8220  -11.4800 C   0  0  1  0  0  0  0  0  0  0  0  0
  -40.5300  -47.0210  -11.7040 C   0  0  0  0  0  0  0  0  0  0  0  0
  -39.3040  -46.8560  -11.7160 O   0  0  0  0  0  0  0  0  0  0  0  0
  -41.0480  -48.2820  -11.9310 N   0  0  0  0  0  0  0  0  0  0  0  0
  -40.5610  -49.2610  -12.9320 C   0  0  0  0  0  0  0  0  0  0  0  0
  -41.4310  -50.4020  -12.6380 C   0  0  0  0  0  0  0  0  0  0  0  0
  -41.6150  -51.7070  -13.0800 N   0  0  0  0  0  0  0  0  0  0  0  0
  -42.7780  -52.2650  -12.2240 N   0  0  0  0  0  0  0  0  0  0  0  0
  -43.1860  -51.2270  -11.3360 C   0  0  0  0  0  0  0  0  0  0  0  0
  -44.2640  -51.3670  -10.3600 N   0  0  0  0  0  0  0  0  0  0  0  0
  -43.9370  -51.5040   -9.0260 C   0  0  0  0  0  0  0  0  0  0  0  0
  -42.7550  -51.5230   -8.6780 O   0  0  0  0  0  0  0  0  0  0  0  0
  -45.0410  -51.6550   -8.0400 C   0  0  0  0  0  0  0  0  0  0  0  0
  -46.1750  -52.4340   -8.2780 C   0  0  0  0  0  0  0  0  0  0  0  0
  -47.1820  -52.5250   -7.3040 C   0  0  0  0  0  0  0  0  0  0  0  0
  -47.0980  -51.8440   -6.0770 C   0  0  0  0  0  0  0  0  0  0  0  0
  -48.1340  -51.9790   -5.1330 N   0  0  0  0  0  0  0  0  0  0  0  0
  -49.1700  -50.9130   -5.2560 C   0  0  0  0  0  0  0  0  0  0  0  0
  -50.2110  -50.9860   -4.1100 C   0  0  0  0  0  0  0  0  0  0  0  0
  -50.2880  -52.4090   -3.5880 N   0  0  0  0  0  0  0  0  0  0  0  0
  -51.4780  -52.6730   -2.7260 C   0  0  0  0  0  0  0  0  0  0  0  0
  -48.9750  -52.8250   -2.9370 C   0  0  0  0  0  0  0  0  0  0  0  0
  -47.7560  -52.2970   -3.7360 C   0  0  0  0  0  0  0  0  0  0  0  0
  -45.9530  -51.0640   -5.8620 C   0  0  0  0  0  0  0  0  0  0  0  0
  -44.9430  -50.9620   -6.8300 C   0  0  0  0  0  0  0  0  0  0  0  0
  -42.3630  -50.0970  -11.5970 C   0  0  0  0  0  0  0  0  0  0  0  0
  -42.1850  -48.7390  -11.1160 C   0  0  0  0  0  0  0  0  0  0  0  0
  -41.8920  -45.6940  -10.0160 C   0  0  0  0  0  0  0  0  0  0  0  0
  -43.2270  -45.8020   -9.5920 C   0  0  0  0  0  0  0  0  0  0  0  0
  -43.5610  -45.6900   -8.2410 C   0  0  0  0  0  0  0  0  0  0  0  0
  -42.5650  -45.4770   -7.2910 C   0  0  0  0  0  0  0  0  0  0  0  0
  -41.2350  -45.3800   -7.6900 C   0  0  0  0  0  0  0  0  0  0  0  0
  -40.9000  -45.4920   -9.0400 C   0  0  0  0  0  0  0  0  0  0  0  0
  -42.4053  -43.5278  -12.8807 H   0  0  0  0  0  0  0  0  0  0  0  0
  -40.8382  -43.5531  -13.7583 H   0  0  0  0  0  0  0  0  0  0  0  0
  -41.8912  -45.0084  -13.7583 H   0  0  0  0  0  0  0  0  0  0  0  0
  -42.4219  -46.0015  -12.0378 H   0  0  0  0  0  0  0  0  0  0  0  0
  -40.7042  -48.8958  -13.9597 H   0  0  0  0  0  0  0  0  0  0  0  0
  -39.4845  -49.4792  -12.8724 H   0  0  0  0  0  0  0  0  0  0  0  0
  -41.1250  -52.2370  -13.8040 H   0  0  0  0  0  0  0  0  0  0  0  0
  -43.2050  -53.1990  -12.2610 H   0  0  0  0  0  0  0  0  0  0  0  0
  -45.2210  -51.4170  -10.6850 H   0  0  0  0  0  0  0  0  0  0  0  0
  -46.2795  -52.9767   -9.2291 H   0  0  0  0  0  0  0  0  0  0  0  0
  -48.0648  -53.1490   -7.5074 H   0  0  0  0  0  0  0  0  0  0  0  0
  -48.6755  -49.9309   -5.2256 H   0  0  0  0  0  0  0  0  0  0  0  0
  -49.6999  -51.0600   -6.2087 H   0  0  0  0  0  0  0  0  0  0  0  0
  -49.9075  -50.3122   -3.2952 H   0  0  0  0  0  0  0  0  0  0  0  0
  -51.1971  -50.6803   -4.4897 H   0  0  0  0  0  0  0  0  0  0  0  0
  -50.3530  -53.0010   -4.4280 H   0  0  0  0  0  0  0  0  0  0  0  0
  -51.1857  -52.6081   -1.6675 H   0  0  0  0  0  0  0  0  0  0  0  0
  -52.2571  -51.9259   -2.9377 H   0  0  0  0  0  0  0  0  0  0  0  0
  -51.8680  -53.6795   -2.9377 H   0  0  0  0  0  0  0  0  0  0  0  0
  -48.9371  -52.4181   -1.9157 H   0  0  0  0  0  0  0  0  0  0  0  0
  -48.9291  -53.9239   -2.9210 H   0  0  0  0  0  0  0  0  0  0  0  0
  -47.3746  -51.3866   -3.2504 H   0  0  0  0  0  0  0  0  0  0  0  0
  -46.9821  -53.0786   -3.7516 H   0  0  0  0  0  0  0  0  0  0  0  0
  -45.8442  -50.5195   -4.9124 H   0  0  0  0  0  0  0  0  0  0  0  0
  -44.0643  -50.3298   -6.6348 H   0  0  0  0  0  0  0  0  0  0  0  0
  -43.0811  -48.1278  -11.2990 H   0  0  0  0  0  0  0  0  0  0  0  0
  -42.0152  -48.6674  -10.0316 H   0  0  0  0  0  0  0  0  0  0  0  0
  -44.0197  -45.9771  -10.3343 H   0  0  0  0  0  0  0  0  0  0  0  0
  -44.6120  -45.7701   -7.9265 H   0  0  0  0  0  0  0  0  0  0  0  0
  -42.8290  -45.3856   -6.2271 H   0  0  0  0  0  0  0  0  0  0  0  0
  -40.4472  -45.2149   -6.9403 H   0  0  0  0  0  0  0  0  0  0  0  0
  -39.8455  -45.4213   -9.3449 H   0  0  0  0  0  0  0  0  0  0  0  0
  1  2  1  0
  2  3  1  0
  3  4  1  0
  4  5  2  0
  4  6  1  0
  6  7  1  0
  7  8  1  0
  8  9  1  0
  9 10  1  0
 10 11  2  0
 11 12  1  0
 12 13  1  0
 13 14  2  0
 13 15  1  0
 15 16  2  0
 16 17  1  0
 17 18  2  0
 18 19  1  0
 19 20  1  0
 20 21  1  0
 21 22  1  0
 22 23  1  0
 22 24  1  0
 24 25  1  0
 18 26  1  0
 26 27  2  0
 11 28  1  0
 28 29  1  0
  3 30  1  0
 30 31  2  0
 31 32  1  0
 32 33  2  0
 33 34  1  0
 34 35  2  0
 29  6  1  0
 35 30  1  0
 28  8  2  0
 27 15  1  0
 25 19  1  0
  1 36  1  0
  1 37  1  0
  1 38  1  0
  3 39  1  6
  7 40  1  0
  7 41  1  0
  9 42  1  0
 10 43  1  0
 12 44  1  0
 16 45  1  0
 17 46  1  0
 20 47  1  0
 20 48  1  0
 21 49  1  0
 21 50  1  0
 22 51  1  0
 23 52  1  0
 23 53  1  0
 23 54  1  0
 24 55  1  0
 24 56  1  0
 25 57  1  0
 25 58  1  0
 26 59  1  0
 27 60  1  0
 29 61  1  0
 29 62  1  0
 31 63  1  0
 32 64  1  0
 33 65  1  0
 34 66  1  0
 35 67  1  0
M  CHG  2  10   1  22   1
M  END
>  <meeko>  (8) 
{"is_sidechain": [false], "free_energy": -7.715, "intermolecular_energy": -11.178, "internal_energy": -0.864}

$$$$
2v7a_ligand
     RDKit          3D

 67 71  0  0  0  0  0  0  0  0999 V2000
  -39.6670  -44.4750   -9.4120 C   0  0  0  0  0  0  0  0  0  0  0  0
  -40.2690  -45.6620   -8.9030 O   0  0  0  0  0  0  0  0  0  0  0  0
  -41.6960  -45.5590   -8.8310 C   0  0  1  0  0  0  0  0  0  0  0  0
  -42.3240  -46.0350  -10.1690 C   0  0  0  0  0  0  0  0  0  0  0  0
  -43.1590  -45.3390  -10.7600 O   0  0  0  0  0  0  0  0  0  0  0  0
  -41.9780  -47.2680  -10.6900 N   0  0  0  0  0  0  0  0  0  0  0  0
  -40.6940  -47.6110  -11.3460 C   0  0  0  0  0  0  0  0  0  0  0  0
  -40.8930  -49.0410  -11.5950 C   0  0  0  0  0  0  0  0  0  0  0  0
  -40.1830  -50.1090  -12.1310 N   0  0  0  0  0  0  0  0  0  0  0  0
  -41.1340  -51.3250  -12.0180 N   0  0  0  0  0  0  0  0  0  0  0  0
  -42.3410  -50.8640  -11.4150 C   0  0  0  0  0  0  0  0  0  0  0  0
  -43.4920  -51.7210  -11.1370 N   0  0  0  0  0  0  0  0  0  0  0  0
  -43.7690  -52.0530   -9.8260 C   0  0  0  0  0  0  0  0  0  0  0  0
  -43.0450  -51.6420   -8.9180 O   0  0  0  0  0  0  0  0  0  0  0  0
  -44.9370  -52.9340   -9.5520 C   0  0  0  0  0  0  0  0  0  0  0  0
  -44.8130  -54.2850   -9.2250 C   0  0  0  0  0  0  0  0  0  0  0  0
  -45.9610  -55.0580   -8.9870 C   0  0  0  0  0  0  0  0  0  0  0  0
  -47.2560  -54.5180   -9.0730 C   0  0  0  0  0  0  0  0  0  0  0  0
  -48.3720  -55.3390   -8.8140 N   0  0  0  0  0  0  0  0  0  0  0  0
  -49.5960  -54.5570   -8.4780 C   0  0  0  0  0  0  0  0  0  0  0  0
  -50.7650  -55.4780   -8.0400 C   0  0  0  0  0  0  0  0  0  0  0  0
  -50.5850  -56.8510   -8.6610 N   0  0  0  0  0  0  0  0  0  0  0  0
  -51.8030  -57.7110   -8.5890 C   0  0  0  0  0  0  0  0  0  0  0  0
  -49.3360  -57.5360   -8.1210 C   0  0  0  0  0  0  0  0  0  0  0  0
  -48.1640  -56.5350   -7.9650 C   0  0  0  0  0  0  0  0  0  0  0  0
  -47.3560  -53.1600   -9.4070 C   0  0  0  0  0  0  0  0  0  0  0  0
  -46.2170  -52.3800   -9.6520 C   0  0  0  0  0  0  0  0  0  0  0  0
  -42.1870  -49.4740  -11.1640 C   0  0  0  0  0  0  0  0  0  0  0  0
  -42.9440  -48.3730  -10.5950 C   0  0  0  0  0  0  0  0  0  0  0  0
  -42.2720  -46.3200   -7.6430 C   0  0  0  0  0  0  0  0  0  0  0  0
  -43.6550  -46.4820   -7.4550 C   0  0  0  0  0  0  0  0  0  0  0  0
  -44.1500  -47.1930   -6.3610 C   0  0  0  0  0  0  0  0  0  0  0  0
  -43.2720  -47.7610   -5.4410 C   0  0  0  0  0  0  0  0  0  0  0  0
  -41.8980  -47.6230   -5.6180 C   0  0  0  0  0  0  0  0  0  0  0  0
  -41.4020  -46.9120   -6.7120 C   0  0  0  0  0  0  0  0  0  0  0  0
  -39.3445  -43.8392   -8.5743 H   0  0  0  0  0  0  0  0  0  0  0  0
  -38.7949  -44.7410  -10.0273 H   0  0  0  0  0  0  0  0  0  0  0  0
  -40.3969  -43.9285  -10.0273 H   0  0  0  0  0  0  0  0  0  0  0  0
  -41.9535  -44.5015   -8.6716 H   0  0  0  0  0  0  0  0  0  0  0  0
  -40.5547  -47.0515  -12.2828 H   0  0  0  0  0  0  0  0  0  0  0  0
  -39.7988  -47.3697  -10.7540 H   0  0  0  0  0  0  0  0  0  0  0  0
  -39.2410  -50.1470  -12.5260 H   0  0  0  0  0  0  0  0  0  0  0  0
  -40.9670  -52.2950  -12.3130 H   0  0  0  0  0  0  0  0  0  0  0  0
  -44.0260  -52.0980  -11.9100 H   0  0  0  0  0  0  0  0  0  0  0  0
  -43.8161  -54.7444   -9.1537 H   0  0  0  0  0  0  0  0  0  0  0  0
  -45.8431  -56.1198   -8.7249 H   0  0  0  0  0  0  0  0  0  0  0  0
  -49.3616  -53.8639   -7.6566 H   0  0  0  0  0  0  0  0  0  0  0  0
  -49.9105  -54.0098   -9.3789 H   0  0  0  0  0  0  0  0  0  0  0  0
  -50.7697  -55.5688   -6.9438 H   0  0  0  0  0  0  0  0  0  0  0  0
  -51.7191  -55.0453   -8.3754 H   0  0  0  0  0  0  0  0  0  0  0  0
  -50.3670  -56.6720   -9.6520 H   0  0  0  0  0  0  0  0  0  0  0  0
  -52.0613  -57.8934   -7.5354 H   0  0  0  0  0  0  0  0  0  0  0  0
  -52.6407  -57.2030   -9.0893 H   0  0  0  0  0  0  0  0  0  0  0  0
  -51.6046  -58.6704   -9.0893 H   0  0  0  0  0  0  0  0  0  0  0  0
  -49.5650  -57.9746   -7.1386 H   0  0  0  0  0  0  0  0  0  0  0  0
  -49.0325  -58.3152   -8.8357 H   0  0  0  0  0  0  0  0  0  0  0  0
  -48.0958  -56.2219   -6.9127 H   0  0  0  0  0  0  0  0  0  0  0  0
  -47.2343  -57.0314   -8.2799 H   0  0  0  0  0  0  0  0  0  0  0  0
  -48.3508  -52.6959   -9.4785 H   0  0  0  0  0  0  0  0  0  0  0  0
  -46.3315  -51.3208   -9.9258 H   0  0  0  0  0  0  0  0  0  0  0  0
  -43.8510  -48.1645  -11.1813 H   0  0  0  0  0  0  0  0  0  0  0  0
  -43.3086  -48.5615   -9.5744 H   0  0  0  0  0  0  0  0  0  0  0  0
  -44.3565  -46.0427   -8.1795 H   0  0  0  0  0  0  0  0  0  0  0  0
  -45.2358  -47.3051   -6.2250 H   0  0  0  0  0  0  0  0  0  0  0  0
  -43.6633  -48.3174   -4.5765 H   0  0  0  0  0  0  0  0  0  0  0  0
  -41.2027  -48.0746   -4.8951 H   0  0  0  0  0  0  0  0  0  0  0  0
  -40.3148  -46.8138   -6.8471 H   0  0  0  0  0  0  0  0  0  0  0  0
  1  2  1  0
  2  3  1  0
  3  4  1  0
  4  5  2  0
  4  6  1  0
  6  7  1  0
  7  8  1  0
  8  9  1  0
  9 10  1  0
 10 11  2  0
 11 12  1  0
 12 13  1  0
 13 14  2  0
 13 15  1  0
 15 16  2  0
 16 17  1  0
 17 18  2  0
 18 19  1  0
 19 20  1  0
 20 21  1  0
 21 22  1  0
 22 23  1  0
 22 24  1  0
 24 25  1  0
 18 26  1  0
 26 27  2  0
 11 28  1  0
 28 29  1  0
  3 30  1  0
 30 31  2  0
 31 32  1  0
 32 33  2  0
 33 34  1  0
 34 35  2  0
 29  6  1  0
 35 30  1  0
 28  8  2  0
 27 15  1  0
 25 19  1  0
  1 36  1  0
  1 37  1  0
  1 38  1  0
  3 39  1  1
  7 40  1  0
  7 41  1  0
  9 42  1  0
 10 43  1  0
 12 44  1  0
 16 45  1  0
 17 46  1  0
 20 47  1  0
 20 48  1  0
 21 49  1  0
 21 50  1  0
 22 51  1  0
 23 52  1  0
 23 53  1  0
 23 54  1  0
 24 55  1  0
 24 56  1  0
 25 57  1  0
 25 58  1  0
 26 59  1  0
 27 60  1  0
 29 61  1  0
 29 62  1  0
 31 63  1  0
 32 64  1  0
 33 65  1  0
 34 66  1  0
 35 67  1  0
M  CHG  2  10   1  22   1
M  END
>  <meeko>  (9) 
{"is_sidechain": [false], "free_energy": -7.695, "intermolecular_energy": -10.833, "internal_energy": -1.179}

$$$$
