2wn9_ligand
     RDKit          3D

 41 43  0  0  0  0  0  0  0  0999 V2000
   -8.1490   25.0560   63.9710 C   0  0  0  0  0  0  0  0  0  0  0  0
   -9.0110   23.9580   64.2490 O   0  0  0  0  0  0  0  0  0  0  0  0
   -9.8160   24.0590   65.3580 C   0  0  0  0  0  0  0  0  0  0  0  0
   -9.6280   24.9760   66.3980 C   0  0  0  0  0  0  0  0  0  0  0  0
  -10.5220   24.9970   67.4680 C   0  0  0  0  0  0  0  0  0  0  0  0
  -10.3770   25.8750   68.5010 O   0  0  0  0  0  0  0  0  0  0  0  0
  -11.6000   24.1230   67.5230 C   0  0  0  0  0  0  0  0  0  0  0  0
  -11.7990   23.2080   66.4920 C   0  0  0  0  0  0  0  0  0  0  0  0
  -10.9130   23.1740   65.4060 C   0  0  0  0  0  0  0  0  0  0  0  0
  -11.1480   22.2020   64.3280 C   0  0  0  0  0  0  0  0  0  0  0  0
  -11.6680   20.9740   64.5210 C   0  0  0  0  0  0  0  0  0  0  0  0
  -12.0950   20.4350   65.8700 C   0  0  0  0  0  0  0  0  0  0  0  0
  -13.3840   19.6280   65.7410 C   0  0  0  0  0  0  0  0  0  0  0  0
  -13.2150   18.4860   64.7540 C   0  0  0  0  0  0  0  0  0  0  0  0
  -12.6210   18.9840   63.4940 N   0  0  0  0  0  0  0  0  0  0  0  0
  -11.9320   20.0680   63.3530 C   0  0  0  0  0  0  0  0  0  0  0  0
  -11.3910   20.3990   62.0250 C   0  0  0  0  0  0  0  0  0  0  0  0
  -10.2690   19.7350   61.5310 C   0  0  0  0  0  0  0  0  0  0  0  0
   -9.8130   20.0540   60.2530 C   0  0  0  0  0  0  0  0  0  0  0  0
  -10.5030   21.0130   59.5260 C   0  0  0  0  0  0  0  0  0  0  0  0
  -11.5970   21.6610   59.9900 N   0  0  0  0  0  0  0  0  0  0  0  0
  -12.0140   21.3560   61.2350 C   0  0  0  0  0  0  0  0  0  0  0  0
   -7.8019   25.4982   64.9165 H   0  0  0  0  0  0  0  0  0  0  0  0
   -7.2830   24.7046   63.3908 H   0  0  0  0  0  0  0  0  0  0  0  0
   -8.6959   25.8138   63.3908 H   0  0  0  0  0  0  0  0  0  0  0  0
   -8.7800   25.6762   66.3717 H   0  0  0  0  0  0  0  0  0  0  0  0
   -9.4350   26.0750   68.6310 H   0  0  0  0  0  0  0  0  0  0  0  0
  -12.2932   24.1533   68.3766 H   0  0  0  0  0  0  0  0  0  0  0  0
  -12.6505   22.5127   66.5298 H   0  0  0  0  0  0  0  0  0  0  0  0
  -10.8831   22.4952   63.3014 H   0  0  0  0  0  0  0  0  0  0  0  0
  -11.3007   19.7867   66.2684 H   0  0  0  0  0  0  0  0  0  0  0  0
  -12.2721   21.2808   66.5506 H   0  0  0  0  0  0  0  0  0  0  0  0
  -13.6505   19.2160   66.7255 H   0  0  0  0  0  0  0  0  0  0  0  0
  -14.1789   20.2938   65.3737 H   0  0  0  0  0  0  0  0  0  0  0  0
  -12.5539   17.7230   65.1908 H   0  0  0  0  0  0  0  0  0  0  0  0
  -14.2011   18.0491   64.5380 H   0  0  0  0  0  0  0  0  0  0  0  0
  -12.7520   18.3800   62.6740 H   0  0  0  0  0  0  0  0  0  0  0  0
   -9.7542   18.9751   62.1373 H   0  0  0  0  0  0  0  0  0  0  0  0
   -8.9270   19.5571   59.8310 H   0  0  0  0  0  0  0  0  0  0  0  0
  -10.1412   21.2604   58.5171 H   0  0  0  0  0  0  0  0  0  0  0  0
  -12.8858   21.8884   61.6429 H   0  0  0  0  0  0  0  0  0  0  0  0
  1  2  1  0
  2  3  1  0
  3  4  2  0
  4  5  1  0
  5  6  1  0
  5  7  2  0
  7  8  1  0
  8  9  2  0
  9 10  1  0
 10 11  2  0
 11 12  1  0
 12 13  1  0
 13 14  1  0
 14 15  1  0
 15 16  2  0
 16 17  1  0
 17 18  2  0
 18 19  1  0
 19 20  2  0
 20 21  1  0
 21 22  2  0
  9  3  1  0
 16 11  1  0
 22 17  1  0
  1 23  1  0
  1 24  1  0
  1 25  1  0
  4 26  1  0
  6 27  1  0
  7 28  1  0
  8 29  1  0
 10 30  1  0
 12 31  1  0
 12 32  1  0
 13 33  1  0
 13 34  1  0
 14 35  1  0
 14 36  1  0
 15 37  1  0
 18 38  1  0
 19 39  1  0
 20 40  1  0
 22 41  1  0
M  CHG  1  15   1
M  END
>  <meeko>  (1) 
{"is_sidechain": [false], "free_energy": -9.632, "intermolecular_energy": -11.603, "internal_energy": 0.049}

$$$$
2wn9_ligand
     RDKit          3D

 41 43  0  0  0  0  0  0  0  0999 V2000
  -11.9420   21.1090   61.5020 C   0  0  0  0  0  0  0  0  0  0  0  0
  -12.1510   20.7560   60.1380 O   0  0  0  0  0  0  0  0  0  0  0  0
  -11.0340   20.5040   59.3790 C   0  0  0  0  0  0  0  0  0  0  0  0
  -10.0250   19.5970   59.7220 C   0  0  0  0  0  0  0  0  0  0  0  0
   -8.9440   19.4120   58.8620 C   0  0  0  0  0  0  0  0  0  0  0  0
   -7.9400   18.5370   59.1570 O   0  0  0  0  0  0  0  0  0  0  0  0
   -8.8470   20.1110   57.6660 C   0  0  0  0  0  0  0  0  0  0  0  0
   -9.8460   21.0150   57.3130 C   0  0  0  0  0  0  0  0  0  0  0  0
  -10.9430   21.2120   58.1630 C   0  0  0  0  0  0  0  0  0  0  0  0
  -11.9880   22.1680   57.7640 C   0  0  0  0  0  0  0  0  0  0  0  0
  -12.0520   23.4390   58.2040 C   0  0  0  0  0  0  0  0  0  0  0  0
  -11.0510   24.0620   59.1550 C   0  0  0  0  0  0  0  0  0  0  0  0
  -10.7530   25.5030   58.7500 C   0  0  0  0  0  0  0  0  0  0  0  0
  -12.0240   26.3330   58.7170 C   0  0  0  0  0  0  0  0  0  0  0  0
  -13.0700   25.6340   57.9380 N   0  0  0  0  0  0  0  0  0  0  0  0
  -13.1200   24.3660   57.6960 C   0  0  0  0  0  0  0  0  0  0  0  0
  -14.2530   23.8340   56.9230 C   0  0  0  0  0  0  0  0  0  0  0  0
  -15.5090   23.6930   57.5110 C   0  0  0  0  0  0  0  0  0  0  0  0
  -16.5630   23.2200   56.7310 C   0  0  0  0  0  0  0  0  0  0  0  0
  -16.3150   22.9180   55.4000 C   0  0  0  0  0  0  0  0  0  0  0  0
  -15.1030   23.0540   54.8140 N   0  0  0  0  0  0  0  0  0  0  0  0
  -14.0890   23.4950   55.5860 C   0  0  0  0  0  0  0  0  0  0  0  0
  -12.3942   20.3453   62.1518 H   0  0  0  0  0  0  0  0  0  0  0  0
  -10.8624   21.1696   61.7038 H   0  0  0  0  0  0  0  0  0  0  0  0
  -12.4081   22.0847   61.7038 H   0  0  0  0  0  0  0  0  0  0  0  0
  -10.0847   19.0334   60.6648 H   0  0  0  0  0  0  0  0  0  0  0  0
   -7.5620   18.7540   60.0250 H   0  0  0  0  0  0  0  0  0  0  0  0
   -7.9856   19.9515   57.0008 H   0  0  0  0  0  0  0  0  0  0  0  0
   -9.7742   21.5737   56.3682 H   0  0  0  0  0  0  0  0  0  0  0  0
  -12.7636   21.8236   57.0641 H   0  0  0  0  0  0  0  0  0  0  0  0
  -11.4647   24.0508   60.1742 H   0  0  0  0  0  0  0  0  0  0  0  0
  -10.1170   23.4820   59.1180 H   0  0  0  0  0  0  0  0  0  0  0  0
  -10.0544   25.9437   59.4765 H   0  0  0  0  0  0  0  0  0  0  0  0
  -10.3105   25.4996   57.7429 H   0  0  0  0  0  0  0  0  0  0  0  0
  -12.3814   26.4914   59.7452 H   0  0  0  0  0  0  0  0  0  0  0  0
  -11.8085   27.3011   58.2413 H   0  0  0  0  0  0  0  0  0  0  0  0
  -13.8370   26.2260   57.5960 H   0  0  0  0  0  0  0  0  0  0  0  0
  -15.6652   23.9498   58.5691 H   0  0  0  0  0  0  0  0  0  0  0  0
  -17.5672   23.0894   57.1606 H   0  0  0  0  0  0  0  0  0  0  0  0
  -17.1498   22.5475   54.7870 H   0  0  0  0  0  0  0  0  0  0  0  0
  -13.0891   23.5903   55.1376 H   0  0  0  0  0  0  0  0  0  0  0  0
  1  2  1  0
  2  3  1  0
  3  4  2  0
  4  5  1  0
  5  6  1  0
  5  7  2  0
  7  8  1  0
  8  9  2  0
  9 10  1  0
 10 11  2  0
 11 12  1  0
 12 13  1  0
 13 14  1  0
 14 15  1  0
 15 16  2  0
 16 17  1  0
 17 18  2  0
 18 19  1  0
 19 20  2  0
 20 21  1  0
 21 22  2  0
  9  3  1  0
 16 11  1  0
 22 17  1  0
  1 23  1  0
  1 24  1  0
  1 25  1  0
  4 26  1  0
  6 27  1  0
  7 28  1  0
  8 29  1  0
 10 30  1  0
 12 31  1  0
 12 32  1  0
 13 33  1  0
 13 34  1  0
 14 35  1  0
 14 36  1  0
 15 37  1  0
 18 38  1  0
 19 39  1  0
 20 40  1  0
 22 41  1  0
M  CHG  1  15   1
M  END
>  <meeko>  (2) 
{"is_sidechain": [false], "free_energy": -8.691, "intermolecular_energy": -9.789, "internal_energy": -0.631}

$$$$
2wn9_ligand
     RDKit          3D

 41 43  0  0  0  0  0  0  0  0999 V2000
   -9.2900   23.4230   64.1090 C   0  0  0  0  0  0  0  0  0  0  0  0
  -10.3850   23.1480   63.2410 O   0  0  0  0  0  0  0  0  0  0  0  0
  -11.2900   22.2020   63.6570 C   0  0  0  0  0  0  0  0  0  0  0  0
  -11.5420   21.8730   64.9940 C   0  0  0  0  0  0  0  0  0  0  0  0
  -12.4980   20.9050   65.2970 C   0  0  0  0  0  0  0  0  0  0  0  0
  -12.7770   20.5570   66.5850 O   0  0  0  0  0  0  0  0  0  0  0  0
  -13.2090   20.2570   64.2950 C   0  0  0  0  0  0  0  0  0  0  0  0
  -12.9680   20.5760   62.9610 C   0  0  0  0  0  0  0  0  0  0  0  0
  -12.0130   21.5500   62.6370 C   0  0  0  0  0  0  0  0  0  0  0  0
  -11.7810   21.8740   61.2210 C   0  0  0  0  0  0  0  0  0  0  0  0
  -10.8350   21.2900   60.4610 C   0  0  0  0  0  0  0  0  0  0  0  0
   -9.8930   20.2120   60.9550 C   0  0  0  0  0  0  0  0  0  0  0  0
   -9.6840   19.1490   59.8800 C   0  0  0  0  0  0  0  0  0  0  0  0
   -9.1430   19.7660   58.6020 C   0  0  0  0  0  0  0  0  0  0  0  0
   -9.9570   20.9410   58.2180 N   0  0  0  0  0  0  0  0  0  0  0  0
  -10.7080   21.6380   59.0050 C   0  0  0  0  0  0  0  0  0  0  0  0
  -11.4310   22.7950   58.4570 C   0  0  0  0  0  0  0  0  0  0  0  0
  -11.0130   24.0940   58.7430 C   0  0  0  0  0  0  0  0  0  0  0  0
  -11.7050   25.1600   58.1720 C   0  0  0  0  0  0  0  0  0  0  0  0
  -12.7760   24.8800   57.3360 C   0  0  0  0  0  0  0  0  0  0  0  0
  -13.1900   23.6250   57.0450 N   0  0  0  0  0  0  0  0  0  0  0  0
  -12.5230   22.6050   57.6190 C   0  0  0  0  0  0  0  0  0  0  0  0
   -9.6211   23.3398   65.1547 H   0  0  0  0  0  0  0  0  0  0  0  0
   -8.4828   22.6997   63.9214 H   0  0  0  0  0  0  0  0  0  0  0  0
   -8.9203   24.4419   63.9214 H   0  0  0  0  0  0  0  0  0  0  0  0
  -10.9887   22.3756   65.8010 H   0  0  0  0  0  0  0  0  0  0  0  0
  -13.3280   19.7560   66.5960 H   0  0  0  0  0  0  0  0  0  0  0  0
  -13.9591   19.4952   64.5540 H   0  0  0  0  0  0  0  0  0  0  0  0
  -13.5260   20.0646   62.1628 H   0  0  0  0  0  0  0  0  0  0  0  0
  -12.4187   22.6395   60.7548 H   0  0  0  0  0  0  0  0  0  0  0  0
   -8.9237   20.6666   61.2075 H   0  0  0  0  0  0  0  0  0  0  0  0
  -10.3327   19.7363   61.8441 H   0  0  0  0  0  0  0  0  0  0  0  0
   -8.9678   18.4002   60.2491 H   0  0  0  0  0  0  0  0  0  0  0  0
  -10.6536   18.6789   59.6589 H   0  0  0  0  0  0  0  0  0  0  0  0
   -8.1019   20.0822   58.7634 H   0  0  0  0  0  0  0  0  0  0  0  0
   -9.1876   19.0191   57.7957 H   0  0  0  0  0  0  0  0  0  0  0  0
   -9.8780   21.2310   57.2360 H   0  0  0  0  0  0  0  0  0  0  0  0
  -10.1540   24.2737   59.4062 H   0  0  0  0  0  0  0  0  0  0  0  0
  -11.4091   26.1990   58.3792 H   0  0  0  0  0  0  0  0  0  0  0  0
  -13.3183   25.7242   56.8851 H   0  0  0  0  0  0  0  0  0  0  0  0
  -12.8574   21.5770   57.4155 H   0  0  0  0  0  0  0  0  0  0  0  0
  1  2  1  0
  2  3  1  0
  3  4  2  0
  4  5  1  0
  5  6  1  0
  5  7  2  0
  7  8  1  0
  8  9  2  0
  9 10  1  0
 10 11  2  0
 11 12  1  0
 12 13  1  0
 13 14  1  0
 14 15  1  0
 15 16  2  0
 16 17  1  0
 17 18  2  0
 18 19  1  0
 19 20  2  0
 20 21  1  0
 21 22  2  0
  9  3  1  0
 16 11  1  0
 22 17  1  0
  1 23  1  0
  1 24  1  0
  1 25  1  0
  4 26  1  0
  6 27  1  0
  7 28  1  0
  8 29  1  0
 10 30  1  0
 12 31  1  0
 12 32  1  0
 13 33  1  0
 13 34  1  0
 14 35  1  0
 14 36  1  0
 15 37  1  0
 18 38  1  0
 19 39  1  0
 20 40  1  0
 22 41  1  0
M  CHG  1  15   1
M  END
>  <meeko>  (3) 
{"is_sidechain": [false], "free_energy": -8.642, "intermolecular_energy": -9.613, "internal_energy": -0.748}

$$$$
2wn9_ligand
     RDKit          3D

 41 43  0  0  0  0  0  0  0  0999 V2000
  -11.9200   23.5270   59.1930 C   0  0  0  0  0  0  0  0  0  0  0  0
  -11.8360   22.4020   60.0630 O   0  0  0  0  0  0  0  0  0  0  0  0
  -10.9110   21.4360   59.7490 C   0  0  0  0  0  0  0  0  0  0  0  0
  -10.3560   21.2460   58.4790 C   0  0  0  0  0  0  0  0  0  0  0  0
   -9.4100   20.2410   58.2830 C   0  0  0  0  0  0  0  0  0  0  0  0
   -8.8440   20.0230   57.0630 O   0  0  0  0  0  0  0  0  0  0  0  0
   -9.0050   19.4200   59.3280 C   0  0  0  0  0  0  0  0  0  0  0  0
   -9.5480   19.6010   60.5980 C   0  0  0  0  0  0  0  0  0  0  0  0
  -10.4980   20.6090   60.8150 C   0  0  0  0  0  0  0  0  0  0  0  0
  -11.0520   20.7840   62.1660 C   0  0  0  0  0  0  0  0  0  0  0  0
  -10.5630   21.6500   63.0740 C   0  0  0  0  0  0  0  0  0  0  0  0
   -9.3880   22.5720   62.8220 C   0  0  0  0  0  0  0  0  0  0  0  0
   -9.6360   23.9400   63.4520 C   0  0  0  0  0  0  0  0  0  0  0  0
   -9.8890   23.8160   64.9440 C   0  0  0  0  0  0  0  0  0  0  0  0
  -10.9100   22.7760   65.2040 N   0  0  0  0  0  0  0  0  0  0  0  0
  -11.2300   21.8080   64.4100 C   0  0  0  0  0  0  0  0  0  0  0  0
  -12.2540   20.8450   64.8430 C   0  0  0  0  0  0  0  0  0  0  0  0
  -11.9750   19.9120   65.8400 C   0  0  0  0  0  0  0  0  0  0  0  0
  -12.9860   19.0430   66.2440 C   0  0  0  0  0  0  0  0  0  0  0  0
  -14.2300   19.1510   65.6410 C   0  0  0  0  0  0  0  0  0  0  0  0
  -14.5180   20.0550   64.6760 N   0  0  0  0  0  0  0  0  0  0  0  0
  -13.5240   20.8760   64.2820 C   0  0  0  0  0  0  0  0  0  0  0  0
  -11.9888   24.4481   59.7903 H   0  0  0  0  0  0  0  0  0  0  0  0
  -11.0224   23.5676   58.5585 H   0  0  0  0  0  0  0  0  0  0  0  0
  -12.8137   23.4339   58.5585 H   0  0  0  0  0  0  0  0  0  0  0  0
  -10.6645   21.8863   57.6394 H   0  0  0  0  0  0  0  0  0  0  0  0
   -8.8660   20.8420   56.5400 H   0  0  0  0  0  0  0  0  0  0  0  0
   -8.2590   18.6307   59.1534 H   0  0  0  0  0  0  0  0  0  0  0  0
   -9.2319   18.9539   61.4295 H   0  0  0  0  0  0  0  0  0  0  0  0
  -11.9187   20.1701   62.4523 H   0  0  0  0  0  0  0  0  0  0  0  0
   -8.4811   22.1306   63.2609 H   0  0  0  0  0  0  0  0  0  0  0  0
   -9.2618   22.6983   61.7366 H   0  0  0  0  0  0  0  0  0  0  0  0
   -8.7536   24.5762   63.2887 H   0  0  0  0  0  0  0  0  0  0  0  0
  -10.5254   24.3853   62.9823 H   0  0  0  0  0  0  0  0  0  0  0  0
   -8.9520   23.5400   65.4499 H   0  0  0  0  0  0  0  0  0  0  0  0
  -10.2527   24.7805   65.3281 H   0  0  0  0  0  0  0  0  0  0  0  0
  -11.3710   22.8290   66.1190 H   0  0  0  0  0  0  0  0  0  0  0  0
  -10.9764   19.8628   66.2987 H   0  0  0  0  0  0  0  0  0  0  0  0
  -12.8018   18.2887   67.0232 H   0  0  0  0  0  0  0  0  0  0  0  0
  -15.0261   18.4644   65.9647 H   0  0  0  0  0  0  0  0  0  0  0  0
  -13.7278   21.6021   63.4812 H   0  0  0  0  0  0  0  0  0  0  0  0
  1  2  1  0
  2  3  1  0
  3  4  2  0
  4  5  1  0
  5  6  1  0
  5  7  2  0
  7  8  1  0
  8  9  2  0
  9 10  1  0
 10 11  2  0
 11 12  1  0
 12 13  1  0
 13 14  1  0
 14 15  1  0
 15 16  2  0
 16 17  1  0
 17 18  2  0
 18 19  1  0
 19 20  2  0
 20 21  1  0
 21 22  2  0
  9  3  1  0
 16 11  1  0
 22 17  1  0
  1 23  1  0
  1 24  1  0
  1 25  1  0
  4 26  1  0
  6 27  1  0
  7 28  1  0
  8 29  1  0
 10 30  1  0
 12 31  1  0
 12 32  1  0
 13 33  1  0
 13 34  1  0
 14 35  1  0
 14 36  1  0
 15 37  1  0
 18 38  1  0
 19 39  1  0
 20 40  1  0
 22 41  1  0
M  CHG  1  15   1
M  END
>  <meeko>  (4) 
{"is_sidechain": [false], "free_energy": -8.476, "intermolecular_energy": -9.612, "internal_energy": -0.549}

$$$$
2wn9_ligand
     RDKit          3D

 41 43  0  0  0  0  0  0  0  0999 V2000
  -11.8630   23.6780   59.3630 C   0  0  0  0  0  0  0  0  0  0  0  0
  -11.8720   22.6080   60.3020 O   0  0  0  0  0  0  0  0  0  0  0  0
  -11.0910   21.5150   60.0120 C   0  0  0  0  0  0  0  0  0  0  0  0
  -10.8600   21.0200   58.7240 C   0  0  0  0  0  0  0  0  0  0  0  0
  -10.0340   19.9110   58.5500 C   0  0  0  0  0  0  0  0  0  0  0  0
   -9.7800   19.3970   57.3130 O   0  0  0  0  0  0  0  0  0  0  0  0
   -9.4330   19.2830   59.6340 C   0  0  0  0  0  0  0  0  0  0  0  0
   -9.6550   19.7670   60.9210 C   0  0  0  0  0  0  0  0  0  0  0  0
  -10.4790   20.8850   61.1150 C   0  0  0  0  0  0  0  0  0  0  0  0
  -10.6920   21.3810   62.4840 C   0  0  0  0  0  0  0  0  0  0  0  0
  -11.6760   20.9490   63.2960 C   0  0  0  0  0  0  0  0  0  0  0  0
  -12.6850   19.8840   62.9180 C   0  0  0  0  0  0  0  0  0  0  0  0
  -12.9630   18.9650   64.1040 C   0  0  0  0  0  0  0  0  0  0  0  0
  -13.4660   19.7560   65.3000 C   0  0  0  0  0  0  0  0  0  0  0  0
  -12.5780   20.9120   65.5560 N   0  0  0  0  0  0  0  0  0  0  0  0
  -11.7820   21.4660   64.7020 C   0  0  0  0  0  0  0  0  0  0  0  0
  -10.9870   22.6290   65.1230 C   0  0  0  0  0  0  0  0  0  0  0  0
   -9.8640   23.0220   64.3950 C   0  0  0  0  0  0  0  0  0  0  0  0
   -9.1620   24.1530   64.8090 C   0  0  0  0  0  0  0  0  0  0  0  0
   -9.6170   24.8420   65.9230 C   0  0  0  0  0  0  0  0  0  0  0  0
  -10.7080   24.4770   66.6350 N   0  0  0  0  0  0  0  0  0  0  0  0
  -11.3660   23.3700   66.2350 C   0  0  0  0  0  0  0  0  0  0  0  0
  -11.8549   24.6376   59.9007 H   0  0  0  0  0  0  0  0  0  0  0  0
  -10.9654   23.6040   58.7314 H   0  0  0  0  0  0  0  0  0  0  0  0
  -12.7617   23.6191   58.7314 H   0  0  0  0  0  0  0  0  0  0  0  0
  -11.3277   21.5034   57.8536 H   0  0  0  0  0  0  0  0  0  0  0  0
  -10.6160   19.2630   56.8360 H   0  0  0  0  0  0  0  0  0  0  0  0
   -8.7852   18.4081   59.4765 H   0  0  0  0  0  0  0  0  0  0  0  0
   -9.1847   19.2730   61.7840 H   0  0  0  0  0  0  0  0  0  0  0  0
  -10.0063   22.1510   62.8673 H   0  0  0  0  0  0  0  0  0  0  0  0
  -13.6228   20.3679   62.6076 H   0  0  0  0  0  0  0  0  0  0  0  0
  -12.2758   19.2841   62.0918 H   0  0  0  0  0  0  0  0  0  0  0  0
  -13.7249   18.2259   63.8154 H   0  0  0  0  0  0  0  0  0  0  0  0
  -12.0257   18.4627   64.3853 H   0  0  0  0  0  0  0  0  0  0  0  0
  -14.4842   20.1180   65.0944 H   0  0  0  0  0  0  0  0  0  0  0  0
  -13.4720   19.1039   66.1858 H   0  0  0  0  0  0  0  0  0  0  0  0
  -12.6400   21.3160   66.4980 H   0  0  0  0  0  0  0  0  0  0  0  0
   -9.5391   22.4513   63.5125 H   0  0  0  0  0  0  0  0  0  0  0  0
   -8.2679   24.4910   64.2646 H   0  0  0  0  0  0  0  0  0  0  0  0
   -9.0604   25.7343   66.2455 H   0  0  0  0  0  0  0  0  0  0  0  0
  -12.2407   23.0395   66.8144 H   0  0  0  0  0  0  0  0  0  0  0  0
  1  2  1  0
  2  3  1  0
  3  4  2  0
  4  5  1  0
  5  6  1  0
  5  7  2  0
  7  8  1  0
  8  9  2  0
  9 10  1  0
 10 11  2  0
 11 12  1  0
 12 13  1  0
 13 14  1  0
 14 15  1  0
 15 16  2  0
 16 17  1  0
 17 18  2  0
 18 19  1  0
 19 20  2  0
 20 21  1  0
 21 22  2  0
  9  3  1  0
 16 11  1  0
 22 17  1  0
  1 23  1  0
  1 24  1  0
  1 25  1  0
  4 26  1  0
  6 27  1  0
  7 28  1  0
  8 29  1  0
 10 30  1  0
 12 31  1  0
 12 32  1  0
 13 33  1  0
 13 34  1  0
 14 35  1  0
 14 36  1  0
 15 37  1  0
 18 38  1  0
 19 39  1  0
 20 40  1  0
 22 41  1  0
M  CHG  1  15   1
M  END
>  <meeko>  (5) 
{"is_sidechain": [false], "free_energy": -8.471, "intermolecular_energy": -10.262, "internal_energy": 0.107}

$$$$
2wn9_ligand
     RDKit          3D

 41 43  0  0  0  0  0  0  0  0999 V2000
  -10.8530   26.0630   59.1570 C   0  0  0  0  0  0  0  0  0  0  0  0
  -10.6930   24.6970   58.7900 O   0  0  0  0  0  0  0  0  0  0  0  0
  -11.5310   24.2100   57.8150 C   0  0  0  0  0  0  0  0  0  0  0  0
  -12.0320   24.9610   56.7460 C   0  0  0  0  0  0  0  0  0  0  0  0
  -12.8630   24.3520   55.8070 C   0  0  0  0  0  0  0  0  0  0  0  0
  -13.3720   25.0460   54.7490 O   0  0  0  0  0  0  0  0  0  0  0  0
  -13.2060   23.0100   55.9100 C   0  0  0  0  0  0  0  0  0  0  0  0
  -12.7120   22.2520   56.9690 C   0  0  0  0  0  0  0  0  0  0  0  0
  -11.8710   22.8450   57.9220 C   0  0  0  0  0  0  0  0  0  0  0  0
  -11.3580   22.0210   59.0270 C   0  0  0  0  0  0  0  0  0  0  0  0
  -10.5610   20.9490   58.8590 C   0  0  0  0  0  0  0  0  0  0  0  0
  -10.0720   20.4550   57.5130 C   0  0  0  0  0  0  0  0  0  0  0  0
   -8.6200   19.9960   57.6060 C   0  0  0  0  0  0  0  0  0  0  0  0
   -8.4590   18.9040   58.6500 C   0  0  0  0  0  0  0  0  0  0  0  0
   -9.1030   19.3120   59.9180 N   0  0  0  0  0  0  0  0  0  0  0  0
  -10.0310   20.2010   60.0490 C   0  0  0  0  0  0  0  0  0  0  0  0
  -10.5790   20.4640   61.3890 C   0  0  0  0  0  0  0  0  0  0  0  0
   -9.7320   20.6000   62.4880 C   0  0  0  0  0  0  0  0  0  0  0  0
  -10.2920   20.8850   63.7320 C   0  0  0  0  0  0  0  0  0  0  0  0
  -11.6680   21.0300   63.8190 C   0  0  0  0  0  0  0  0  0  0  0  0
  -12.5030   20.9060   62.7610 N   0  0  0  0  0  0  0  0  0  0  0  0
  -11.9490   20.6110   61.5680 C   0  0  0  0  0  0  0  0  0  0  0  0
  -10.8631   26.1493   60.2536 H   0  0  0  0  0  0  0  0  0  0  0  0
  -10.0177   26.6521   58.7505 H   0  0  0  0  0  0  0  0  0  0  0  0
  -11.8018   26.4432   58.7505 H   0  0  0  0  0  0  0  0  0  0  0  0
  -11.7718   26.0252   56.6472 H   0  0  0  0  0  0  0  0  0  0  0  0
  -14.3380   24.9450   54.7250 H   0  0  0  0  0  0  0  0  0  0  0  0
  -13.8642   22.5483   55.1593 H   0  0  0  0  0  0  0  0  0  0  0  0
  -12.9812   21.1892   57.0578 H   0  0  0  0  0  0  0  0  0  0  0  0
  -11.6428   22.2973   60.0529 H   0  0  0  0  0  0  0  0  0  0  0  0
  -10.6981   19.6109   57.1882 H   0  0  0  0  0  0  0  0  0  0  0  0
  -10.1383   21.2787   56.7869 H   0  0  0  0  0  0  0  0  0  0  0  0
   -8.3024   19.6073   56.6272 H   0  0  0  0  0  0  0  0  0  0  0  0
   -7.9993   20.8554   57.8997 H   0  0  0  0  0  0  0  0  0  0  0  0
   -8.9294   17.9793   58.2844 H   0  0  0  0  0  0  0  0  0  0  0  0
   -7.3872   18.7338   58.8297 H   0  0  0  0  0  0  0  0  0  0  0  0
   -8.7920   18.8050   60.7550 H   0  0  0  0  0  0  0  0  0  0  0  0
   -8.6439   20.4847   62.3755 H   0  0  0  0  0  0  0  0  0  0  0  0
   -9.6571   20.9924   64.6239 H   0  0  0  0  0  0  0  0  0  0  0  0
  -12.1053   21.2584   64.8021 H   0  0  0  0  0  0  0  0  0  0  0  0
  -12.6102   20.4810   60.6986 H   0  0  0  0  0  0  0  0  0  0  0  0
  1  2  1  0
  2  3  1  0
  3  4  2  0
  4  5  1  0
  5  6  1  0
  5  7  2  0
  7  8  1  0
  8  9  2  0
  9 10  1  0
 10 11  2  0
 11 12  1  0
 12 13  1  0
 13 14  1  0
 14 15  1  0
 15 16  2  0
 16 17  1  0
 17 18  2  0
 18 19  1  0
 19 20  2  0
 20 21  1  0
 21 22  2  0
  9  3  1  0
 16 11  1  0
 22 17  1  0
  1 23  1  0
  1 24  1  0
  1 25  1  0
  4 26  1  0
  6 27  1  0
  7 28  1  0
  8 29  1  0
 10 30  1  0
 12 31  1  0
 12 32  1  0
 13 33  1  0
 13 34  1  0
 14 35  1  0
 14 36  1  0
 15 37  1  0
 18 38  1  0
 19 39  1  0
 20 40  1  0
 22 41  1  0
M  CHG  1  15   1
M  END
>  <meeko>  (6) 
{"is_sidechain": [false], "free_energy": -8.326, "intermolecular_energy": -9.956, "internal_energy": -0.024}

$$$$
2wn9_ligand
     RDKit          3D

 41 43  0  0  0  0  0  0  0  0999 V2000
  -11.7660   22.0290   61.7950 C   0  0  0  0  0  0  0  0  0  0  0  0
  -12.4520   22.3010   63.0130 O   0  0  0  0  0  0  0  0  0  0  0  0
  -12.7030   21.2340   63.8410 C   0  0  0  0  0  0  0  0  0  0  0  0
  -13.1400   19.9760   63.4100 C   0  0  0  0  0  0  0  0  0  0  0  0
  -13.3460   18.9610   64.3440 C   0  0  0  0  0  0  0  0  0  0  0  0
  -13.7680   17.7210   63.9680 O   0  0  0  0  0  0  0  0  0  0  0  0
  -13.1260   19.1740   65.6990 C   0  0  0  0  0  0  0  0  0  0  0  0
  -12.6900   20.4210   66.1400 C   0  0  0  0  0  0  0  0  0  0  0  0
  -12.4730   21.4530   65.2150 C   0  0  0  0  0  0  0  0  0  0  0  0
  -12.0070   22.7590   65.7050 C   0  0  0  0  0  0  0  0  0  0  0  0
  -10.7510   23.2180   65.5460 C   0  0  0  0  0  0  0  0  0  0  0  0
   -9.6530   22.4590   64.8290 C   0  0  0  0  0  0  0  0  0  0  0  0
   -8.8060   23.4110   63.9890 C   0  0  0  0  0  0  0  0  0  0  0  0
   -8.2030   24.5070   64.8490 C   0  0  0  0  0  0  0  0  0  0  0  0
   -9.2490   25.1270   65.6930 N   0  0  0  0  0  0  0  0  0  0  0  0
  -10.3770   24.5920   66.0240 C   0  0  0  0  0  0  0  0  0  0  0  0
  -11.2920   25.3440   66.8960 C   0  0  0  0  0  0  0  0  0  0  0  0
  -11.8790   24.7340   68.0040 C   0  0  0  0  0  0  0  0  0  0  0  0
  -12.7100   25.4950   68.8230 C   0  0  0  0  0  0  0  0  0  0  0  0
  -12.9090   26.8300   68.5040 C   0  0  0  0  0  0  0  0  0  0  0  0
  -12.3420   27.4380   67.4360 N   0  0  0  0  0  0  0  0  0  0  0  0
  -11.5560   26.6840   66.6420 C   0  0  0  0  0  0  0  0  0  0  0  0
  -10.7648   21.6320   62.0188 H   0  0  0  0  0  0  0  0  0  0  0  0
  -12.3327   21.2875   61.2127 H   0  0  0  0  0  0  0  0  0  0  0  0
  -11.6706   22.9573   61.2127 H   0  0  0  0  0  0  0  0  0  0  0  0
  -13.3199   19.7891   62.3410 H   0  0  0  0  0  0  0  0  0  0  0  0
  -13.0380   17.0860   64.0570 H   0  0  0  0  0  0  0  0  0  0  0  0
  -13.2954   18.3612   66.4205 H   0  0  0  0  0  0  0  0  0  0  0  0
  -12.5161   20.5964   67.2119 H   0  0  0  0  0  0  0  0  0  0  0  0
  -12.7282   23.3998   66.2335 H   0  0  0  0  0  0  0  0  0  0  0  0
   -9.0111   21.9631   65.5720 H   0  0  0  0  0  0  0  0  0  0  0  0
  -10.1121   21.7115   64.1654 H   0  0  0  0  0  0  0  0  0  0  0  0
   -7.9951   22.8430   63.5097 H   0  0  0  0  0  0  0  0  0  0  0  0
   -9.4517   23.8769   63.2300 H   0  0  0  0  0  0  0  0  0  0  0  0
   -7.4237   24.0754   65.4943 H   0  0  0  0  0  0  0  0  0  0  0  0
   -7.7655   25.2764   64.1959 H   0  0  0  0  0  0  0  0  0  0  0  0
   -9.0220   26.0560   66.0660 H   0  0  0  0  0  0  0  0  0  0  0  0
  -11.6897   23.6736   68.2268 H   0  0  0  0  0  0  0  0  0  0  0  0
  -13.1969   25.0476   69.7021 H   0  0  0  0  0  0  0  0  0  0  0  0
  -13.5639   27.4277   69.1550 H   0  0  0  0  0  0  0  0  0  0  0  0
  -11.1038   27.1501   65.7541 H   0  0  0  0  0  0  0  0  0  0  0  0
  1  2  1  0
  2  3  1  0
  3  4  2  0
  4  5  1  0
  5  6  1  0
  5  7  2  0
  7  8  1  0
  8  9  2  0
  9 10  1  0
 10 11  2  0
 11 12  1  0
 12 13  1  0
 13 14  1  0
 14 15  1  0
 15 16  2  0
 16 17  1  0
 17 18  2  0
 18 19  1  0
 19 20  2  0
 20 21  1  0
 21 22  2  0
  9  3  1  0
 16 11  1  0
 22 17  1  0
  1 23  1  0
  1 24  1  0
  1 25  1  0
  4 26  1  0
  6 27  1  0
  7 28  1  0
  8 29  1  0
 10 30  1  0
 12 31  1  0
 12 32  1  0
 13 33  1  0
 13 34  1  0
 14 35  1  0
 14 36  1  0
 15 37  1  0
 18 38  1  0
 19 39  1  0
 20 40  1  0
 22 41  1  0
M  CHG  1  15   1
M  END
>  <meeko>  (7) 
{"is_sidechain": [false], "free_energy": -7.932, "intermolecular_energy": -9.251, "internal_energy": -0.255}

$$$$
2wn9_ligand
     RDKit          3D

 41 43  0  0  0  0  0  0  0  0999 V2000
  -13.5960   21.8250   56.4730 C   0  0  0  0  0  0  0  0  0  0  0  0
  -13.2740   22.3530   57.7560 O   0  0  0  0  0  0  0  0  0  0  0  0
  -12.6540   23.5790   57.7900 C   0  0  0  0  0  0  0  0  0  0  0  0
  -12.9880   24.6640   56.9720 C   0  0  0  0  0  0  0  0  0  0  0  0
  -12.2990   25.8680   57.1090 C   0  0  0  0  0  0  0  0  0  0  0  0
  -12.5930   26.9500   56.3350 O   0  0  0  0  0  0  0  0  0  0  0  0
  -11.2820   26.0130   58.0450 C   0  0  0  0  0  0  0  0  0  0  0  0
  -10.9410   24.9400   58.8660 C   0  0  0  0  0  0  0  0  0  0  0  0
  -11.6260   23.7230   58.7450 C   0  0  0  0  0  0  0  0  0  0  0  0
  -11.2520   22.6070   59.6280 C   0  0  0  0  0  0  0  0  0  0  0  0
  -10.6320   21.4890   59.2050 C   0  0  0  0  0  0  0  0  0  0  0  0
  -10.2210   21.2350   57.7690 C   0  0  0  0  0  0  0  0  0  0  0  0
   -8.8580   20.5500   57.7150 C   0  0  0  0  0  0  0  0  0  0  0  0
   -8.8750   19.2440   58.4890 C   0  0  0  0  0  0  0  0  0  0  0  0
   -9.4520   19.4550   59.8350 N   0  0  0  0  0  0  0  0  0  0  0  0
  -10.2300   20.4250   60.1860 C   0  0  0  0  0  0  0  0  0  0  0  0
  -10.7360   20.4660   61.5670 C   0  0  0  0  0  0  0  0  0  0  0  0
   -9.8640   20.6730   62.6360 C   0  0  0  0  0  0  0  0  0  0  0  0
  -10.3920   20.7420   63.9240 C   0  0  0  0  0  0  0  0  0  0  0  0
  -11.7630   20.6100   64.0840 C   0  0  0  0  0  0  0  0  0  0  0  0
  -12.6220   20.4150   63.0570 N   0  0  0  0  0  0  0  0  0  0  0  0
  -12.0950   20.3310   61.8190 C   0  0  0  0  0  0  0  0  0  0  0  0
  -14.1653   20.8915   56.5930 H   0  0  0  0  0  0  0  0  0  0  0  0
  -14.2025   22.5555   55.9175 H   0  0  0  0  0  0  0  0  0  0  0  0
  -12.6689   21.6202   55.9175 H   0  0  0  0  0  0  0  0  0  0  0  0
  -13.7897   24.5674   56.2251 H   0  0  0  0  0  0  0  0  0  0  0  0
  -13.5550   27.0130   56.2120 H   0  0  0  0  0  0  0  0  0  0  0  0
  -10.7486   26.9706   58.1373 H   0  0  0  0  0  0  0  0  0  0  0  0
  -10.1358   25.0478   59.6077 H   0  0  0  0  0  0  0  0  0  0  0  0
  -11.4934   22.6910   60.6979 H   0  0  0  0  0  0  0  0  0  0  0  0
  -10.9698   20.5891   57.2872 H   0  0  0  0  0  0  0  0  0  0  0  0
  -10.1554   22.1986   57.2425 H   0  0  0  0  0  0  0  0  0  0  0  0
   -8.6006   20.3431   56.6657 H   0  0  0  0  0  0  0  0  0  0  0  0
   -8.1117   21.2177   58.1701 H   0  0  0  0  0  0  0  0  0  0  0  0
   -9.4833   18.5068   57.9444 H   0  0  0  0  0  0  0  0  0  0  0  0
   -7.8438   18.8758   58.5943 H   0  0  0  0  0  0  0  0  0  0  0  0
   -9.2270   18.7350   60.5310 H   0  0  0  0  0  0  0  0  0  0  0  0
   -8.7825   20.7795   62.4660 H   0  0  0  0  0  0  0  0  0  0  0  0
   -9.7363   20.8976   64.7934 H   0  0  0  0  0  0  0  0  0  0  0  0
  -12.1751   20.6670   65.1023 H   0  0  0  0  0  0  0  0  0  0  0  0
  -12.7713   20.1474   60.9711 H   0  0  0  0  0  0  0  0  0  0  0  0
  1  2  1  0
  2  3  1  0
  3  4  2  0
  4  5  1  0
  5  6  1  0
  5  7  2  0
  7  8  1  0
  8  9  2  0
  9 10  1  0
 10 11  2  0
 11 12  1  0
 12 13  1  0
 13 14  1  0
 14 15  1  0
 15 16  2  0
 16 17  1  0
 17 18  2  0
 18 19  1  0
 19 20  2  0
 20 21  1  0
 21 22  2  0
  9  3  1  0
 16 11  1  0
 22 17  1  0
  1 23  1  0
  1 24  1  0
  1 25  1  0
  4 26  1  0
  6 27  1  0
  7 28  1  0
  8 29  1  0
 10 30  1  0
 12 31  1  0
 12 32  1  0
 13 33  1  0
 13 34  1  0
 14 35  1  0
 14 36  1  0
 15 37  1  0
 18 38  1  0
 19 39  1  0
 20 40  1  0
 22 41  1  0
M  CHG  1  15   1
M  END
>  <meeko>  (8) 
{"is_sidechain": [false], "free_energy": -7.643, "intermolecular_energy": -8.923, "internal_energy": -0.234}

$$$$
2wn9_ligand
     RDKit          3D

 41 43  0  0  0  0  0  0  0  0999 V2000
   -5.1270   24.7370   64.4610 C   0  0  0  0  0  0  0  0  0  0  0  0
   -6.4190   24.9140   63.8880 O   0  0  0  0  0  0  0  0  0  0  0  0
   -7.0200   26.1360   64.0670 C   0  0  0  0  0  0  0  0  0  0  0  0
   -6.3420   27.3590   64.1170 C   0  0  0  0  0  0  0  0  0  0  0  0
   -7.0620   28.5400   64.2870 C   0  0  0  0  0  0  0  0  0  0  0  0
   -6.4420   29.7530   64.3390 O   0  0  0  0  0  0  0  0  0  0  0  0
   -8.4460   28.5290   64.4080 C   0  0  0  0  0  0  0  0  0  0  0  0
   -9.1330   27.3180   64.3580 C   0  0  0  0  0  0  0  0  0  0  0  0
   -8.4260   26.1200   64.1840 C   0  0  0  0  0  0  0  0  0  0  0  0
   -9.1750   24.8550   64.1290 C   0  0  0  0  0  0  0  0  0  0  0  0
   -9.7940   24.3000   65.1890 C   0  0  0  0  0  0  0  0  0  0  0  0
   -9.8170   24.9090   66.5750 C   0  0  0  0  0  0  0  0  0  0  0  0
  -11.1880   24.7230   67.2190 C   0  0  0  0  0  0  0  0  0  0  0  0
  -11.5600   23.2520   67.2920 C   0  0  0  0  0  0  0  0  0  0  0  0
  -11.3580   22.6090   65.9740 N   0  0  0  0  0  0  0  0  0  0  0  0
  -10.5890   23.0360   65.0280 C   0  0  0  0  0  0  0  0  0  0  0  0
  -10.4880   22.2530   63.7870 C   0  0  0  0  0  0  0  0  0  0  0  0
   -9.6260   21.1600   63.7050 C   0  0  0  0  0  0  0  0  0  0  0  0
   -9.5900   20.4240   62.5220 C   0  0  0  0  0  0  0  0  0  0  0  0
  -10.4210   20.8090   61.4800 C   0  0  0  0  0  0  0  0  0  0  0  0
  -11.2670   21.8630   61.5470 N   0  0  0  0  0  0  0  0  0  0  0  0
  -11.2770   22.5760   62.6900 C   0  0  0  0  0  0  0  0  0  0  0  0
   -5.2078   24.7481   65.5580 H   0  0  0  0  0  0  0  0  0  0  0  0
   -4.7097   23.7733   64.1338 H   0  0  0  0  0  0  0  0  0  0  0  0
   -4.4658   25.5530   64.1338 H   0  0  0  0  0  0  0  0  0  0  0  0
   -5.2464   27.3881   64.0226 H   0  0  0  0  0  0  0  0  0  0  0  0
   -5.8160   29.7690   65.0820 H   0  0  0  0  0  0  0  0  0  0  0  0
   -8.9966   29.4717   64.5426 H   0  0  0  0  0  0  0  0  0  0  0  0
  -10.2286   27.3019   64.4549 H   0  0  0  0  0  0  0  0  0  0  0  0
   -9.2331   24.3305   63.1638 H   0  0  0  0  0  0  0  0  0  0  0  0
   -9.0549   24.4185   67.1984 H   0  0  0  0  0  0  0  0  0  0  0  0
   -9.6058   25.9855   66.4936 H   0  0  0  0  0  0  0  0  0  0  0  0
  -11.1669   25.1397   68.2368 H   0  0  0  0  0  0  0  0  0  0  0  0
  -11.9373   25.2440   66.6049 H   0  0  0  0  0  0  0  0  0  0  0  0
  -10.9267   22.7535   68.0406 H   0  0  0  0  0  0  0  0  0  0  0  0
  -12.6186   23.1626   67.5772 H   0  0  0  0  0  0  0  0  0  0  0  0
  -11.8610   21.7250   65.8320 H   0  0  0  0  0  0  0  0  0  0  0  0
   -8.9872   20.8842   64.5570 H   0  0  0  0  0  0  0  0  0  0  0  0
   -8.9189   19.5588   62.4171 H   0  0  0  0  0  0  0  0  0  0  0  0
  -10.3905   20.2254   60.5481 H   0  0  0  0  0  0  0  0  0  0  0  0
  -11.9387   23.4521   62.7577 H   0  0  0  0  0  0  0  0  0  0  0  0
  1  2  1  0
  2  3  1  0
  3  4  2  0
  4  5  1  0
  5  6  1  0
  5  7  2  0
  7  8  1  0
  8  9  2  0
  9 10  1  0
 10 11  2  0
 11 12  1  0
 12 13  1  0
 13 14  1  0
 14 15  1  0
 15 16  2  0
 16 17  1  0
 17 18  2  0
 18 19  1  0
 19 20  2  0
 20 21  1  0
 21 22  2  0
  9  3  1  0
 16 11  1  0
 22 17  1  0
  1 23  1  0
  1 24  1  0
  1 25  1  0
  4 26  1  0
  6 27  1  0
  7 28  1  0
  8 29  1  0
 10 30  1  0
 12 31  1  0
 12 32  1  0
 13 33  1  0
 13 34  1  0
 14 35  1  0
 14 36  1  0
 15 37  1  0
 18 38  1  0
 19 39  1  0
 20 40  1  0
 22 41  1  0
M  CHG  1  15   1
M  END
>  <meeko>  (9) 
{"is_sidechain": [false], "free_energy": -7.185, "intermolecular_energy": -8.001, "internal_energy": -0.605}

$$$$
