2zda_ligand
     RDKit          3D

 58 60  0  0  0  0  0  0  0  0999 V2000
   10.5190   -9.6840   24.3530 N   0  0  0  0  0  0  0  0  0  0  0  0
   10.8370  -10.7960   23.7250 C   0  0  0  0  0  0  0  0  0  0  0  0
   10.1680  -11.9100   23.9350 N   0  0  0  0  0  0  0  0  0  0  0  0
   11.9550  -10.7950   22.7670 C   0  0  0  0  0  0  0  0  0  0  0  0
   12.5480   -9.5910   22.3550 C   0  0  0  0  0  0  0  0  0  0  0  0
   13.6270   -9.5900   21.4640 C   0  0  0  0  0  0  0  0  0  0  0  0
   14.1430  -10.7940   20.9690 C   0  0  0  0  0  0  0  0  0  0  0  0
   15.3210  -10.8060   20.0270 C   0  0  0  0  0  0  0  0  0  0  0  0
   16.5500  -11.1180   20.7290 N   0  0  0  0  0  0  0  0  0  0  0  0
   17.6280  -11.6770   20.0850 C   0  0  0  0  0  0  0  0  0  0  0  0
   17.5920  -11.9830   18.8870 O   0  0  0  0  0  0  0  0  0  0  0  0
   18.8460  -12.0400   20.9710 C   0  0  2  0  0  0  0  0  0  0  0  0
   20.1830  -12.0170   20.2170 C   0  0  0  0  0  0  0  0  0  0  0  0
   20.3250  -13.4420   19.7080 C   0  0  0  0  0  0  0  0  0  0  0  0
   19.7940  -14.2550   20.8720 C   0  0  0  0  0  0  0  0  0  0  0  0
   18.7430  -13.4310   21.4660 N   0  0  0  0  0  0  0  0  0  0  0  0
   17.9900  -13.9880   22.4720 C   0  0  0  0  0  0  0  0  0  0  0  0
   17.1610  -13.2950   23.0780 O   0  0  0  0  0  0  0  0  0  0  0  0
   18.2500  -15.3930   23.0660 C   0  0  2  0  0  0  0  0  0  0  0  0
   16.9290  -16.1000   23.2220 N   0  0  0  0  0  0  0  0  0  0  0  0
   19.0900  -15.5540   24.3330 C   0  0  0  0  0  0  0  0  0  0  0  0
   20.1580  -14.5160   24.5900 C   0  0  0  0  0  0  0  0  0  0  0  0
   21.4120  -14.6860   23.9780 C   0  0  0  0  0  0  0  0  0  0  0  0
   22.4360  -13.7550   24.1680 C   0  0  0  0  0  0  0  0  0  0  0  0
   22.2160  -12.6340   24.9600 C   0  0  0  0  0  0  0  0  0  0  0  0
   20.9720  -12.4370   25.5510 C   0  0  0  0  0  0  0  0  0  0  0  0
   19.9440  -13.3650   25.3610 C   0  0  0  0  0  0  0  0  0  0  0  0
   13.5410  -11.9970   21.3620 C   0  0  0  0  0  0  0  0  0  0  0  0
   12.4600  -11.9980   22.2520 C   0  0  0  0  0  0  0  0  0  0  0  0
   11.0600   -8.8390   24.2020 H   0  0  0  0  0  0  0  0  0  0  0  0
    9.7570   -9.6330   25.0150 H   0  0  0  0  0  0  0  0  0  0  0  0
   10.4050  -12.7530   23.4220 H   0  0  0  0  0  0  0  0  0  0  0  0
    9.3890  -11.9660   24.5770 H   0  0  0  0  0  0  0  0  0  0  0  0
   12.1593   -8.6358   22.7377 H   0  0  0  0  0  0  0  0  0  0  0  0
   14.0737   -8.6352   21.1497 H   0  0  0  0  0  0  0  0  0  0  0  0
   15.1501  -11.5640   19.2484 H   0  0  0  0  0  0  0  0  0  0  0  0
   15.4195   -9.8059   19.5796 H   0  0  0  0  0  0  0  0  0  0  0  0
   16.5140  -11.1120   21.7410 H   0  0  0  0  0  0  0  0  0  0  0  0
   18.8294  -11.2834   21.7693 H   0  0  0  0  0  0  0  0  0  0  0  0
   20.1515  -11.3020   19.3817 H   0  0  0  0  0  0  0  0  0  0  0  0
   21.0265  -11.7004   20.8481 H   0  0  0  0  0  0  0  0  0  0  0  0
   19.7227  -13.6032   18.8018 H   0  0  0  0  0  0  0  0  0  0  0  0
   21.3529  -13.7061   19.4187 H   0  0  0  0  0  0  0  0  0  0  0  0
   19.3811  -15.2112   20.5183 H   0  0  0  0  0  0  0  0  0  0  0  0
   20.5840  -14.5000   21.5971 H   0  0  0  0  0  0  0  0  0  0  0  0
   18.9221  -15.8452   22.3219 H   0  0  0  0  0  0  0  0  0  0  0  0
   17.0040  -17.0310   23.6410 H   0  0  0  0  0  0  0  0  0  0  0  0
   16.4790  -16.1900   22.3010 H   0  0  0  0  0  0  0  0  0  0  0  0
   16.2840  -15.5200   23.7990 H   0  0  0  0  0  0  0  0  0  0  0  0
   18.4014  -15.5397   25.1907 H   0  0  0  0  0  0  0  0  0  0  0  0
   19.6389  -16.4967   24.1914 H   0  0  0  0  0  0  0  0  0  0  0  0
   21.5895  -15.5646   23.3404 H   0  0  0  0  0  0  0  0  0  0  0  0
   23.4154  -13.9088   23.6914 H   0  0  0  0  0  0  0  0  0  0  0  0
   23.0236  -11.9043   25.1191 H   0  0  0  0  0  0  0  0  0  0  0  0
   20.7964  -11.5458   26.1714 H   0  0  0  0  0  0  0  0  0  0  0  0
   18.9596  -13.1907   25.8200 H   0  0  0  0  0  0  0  0  0  0  0  0
   13.9217  -12.9505   20.9671 H   0  0  0  0  0  0  0  0  0  0  0  0
   12.0019  -12.9525   22.5505 H   0  0  0  0  0  0  0  0  0  0  0  0
  1  2  1  0
  2  3  2  0
  2  4  1  0
  4  5  2  0
  5  6  1  0
  6  7  2  0
  7  8  1  0
  8  9  1  0
  9 10  1  0
 10 11  2  0
 10 12  1  0
 12 13  1  0
 13 14  1  0
 14 15  1  0
 15 16  1  0
 16 17  1  0
 17 18  2  0
 17 19  1  0
 19 20  1  0
 19 21  1  0
 21 22  1  0
 22 23  2  0
 23 24  1  0
 24 25  2  0
 25 26  1  0
 26 27  2  0
  7 28  1  0
 28 29  2  0
 29  4  1  0
 16 12  1  0
 27 22  1  0
  1 30  1  0
  1 31  1  0
  3 32  1  0
  3 33  1  0
  5 34  1  0
  6 35  1  0
  8 36  1  0
  8 37  1  0
  9 38  1  0
 12 39  1  1
 13 40  1  0
 13 41  1  0
 14 42  1  0
 14 43  1  0
 15 44  1  0
 15 45  1  0
 19 46  1  6
 20 47  1  0
 20 48  1  0
 20 49  1  0
 21 50  1  0
 21 51  1  0
 23 52  1  0
 24 53  1  0
 25 54  1  0
 26 55  1  0
 27 56  1  0
 28 57  1  0
 29 58  1  0
M  CHG  2   3   1  20   1
M  END
>  <meeko>  (1) 
{"is_sidechain": [false], "free_energy": -9.431, "intermolecular_energy": -14.118, "internal_energy": -1.21}

$$$$
2zda_ligand
     RDKit          3D

 58 60  0  0  0  0  0  0  0  0999 V2000
   10.2740  -11.9370   23.9180 N   0  0  0  0  0  0  0  0  0  0  0  0
   10.9420  -10.8270   23.6850 C   0  0  0  0  0  0  0  0  0  0  0  0
   10.6650   -9.7180   24.3370 N   0  0  0  0  0  0  0  0  0  0  0  0
   12.0210  -10.8260   22.6840 C   0  0  0  0  0  0  0  0  0  0  0  0
   12.5110   -9.6210   22.1560 C   0  0  0  0  0  0  0  0  0  0  0  0
   13.5540   -9.6180   21.2230 C   0  0  0  0  0  0  0  0  0  0  0  0
   14.1360  -10.8190   20.8000 C   0  0  0  0  0  0  0  0  0  0  0  0
   15.2770  -10.8250   19.8130 C   0  0  0  0  0  0  0  0  0  0  0  0
   16.5520  -10.9580   20.4870 N   0  0  0  0  0  0  0  0  0  0  0  0
   17.5520  -11.7600   19.9900 C   0  0  0  0  0  0  0  0  0  0  0  0
   17.4020  -12.4410   18.9690 O   0  0  0  0  0  0  0  0  0  0  0  0
   18.8320  -11.8800   20.8560 C   0  0  2  0  0  0  0  0  0  0  0  0
   20.1320  -11.7350   20.0520 C   0  0  0  0  0  0  0  0  0  0  0  0
   20.4580  -13.1630   19.6480 C   0  0  0  0  0  0  0  0  0  0  0  0
   20.0770  -13.9450   20.8890 C   0  0  0  0  0  0  0  0  0  0  0  0
   18.9370  -13.2280   21.4570 N   0  0  0  0  0  0  0  0  0  0  0  0
   18.2960  -13.8000   22.5310 C   0  0  0  0  0  0  0  0  0  0  0  0
   18.8060  -13.7370   23.6580 O   0  0  0  0  0  0  0  0  0  0  0  0
   17.0600  -14.7220   22.4050 C   0  0  2  0  0  0  0  0  0  0  0  0
   17.1400  -15.7810   23.4740 N   0  0  0  0  0  0  0  0  0  0  0  0
   16.6990  -15.3540   21.0610 C   0  0  0  0  0  0  0  0  0  0  0  0
   15.2460  -15.3110   20.6460 C   0  0  0  0  0  0  0  0  0  0  0  0
   14.9390  -14.8780   19.3440 C   0  0  0  0  0  0  0  0  0  0  0  0
   13.6160  -14.8270   18.8990 C   0  0  0  0  0  0  0  0  0  0  0  0
   12.5830  -15.2220   19.7420 C   0  0  0  0  0  0  0  0  0  0  0  0
   12.8740  -15.6780   21.0250 C   0  0  0  0  0  0  0  0  0  0  0  0
   14.1960  -15.7330   21.4730 C   0  0  0  0  0  0  0  0  0  0  0  0
   13.6360  -12.0250   21.3090 C   0  0  0  0  0  0  0  0  0  0  0  0
   12.5920  -12.0290   22.2410 C   0  0  0  0  0  0  0  0  0  0  0  0
   10.4800  -12.7780   23.3890 H   0  0  0  0  0  0  0  0  0  0  0  0
    9.5290  -11.9900   24.5990 H   0  0  0  0  0  0  0  0  0  0  0  0
   11.2070   -8.8770   24.1690 H   0  0  0  0  0  0  0  0  0  0  0  0
    9.9380   -9.6650   25.0390 H   0  0  0  0  0  0  0  0  0  0  0  0
   12.0694   -8.6670   22.4798 H   0  0  0  0  0  0  0  0  0  0  0  0
   13.9200   -8.6630   20.8181 H   0  0  0  0  0  0  0  0  0  0  0  0
   15.1476  -11.6695   19.1202 H   0  0  0  0  0  0  0  0  0  0  0  0
   15.2698   -9.8703   19.2666 H   0  0  0  0  0  0  0  0  0  0  0  0
   16.6050  -10.6160   21.4390 H   0  0  0  0  0  0  0  0  0  0  0  0
   18.7315  -11.0717   21.5953 H   0  0  0  0  0  0  0  0  0  0  0  0
   19.9783  -11.1008   19.1664 H   0  0  0  0  0  0  0  0  0  0  0  0
   20.9397  -11.2559   20.6248 H   0  0  0  0  0  0  0  0  0  0  0  0
   19.8603  -13.4776   18.7798 H   0  0  0  0  0  0  0  0  0  0  0  0
   21.5047  -13.3059   19.3416 H   0  0  0  0  0  0  0  0  0  0  0  0
   19.7928  -14.9742   20.6246 H   0  0  0  0  0  0  0  0  0  0  0  0
   20.9122  -14.0202   21.6008 H   0  0  0  0  0  0  0  0  0  0  0  0
   16.2248  -14.0163   22.5250 H   0  0  0  0  0  0  0  0  0  0  0  0
   16.2550  -15.9460   23.9620 H   0  0  0  0  0  0  0  0  0  0  0  0
   17.8520  -15.5120   24.1680 H   0  0  0  0  0  0  0  0  0  0  0  0
   17.4700  -16.6770   23.0590 H   0  0  0  0  0  0  0  0  0  0  0  0
   17.2805  -14.8354   20.2845 H   0  0  0  0  0  0  0  0  0  0  0  0
   16.9288  -16.4232   21.1793 H   0  0  0  0  0  0  0  0  0  0  0  0
   15.7514  -14.5754   18.6669 H   0  0  0  0  0  0  0  0  0  0  0  0
   13.3912  -14.4743   17.8816 H   0  0  0  0  0  0  0  0  0  0  0  0
   11.5398  -15.1744   19.3965 H   0  0  0  0  0  0  0  0  0  0  0  0
   12.0578  -15.9969   21.6899 H   0  0  0  0  0  0  0  0  0  0  0  0
   14.4147  -16.1105   22.4828 H   0  0  0  0  0  0  0  0  0  0  0  0
   14.0687  -12.9787   20.9724 H   0  0  0  0  0  0  0  0  0  0  0  0
   12.2147  -12.9859   22.6307 H   0  0  0  0  0  0  0  0  0  0  0  0
  1  2  1  0
  2  3  2  0
  2  4  1  0
  4  5  2  0
  5  6  1  0
  6  7  2  0
  7  8  1  0
  8  9  1  0
  9 10  1  0
 10 11  2  0
 10 12  1  0
 12 13  1  0
 13 14  1  0
 14 15  1  0
 15 16  1  0
 16 17  1  0
 17 18  2  0
 17 19  1  0
 19 20  1  0
 19 21  1  0
 21 22  1  0
 22 23  2  0
 23 24  1  0
 24 25  2  0
 25 26  1  0
 26 27  2  0
  7 28  1  0
 28 29  2  0
 29  4  1  0
 16 12  1  0
 27 22  1  0
  1 30  1  0
  1 31  1  0
  3 32  1  0
  3 33  1  0
  5 34  1  0
  6 35  1  0
  8 36  1  0
  8 37  1  0
  9 38  1  0
 12 39  1  1
 13 40  1  0
 13 41  1  0
 14 42  1  0
 14 43  1  0
 15 44  1  0
 15 45  1  0
 19 46  1  1
 20 47  1  0
 20 48  1  0
 20 49  1  0
 21 50  1  0
 21 51  1  0
 23 52  1  0
 24 53  1  0
 25 54  1  0
 26 55  1  0
 27 56  1  0
 28 57  1  0
 29 58  1  0
M  CHG  2   3   1  20   1
M  END
>  <meeko>  (2) 
{"is_sidechain": [false], "free_energy": -9.243, "intermolecular_energy": -12.938, "internal_energy": -2.109}

$$$$
2zda_ligand
     RDKit          3D

 58 60  0  0  0  0  0  0  0  0999 V2000
   10.6830  -10.9370   24.9430 N   0  0  0  0  0  0  0  0  0  0  0  0
   11.1600  -10.0000   24.1520 C   0  0  0  0  0  0  0  0  0  0  0  0
   10.9820   -8.7250   24.4260 N   0  0  0  0  0  0  0  0  0  0  0  0
   11.9090  -10.3810   22.9430 C   0  0  0  0  0  0  0  0  0  0  0  0
   12.7690   -9.4690   22.3120 C   0  0  0  0  0  0  0  0  0  0  0  0
   13.5010   -9.8390   21.1780 C   0  0  0  0  0  0  0  0  0  0  0  0
   13.3940  -11.1320   20.6510 C   0  0  0  0  0  0  0  0  0  0  0  0
   14.1960  -11.5470   19.4430 C   0  0  0  0  0  0  0  0  0  0  0  0
   14.4480  -12.9740   19.4480 N   0  0  0  0  0  0  0  0  0  0  0  0
   15.6960  -13.4860   19.7150 C   0  0  0  0  0  0  0  0  0  0  0  0
   16.6740  -12.7600   19.9210 O   0  0  0  0  0  0  0  0  0  0  0  0
   15.8470  -15.0240   19.6000 C   0  0  2  0  0  0  0  0  0  0  0  0
   14.5330  -15.7470   19.2690 C   0  0  0  0  0  0  0  0  0  0  0  0
   13.9500  -16.0620   20.6360 C   0  0  0  0  0  0  0  0  0  0  0  0
   15.1810  -16.4430   21.4330 C   0  0  0  0  0  0  0  0  0  0  0  0
   16.2570  -15.6120   20.8950 N   0  0  0  0  0  0  0  0  0  0  0  0
   17.4740  -15.6560   21.5330 C   0  0  0  0  0  0  0  0  0  0  0  0
   18.1710  -16.6770   21.4600 O   0  0  0  0  0  0  0  0  0  0  0  0
   17.9620  -14.5810   22.5320 C   0  0  2  0  0  0  0  0  0  0  0  0
   16.7990  -13.6910   22.8860 N   0  0  0  0  0  0  0  0  0  0  0  0
   19.1980  -13.7370   22.2200 C   0  0  0  0  0  0  0  0  0  0  0  0
   20.1670  -13.4880   23.3520 C   0  0  0  0  0  0  0  0  0  0  0  0
   19.6460  -13.2690   24.6390 C   0  0  0  0  0  0  0  0  0  0  0  0
   20.4910  -13.0440   25.7280 C   0  0  0  0  0  0  0  0  0  0  0  0
   21.8700  -13.0490   25.5490 C   0  0  0  0  0  0  0  0  0  0  0  0
   22.4030  -13.2910   24.2860 C   0  0  0  0  0  0  0  0  0  0  0  0
   21.5600  -13.5190   23.1950 C   0  0  0  0  0  0  0  0  0  0  0  0
   12.5190  -12.0390   21.2660 C   0  0  0  0  0  0  0  0  0  0  0  0
   11.7870  -11.6680   22.3990 C   0  0  0  0  0  0  0  0  0  0  0  0
   10.8040  -11.9160   24.7060 H   0  0  0  0  0  0  0  0  0  0  0  0
   10.1670  -10.7260   25.7870 H   0  0  0  0  0  0  0  0  0  0  0  0
   11.3800   -8.0120   23.8230 H   0  0  0  0  0  0  0  0  0  0  0  0
   10.4810   -8.4070   25.2450 H   0  0  0  0  0  0  0  0  0  0  0  0
   12.8691   -8.4500   22.7140 H   0  0  0  0  0  0  0  0  0  0  0  0
   14.1665   -9.1075   20.6963 H   0  0  0  0  0  0  0  0  0  0  0  0
   13.6365  -11.2844   18.5330 H   0  0  0  0  0  0  0  0  0  0  0  0
   15.1623  -11.0219   19.4685 H   0  0  0  0  0  0  0  0  0  0  0  0
   13.7360  -13.5670   19.0400 H   0  0  0  0  0  0  0  0  0  0  0  0
   16.5867  -15.1602   18.7973 H   0  0  0  0  0  0  0  0  0  0  0  0
   13.8589  -15.0948   18.6944 H   0  0  0  0  0  0  0  0  0  0  0  0
   14.6806  -16.6431   18.6484 H   0  0  0  0  0  0  0  0  0  0  0  0
   13.4520  -15.1819   21.0689 H   0  0  0  0  0  0  0  0  0  0  0  0
   13.1788  -16.8461   20.6155 H   0  0  0  0  0  0  0  0  0  0  0  0
   15.0289  -16.2330   22.5020 H   0  0  0  0  0  0  0  0  0  0  0  0
   15.4090  -17.5159   21.3504 H   0  0  0  0  0  0  0  0  0  0  0  0
   18.3408  -15.1887   23.3670 H   0  0  0  0  0  0  0  0  0  0  0  0
   16.9870  -13.0500   23.6610 H   0  0  0  0  0  0  0  0  0  0  0  0
   15.9860  -14.2740   23.1320 H   0  0  0  0  0  0  0  0  0  0  0  0
   16.5110  -13.1380   22.0520 H   0  0  0  0  0  0  0  0  0  0  0  0
   19.7513  -14.2448   21.4163 H   0  0  0  0  0  0  0  0  0  0  0  0
   18.8047  -12.7433   21.9593 H   0  0  0  0  0  0  0  0  0  0  0  0
   18.5565  -13.2749   24.7907 H   0  0  0  0  0  0  0  0  0  0  0  0
   20.0661  -12.8630   26.7263 H   0  0  0  0  0  0  0  0  0  0  0  0
   22.5377  -12.8623   26.4030 H   0  0  0  0  0  0  0  0  0  0  0  0
   23.4940  -13.3028   24.1459 H   0  0  0  0  0  0  0  0  0  0  0  0
   21.9928  -13.7245   22.2048 H   0  0  0  0  0  0  0  0  0  0  0  0
   12.4071  -13.0525   20.8534 H   0  0  0  0  0  0  0  0  0  0  0  0
   11.1076  -12.3944   22.8689 H   0  0  0  0  0  0  0  0  0  0  0  0
  1  2  1  0
  2  3  2  0
  2  4  1  0
  4  5  2  0
  5  6  1  0
  6  7  2  0
  7  8  1  0
  8  9  1  0
  9 10  1  0
 10 11  2  0
 10 12  1  0
 12 13  1  0
 13 14  1  0
 14 15  1  0
 15 16  1  0
 16 17  1  0
 17 18  2  0
 17 19  1  0
 19 20  1  0
 19 21  1  0
 21 22  1  0
 22 23  2  0
 23 24  1  0
 24 25  2  0
 25 26  1  0
 26 27  2  0
  7 28  1  0
 28 29  2  0
 29  4  1  0
 16 12  1  0
 27 22  1  0
  1 30  1  0
  1 31  1  0
  3 32  1  0
  3 33  1  0
  5 34  1  0
  6 35  1  0
  8 36  1  0
  8 37  1  0
  9 38  1  0
 12 39  1  6
 13 40  1  0
 13 41  1  0
 14 42  1  0
 14 43  1  0
 15 44  1  0
 15 45  1  0
 19 46  1  1
 20 47  1  0
 20 48  1  0
 20 49  1  0
 21 50  1  0
 21 51  1  0
 23 52  1  0
 24 53  1  0
 25 54  1  0
 26 55  1  0
 27 56  1  0
 28 57  1  0
 29 58  1  0
M  CHG  2   3   1  20   1
M  END
>  <meeko>  (3) 
{"is_sidechain": [false], "free_energy": -8.716, "intermolecular_energy": -13.181, "internal_energy": -1.077}

$$$$
2zda_ligand
     RDKit          3D

 58 60  0  0  0  0  0  0  0  0999 V2000
   11.7170   -8.6550   24.4330 N   0  0  0  0  0  0  0  0  0  0  0  0
   11.4440   -9.8500   23.9550 C   0  0  0  0  0  0  0  0  0  0  0  0
   10.5470  -10.6230   24.5300 N   0  0  0  0  0  0  0  0  0  0  0  0
   12.1490  -10.3310   22.7550 C   0  0  0  0  0  0  0  0  0  0  0  0
   12.9520   -9.4650   21.9970 C   0  0  0  0  0  0  0  0  0  0  0  0
   13.6420   -9.9270   20.8710 C   0  0  0  0  0  0  0  0  0  0  0  0
   13.5500  -11.2680   20.4790 C   0  0  0  0  0  0  0  0  0  0  0  0
   14.3090  -11.7820   19.2810 C   0  0  0  0  0  0  0  0  0  0  0  0
   14.4910  -13.2170   19.3520 N   0  0  0  0  0  0  0  0  0  0  0  0
   15.2660  -13.8930   18.4400 C   0  0  0  0  0  0  0  0  0  0  0  0
   15.8120  -13.3220   17.4890 O   0  0  0  0  0  0  0  0  0  0  0  0
   15.3050  -15.4360   18.5800 C   0  0  2  0  0  0  0  0  0  0  0  0
   14.6240  -16.1750   17.4190 C   0  0  0  0  0  0  0  0  0  0  0  0
   13.1870  -16.3240   17.8920 C   0  0  0  0  0  0  0  0  0  0  0  0
   13.3620  -16.6270   19.3660 C   0  0  0  0  0  0  0  0  0  0  0  0
   14.5490  -15.8770   19.7730 N   0  0  0  0  0  0  0  0  0  0  0  0
   14.8650  -15.8630   21.1110 C   0  0  0  0  0  0  0  0  0  0  0  0
   13.9660  -15.9670   21.9570 O   0  0  0  0  0  0  0  0  0  0  0  0
   16.2660  -15.5090   21.6620 C   0  0  2  0  0  0  0  0  0  0  0  0
   16.5120  -16.3210   22.9070 N   0  0  0  0  0  0  0  0  0  0  0  0
   16.6600  -14.0510   21.8950 C   0  0  0  0  0  0  0  0  0  0  0  0
   17.9390  -13.5700   21.2490 C   0  0  0  0  0  0  0  0  0  0  0  0
   17.9030  -12.3760   20.5070 C   0  0  0  0  0  0  0  0  0  0  0  0
   19.0550  -11.8760   19.8970 C   0  0  0  0  0  0  0  0  0  0  0  0
   20.2620  -12.5520   20.0310 C   0  0  0  0  0  0  0  0  0  0  0  0
   20.3200  -13.7210   20.7840 C   0  0  0  0  0  0  0  0  0  0  0  0
   19.1700  -14.2240   21.3990 C   0  0  0  0  0  0  0  0  0  0  0  0
   12.7330  -12.1310   21.2210 C   0  0  0  0  0  0  0  0  0  0  0  0
   12.0420  -11.6690   22.3470 C   0  0  0  0  0  0  0  0  0  0  0  0
   12.4310   -8.0800   23.9960 H   0  0  0  0  0  0  0  0  0  0  0  0
   11.2570   -8.2780   25.2510 H   0  0  0  0  0  0  0  0  0  0  0  0
   10.3250  -11.5300   24.1340 H   0  0  0  0  0  0  0  0  0  0  0  0
   10.0310  -10.3410   25.3520 H   0  0  0  0  0  0  0  0  0  0  0  0
   13.0401   -8.4090   22.2920 H   0  0  0  0  0  0  0  0  0  0  0  0
   14.2625   -9.2303   20.2883 H   0  0  0  0  0  0  0  0  0  0  0  0
   13.7470  -11.5364   18.3679 H   0  0  0  0  0  0  0  0  0  0  0  0
   15.3004  -11.3057   19.2664 H   0  0  0  0  0  0  0  0  0  0  0  0
   13.8620  -13.7290   19.9590 H   0  0  0  0  0  0  0  0  0  0  0  0
   16.3783  -15.6730   18.6240 H   0  0  0  0  0  0  0  0  0  0  0  0
   14.6743  -15.5841   16.4926 H   0  0  0  0  0  0  0  0  0  0  0  0
   15.1010  -17.1378   17.1836 H   0  0  0  0  0  0  0  0  0  0  0  0
   12.6195  -15.3938   17.7412 H   0  0  0  0  0  0  0  0  0  0  0  0
   12.6219  -17.0951   17.3479 H   0  0  0  0  0  0  0  0  0  0  0  0
   12.4815  -16.2944   19.9354 H   0  0  0  0  0  0  0  0  0  0  0  0
   13.4724  -17.7052   19.5539 H   0  0  0  0  0  0  0  0  0  0  0  0
   16.9238  -15.7617   20.8173 H   0  0  0  0  0  0  0  0  0  0  0  0
   17.2200  -15.9220   23.5290 H   0  0  0  0  0  0  0  0  0  0  0  0
   16.8050  -17.2720   22.6420 H   0  0  0  0  0  0  0  0  0  0  0  0
   15.6220  -16.4340   23.4360 H   0  0  0  0  0  0  0  0  0  0  0  0
   15.8409  -13.4221   21.5160 H   0  0  0  0  0  0  0  0  0  0  0  0
   16.8429  -13.9759   22.9771 H   0  0  0  0  0  0  0  0  0  0  0  0
   16.9543  -11.8285   20.4058 H   0  0  0  0  0  0  0  0  0  0  0  0
   19.0074  -10.9468   19.3102 H   0  0  0  0  0  0  0  0  0  0  0  0
   21.1686  -12.1643   19.5434 H   0  0  0  0  0  0  0  0  0  0  0  0
   21.2767  -14.2523   20.8958 H   0  0  0  0  0  0  0  0  0  0  0  0
   19.2313  -15.1398   22.0052 H   0  0  0  0  0  0  0  0  0  0  0  0
   12.6336  -13.1830   20.9153 H   0  0  0  0  0  0  0  0  0  0  0  0
   11.4079  -12.3628   22.9185 H   0  0  0  0  0  0  0  0  0  0  0  0
  1  2  1  0
  2  3  2  0
  2  4  1  0
  4  5  2  0
  5  6  1  0
  6  7  2  0
  7  8  1  0
  8  9  1  0
  9 10  1  0
 10 11  2  0
 10 12  1  0
 12 13  1  0
 13 14  1  0
 14 15  1  0
 15 16  1  0
 16 17  1  0
 17 18  2  0
 17 19  1  0
 19 20  1  0
 19 21  1  0
 21 22  1  0
 22 23  2  0
 23 24  1  0
 24 25  2  0
 25 26  1  0
 26 27  2  0
  7 28  1  0
 28 29  2  0
 29  4  1  0
 16 12  1  0
 27 22  1  0
  1 30  1  0
  1 31  1  0
  3 32  1  0
  3 33  1  0
  5 34  1  0
  6 35  1  0
  8 36  1  0
  8 37  1  0
  9 38  1  0
 12 39  1  1
 13 40  1  0
 13 41  1  0
 14 42  1  0
 14 43  1  0
 15 44  1  0
 15 45  1  0
 19 46  1  6
 20 47  1  0
 20 48  1  0
 20 49  1  0
 21 50  1  0
 21 51  1  0
 23 52  1  0
 24 53  1  0
 25 54  1  0
 26 55  1  0
 27 56  1  0
 28 57  1  0
 29 58  1  0
M  CHG  2   3   1  20   1
M  END
>  <meeko>  (4) 
{"is_sidechain": [false], "free_energy": -8.615, "intermolecular_energy": -12.725, "internal_energy": -1.381}

$$$$
2zda_ligand
     RDKit          3D

 58 60  0  0  0  0  0  0  0  0999 V2000
   12.5640   -7.9760   24.0490 N   0  0  0  0  0  0  0  0  0  0  0  0
   11.7270   -8.9740   23.8570 C   0  0  0  0  0  0  0  0  0  0  0  0
   10.5620   -9.0090   24.4670 N   0  0  0  0  0  0  0  0  0  0  0  0
   12.0960  -10.0660   22.9400 C   0  0  0  0  0  0  0  0  0  0  0  0
   11.4610  -11.3140   23.0170 C   0  0  0  0  0  0  0  0  0  0  0  0
   11.7930  -12.3450   22.1300 C   0  0  0  0  0  0  0  0  0  0  0  0
   12.7650  -12.1480   21.1410 C   0  0  0  0  0  0  0  0  0  0  0  0
   13.1130  -13.2440   20.1660 C   0  0  0  0  0  0  0  0  0  0  0  0
   14.4630  -13.7250   20.3780 N   0  0  0  0  0  0  0  0  0  0  0  0
   14.9510  -14.8250   19.7150 C   0  0  0  0  0  0  0  0  0  0  0  0
   14.2540  -15.4870   18.9370 O   0  0  0  0  0  0  0  0  0  0  0  0
   16.3810  -15.2840   20.1010 C   0  0  2  0  0  0  0  0  0  0  0  0
   16.5160  -16.8050   20.2570 C   0  0  0  0  0  0  0  0  0  0  0  0
   16.2120  -17.0360   21.7280 C   0  0  0  0  0  0  0  0  0  0  0  0
   16.8900  -15.8520   22.3880 C   0  0  0  0  0  0  0  0  0  0  0  0
   16.7640  -14.7560   21.4290 N   0  0  0  0  0  0  0  0  0  0  0  0
   17.1800  -13.5080   21.8300 C   0  0  0  0  0  0  0  0  0  0  0  0
   16.3670  -12.7190   22.3310 O   0  0  0  0  0  0  0  0  0  0  0  0
   18.5730  -12.9190   21.5050 C   0  0  2  0  0  0  0  0  0  0  0  0
   18.5790  -12.4660   20.0680 N   0  0  0  0  0  0  0  0  0  0  0  0
   19.8410  -13.7150   21.8150 C   0  0  0  0  0  0  0  0  0  0  0  0
   20.4990  -13.4700   23.1540 C   0  0  0  0  0  0  0  0  0  0  0  0
   19.6760  -13.3630   24.2890 C   0  0  0  0  0  0  0  0  0  0  0  0
   20.2250  -13.1490   25.5550 C   0  0  0  0  0  0  0  0  0  0  0  0
   21.6040  -13.0530   25.7070 C   0  0  0  0  0  0  0  0  0  0  0  0
   22.4330  -13.1840   24.5970 C   0  0  0  0  0  0  0  0  0  0  0  0
   21.8880  -13.4010   23.3290 C   0  0  0  0  0  0  0  0  0  0  0  0
   13.4170  -10.9090   21.0750 C   0  0  0  0  0  0  0  0  0  0  0  0
   13.0850   -9.8790   21.9630 C   0  0  0  0  0  0  0  0  0  0  0  0
   13.4710   -7.9740   23.5920 H   0  0  0  0  0  0  0  0  0  0  0  0
   12.3550   -7.2010   24.6630 H   0  0  0  0  0  0  0  0  0  0  0  0
    9.9140   -9.7690   24.2880 H   0  0  0  0  0  0  0  0  0  0  0  0
   10.2560   -8.2840   25.1020 H   0  0  0  0  0  0  0  0  0  0  0  0
   10.6918  -11.4851   23.7845 H   0  0  0  0  0  0  0  0  0  0  0  0
   11.2862  -13.3180   22.2105 H   0  0  0  0  0  0  0  0  0  0  0  0
   12.4096  -14.0792   20.2990 H   0  0  0  0  0  0  0  0  0  0  0  0
   13.0443  -12.8375   19.1462 H   0  0  0  0  0  0  0  0  0  0  0  0
   14.9590  -13.3590   21.1830 H   0  0  0  0  0  0  0  0  0  0  0  0
   17.0113  -14.9137   19.2791 H   0  0  0  0  0  0  0  0  0  0  0  0
   15.7923  -17.3321   19.6179 H   0  0  0  0  0  0  0  0  0  0  0  0
   17.5056  -17.1814   19.9585 H   0  0  0  0  0  0  0  0  0  0  0  0
   15.1283  -17.0303   21.9164 H   0  0  0  0  0  0  0  0  0  0  0  0
   16.5624  -18.0091   22.1025 H   0  0  0  0  0  0  0  0  0  0  0  0
   16.3881  -15.5974   23.3331 H   0  0  0  0  0  0  0  0  0  0  0  0
   17.9408  -16.0643   22.6346 H   0  0  0  0  0  0  0  0  0  0  0  0
   18.6641  -12.1043   22.2385 H   0  0  0  0  0  0  0  0  0  0  0  0
   19.4580  -12.0300   19.7740 H   0  0  0  0  0  0  0  0  0  0  0  0
   17.8130  -11.7950   19.9190 H   0  0  0  0  0  0  0  0  0  0  0  0
   18.3770  -13.2740   19.4430 H   0  0  0  0  0  0  0  0  0  0  0  0
   19.5825  -14.7830   21.7635 H   0  0  0  0  0  0  0  0  0  0  0  0
   20.5773  -13.3777   21.0706 H   0  0  0  0  0  0  0  0  0  0  0  0
   18.5850  -13.4490   24.1782 H   0  0  0  0  0  0  0  0  0  0  0  0
   19.5670  -13.0564   26.4316 H   0  0  0  0  0  0  0  0  0  0  0  0
   22.0382  -12.8740   26.7017 H   0  0  0  0  0  0  0  0  0  0  0  0
   23.5242  -13.1163   24.7187 H   0  0  0  0  0  0  0  0  0  0  0  0
   22.5540  -13.5186   22.4614 H   0  0  0  0  0  0  0  0  0  0  0  0
   14.1976  -10.7443   20.3177 H   0  0  0  0  0  0  0  0  0  0  0  0
   13.6054   -8.9124   21.8939 H   0  0  0  0  0  0  0  0  0  0  0  0
  1  2  1  0
  2  3  2  0
  2  4  1  0
  4  5  2  0
  5  6  1  0
  6  7  2  0
  7  8  1  0
  8  9  1  0
  9 10  1  0
 10 11  2  0
 10 12  1  0
 12 13  1  0
 13 14  1  0
 14 15  1  0
 15 16  1  0
 16 17  1  0
 17 18  2  0
 17 19  1  0
 19 20  1  0
 19 21  1  0
 21 22  1  0
 22 23  2  0
 23 24  1  0
 24 25  2  0
 25 26  1  0
 26 27  2  0
  7 28  1  0
 28 29  2  0
 29  4  1  0
 16 12  1  0
 27 22  1  0
  1 30  1  0
  1 31  1  0
  3 32  1  0
  3 33  1  0
  5 34  1  0
  6 35  1  0
  8 36  1  0
  8 37  1  0
  9 38  1  0
 12 39  1  6
 13 40  1  0
 13 41  1  0
 14 42  1  0
 14 43  1  0
 15 44  1  0
 15 45  1  0
 19 46  1  1
 20 47  1  0
 20 48  1  0
 20 49  1  0
 21 50  1  0
 21 51  1  0
 23 52  1  0
 24 53  1  0
 25 54  1  0
 26 55  1  0
 27 56  1  0
 28 57  1  0
 29 58  1  0
M  CHG  2   3   1  20   1
M  END
>  <meeko>  (5) 
{"is_sidechain": [false], "free_energy": -8.546, "intermolecular_energy": -12.998, "internal_energy": -1.006}

$$$$
2zda_ligand
     RDKit          3D

 58 60  0  0  0  0  0  0  0  0999 V2000
   10.5970   -9.6430   24.2750 N   0  0  0  0  0  0  0  0  0  0  0  0
   10.9140  -10.8010   23.7360 C   0  0  0  0  0  0  0  0  0  0  0  0
   10.2330  -11.8910   24.0180 N   0  0  0  0  0  0  0  0  0  0  0  0
   12.0460  -10.8790   22.7960 C   0  0  0  0  0  0  0  0  0  0  0  0
   12.5240  -12.1200   22.3500 C   0  0  0  0  0  0  0  0  0  0  0  0
   13.5840  -12.1950   21.4370 C   0  0  0  0  0  0  0  0  0  0  0  0
   14.1840  -11.0290   20.9460 C   0  0  0  0  0  0  0  0  0  0  0  0
   15.3100  -11.0980   19.9440 C   0  0  0  0  0  0  0  0  0  0  0  0
   16.5940  -11.2030   20.6070 N   0  0  0  0  0  0  0  0  0  0  0  0
   17.7140  -11.6470   19.9450 C   0  0  0  0  0  0  0  0  0  0  0  0
   17.6770  -12.0210   18.7670 O   0  0  0  0  0  0  0  0  0  0  0  0
   19.0020  -11.7940   20.7950 C   0  0  2  0  0  0  0  0  0  0  0  0
   20.2890  -11.8250   19.9580 C   0  0  0  0  0  0  0  0  0  0  0  0
   20.4910  -13.3050   19.6790 C   0  0  0  0  0  0  0  0  0  0  0  0
   20.0810  -13.9410   20.9920 C   0  0  0  0  0  0  0  0  0  0  0  0
   19.0160  -13.0860   21.5140 N   0  0  0  0  0  0  0  0  0  0  0  0
   18.3590  -13.5080   22.6460 C   0  0  0  0  0  0  0  0  0  0  0  0
   17.1320  -13.3610   22.7370 O   0  0  0  0  0  0  0  0  0  0  0  0
   19.0760  -13.9730   23.9350 C   0  0  2  0  0  0  0  0  0  0  0  0
   20.1570  -12.9770   24.2680 N   0  0  0  0  0  0  0  0  0  0  0  0
   19.6160  -15.3980   24.0500 C   0  0  0  0  0  0  0  0  0  0  0  0
   18.6040  -16.5060   24.2340 C   0  0  0  0  0  0  0  0  0  0  0  0
   18.5760  -17.1840   25.4650 C   0  0  0  0  0  0  0  0  0  0  0  0
   17.6570  -18.2090   25.6990 C   0  0  0  0  0  0  0  0  0  0  0  0
   16.7440  -18.5620   24.7110 C   0  0  0  0  0  0  0  0  0  0  0  0
   16.7410  -17.8830   23.4970 C   0  0  0  0  0  0  0  0  0  0  0  0
   17.6580  -16.8550   23.2600 C   0  0  0  0  0  0  0  0  0  0  0  0
   13.7220   -9.7890   21.4060 C   0  0  0  0  0  0  0  0  0  0  0  0
   12.6640   -9.7140   22.3190 C   0  0  0  0  0  0  0  0  0  0  0  0
   11.1460   -8.8150   24.0690 H   0  0  0  0  0  0  0  0  0  0  0  0
    9.8260   -9.5370   24.9200 H   0  0  0  0  0  0  0  0  0  0  0  0
   10.4700  -12.7720   23.5730 H   0  0  0  0  0  0  0  0  0  0  0  0
    9.4450  -11.8930   24.6520 H   0  0  0  0  0  0  0  0  0  0  0  0
   12.0608  -13.0459   22.7217 H   0  0  0  0  0  0  0  0  0  0  0  0
   13.9479  -13.1779   21.1031 H   0  0  0  0  0  0  0  0  0  0  0  0
   15.1649  -11.9786   19.3009 H   0  0  0  0  0  0  0  0  0  0  0  0
   15.3010  -10.1754   19.3450 H   0  0  0  0  0  0  0  0  0  0  0  0
   16.5940  -11.1450   21.6180 H   0  0  0  0  0  0  0  0  0  0  0  0
   18.9837  -10.9182   21.4604 H   0  0  0  0  0  0  0  0  0  0  0  0
   20.1635  -11.2613   19.0218 H   0  0  0  0  0  0  0  0  0  0  0  0
   21.1460  -11.3633   20.4702 H   0  0  0  0  0  0  0  0  0  0  0  0
   19.8487  -13.6459   18.8537 H   0  0  0  0  0  0  0  0  0  0  0  0
   21.5153  -13.5585   19.3681 H   0  0  0  0  0  0  0  0  0  0  0  0
   19.7094  -14.9630   20.8265 H   0  0  0  0  0  0  0  0  0  0  0  0
   20.9255  -14.0210   21.6923 H   0  0  0  0  0  0  0  0  0  0  0  0
   18.2528  -14.0124   24.6636 H   0  0  0  0  0  0  0  0  0  0  0  0
   20.1630  -12.1520   23.6630 H   0  0  0  0  0  0  0  0  0  0  0  0
   21.0760  -13.4380   24.2050 H   0  0  0  0  0  0  0  0  0  0  0  0
   20.0610  -12.6700   25.2590 H   0  0  0  0  0  0  0  0  0  0  0  0
   20.1798  -15.6138   23.1305 H   0  0  0  0  0  0  0  0  0  0  0  0
   20.2130  -15.4020   24.9739 H   0  0  0  0  0  0  0  0  0  0  0  0
   19.2880  -16.9032   26.2551 H   0  0  0  0  0  0  0  0  0  0  0  0
   17.6552  -18.7369   26.6641 H   0  0  0  0  0  0  0  0  0  0  0  0
   16.0261  -19.3761   24.8892 H   0  0  0  0  0  0  0  0  0  0  0  0
   16.0129  -18.1566   22.7191 H   0  0  0  0  0  0  0  0  0  0  0  0
   17.6372  -16.3155   22.3016 H   0  0  0  0  0  0  0  0  0  0  0  0
   14.1961   -8.8641   21.0456 H   0  0  0  0  0  0  0  0  0  0  0  0
   12.3134   -8.7308   22.6661 H   0  0  0  0  0  0  0  0  0  0  0  0
  1  2  1  0
  2  3  2  0
  2  4  1  0
  4  5  2  0
  5  6  1  0
  6  7  2  0
  7  8  1  0
  8  9  1  0
  9 10  1  0
 10 11  2  0
 10 12  1  0
 12 13  1  0
 13 14  1  0
 14 15  1  0
 15 16  1  0
 16 17  1  0
 17 18  2  0
 17 19  1  0
 19 20  1  0
 19 21  1  0
 21 22  1  0
 22 23  2  0
 23 24  1  0
 24 25  2  0
 25 26  1  0
 26 27  2  0
  7 28  1  0
 28 29  2  0
 29  4  1  0
 16 12  1  0
 27 22  1  0
  1 30  1  0
  1 31  1  0
  3 32  1  0
  3 33  1  0
  5 34  1  0
  6 35  1  0
  8 36  1  0
  8 37  1  0
  9 38  1  0
 12 39  1  1
 13 40  1  0
 13 41  1  0
 14 42  1  0
 14 43  1  0
 15 44  1  0
 15 45  1  0
 19 46  1  1
 20 47  1  0
 20 48  1  0
 20 49  1  0
 21 50  1  0
 21 51  1  0
 23 52  1  0
 24 53  1  0
 25 54  1  0
 26 55  1  0
 27 56  1  0
 28 57  1  0
 29 58  1  0
M  CHG  2   3   1  20   1
M  END
>  <meeko>  (6) 
{"is_sidechain": [false], "free_energy": -8.169, "intermolecular_energy": -12.597, "internal_energy": -0.842}

$$$$
2zda_ligand
     RDKit          3D

 58 60  0  0  0  0  0  0  0  0999 V2000
   22.5740  -13.2830   25.0420 N   0  0  0  0  0  0  0  0  0  0  0  0
   21.3360  -13.2400   25.4870 C   0  0  0  0  0  0  0  0  0  0  0  0
   20.9880  -12.4070   26.4450 N   0  0  0  0  0  0  0  0  0  0  0  0
   20.3220  -14.1320   24.9020 C   0  0  0  0  0  0  0  0  0  0  0  0
   20.6960  -15.3170   24.2510 C   0  0  0  0  0  0  0  0  0  0  0  0
   19.7310  -16.1780   23.7160 C   0  0  0  0  0  0  0  0  0  0  0  0
   18.3680  -15.8770   23.8270 C   0  0  0  0  0  0  0  0  0  0  0  0
   17.3190  -16.8100   23.2750 C   0  0  0  0  0  0  0  0  0  0  0  0
   16.1270  -16.0860   22.8850 N   0  0  0  0  0  0  0  0  0  0  0  0
   15.7250  -16.0090   21.5730 C   0  0  0  0  0  0  0  0  0  0  0  0
   16.3800  -16.5140   20.6540 O   0  0  0  0  0  0  0  0  0  0  0  0
   14.4810  -15.1290   21.2850 C   0  0  2  0  0  0  0  0  0  0  0  0
   13.1630  -15.9170   21.2680 C   0  0  0  0  0  0  0  0  0  0  0  0
   13.0180  -16.3270   19.8120 C   0  0  0  0  0  0  0  0  0  0  0  0
   13.5100  -15.0960   19.0780 C   0  0  0  0  0  0  0  0  0  0  0  0
   14.5560  -14.5360   19.9320 N   0  0  0  0  0  0  0  0  0  0  0  0
   15.2780  -13.4740   19.4390 C   0  0  0  0  0  0  0  0  0  0  0  0
   15.9190  -13.6000   18.3870 O   0  0  0  0  0  0  0  0  0  0  0  0
   15.5290  -12.1650   20.2240 C   0  0  2  0  0  0  0  0  0  0  0  0
   15.7220  -11.0430   19.2370 N   0  0  0  0  0  0  0  0  0  0  0  0
   16.6040  -12.1070   21.3090 C   0  0  0  0  0  0  0  0  0  0  0  0
   18.0240  -12.4120   20.8900 C   0  0  0  0  0  0  0  0  0  0  0  0
   18.5390  -13.6910   21.1650 C   0  0  0  0  0  0  0  0  0  0  0  0
   19.8390  -14.0370   20.7930 C   0  0  0  0  0  0  0  0  0  0  0  0
   20.6400  -13.1150   20.1270 C   0  0  0  0  0  0  0  0  0  0  0  0
   20.1360  -11.8540   19.8240 C   0  0  0  0  0  0  0  0  0  0  0  0
   18.8340  -11.5050   20.1920 C   0  0  0  0  0  0  0  0  0  0  0  0
   17.9910  -14.6840   24.4580 C   0  0  0  0  0  0  0  0  0  0  0  0
   18.9570  -13.8220   24.9910 C   0  0  0  0  0  0  0  0  0  0  0  0
   22.8350  -13.9490   24.3210 H   0  0  0  0  0  0  0  0  0  0  0  0
   23.3050  -12.6880   25.4070 H   0  0  0  0  0  0  0  0  0  0  0  0
   20.0240  -12.3630   26.7590 H   0  0  0  0  0  0  0  0  0  0  0  0
   21.6430  -11.7690   26.8790 H   0  0  0  0  0  0  0  0  0  0  0  0
   21.7619  -15.5729   24.1598 H   0  0  0  0  0  0  0  0  0  0  0  0
   20.0460  -17.0991   23.2039 H   0  0  0  0  0  0  0  0  0  0  0  0
   17.7275  -17.3289   22.3953 H   0  0  0  0  0  0  0  0  0  0  0  0
   17.0472  -17.5316   24.0595 H   0  0  0  0  0  0  0  0  0  0  0  0
   15.7220  -15.4640   23.5750 H   0  0  0  0  0  0  0  0  0  0  0  0
   14.4869  -14.3850   22.0952 H   0  0  0  0  0  0  0  0  0  0  0  0
   13.2235  -16.7997   21.9216 H   0  0  0  0  0  0  0  0  0  0  0  0
   12.3076  -15.3321   21.6372 H   0  0  0  0  0  0  0  0  0  0  0  0
   13.6411  -17.2037   19.5813 H   0  0  0  0  0  0  0  0  0  0  0  0
   11.9946  -16.6229   19.5381 H   0  0  0  0  0  0  0  0  0  0  0  0
   13.9200  -15.3707   18.0949 H   0  0  0  0  0  0  0  0  0  0  0  0
   12.6998  -14.3755   18.8925 H   0  0  0  0  0  0  0  0  0  0  0  0
   14.6207  -12.0786   20.8385 H   0  0  0  0  0  0  0  0  0  0  0  0
   15.0380  -10.2870   19.3290 H   0  0  0  0  0  0  0  0  0  0  0  0
   15.6690  -11.4180   18.2800 H   0  0  0  0  0  0  0  0  0  0  0  0
   16.6800  -10.6470   19.3360 H   0  0  0  0  0  0  0  0  0  0  0  0
   16.5942  -11.0912   21.7309 H   0  0  0  0  0  0  0  0  0  0  0  0
   16.3382  -12.9073   22.0153 H   0  0  0  0  0  0  0  0  0  0  0  0
   17.9081  -14.4298   21.6809 H   0  0  0  0  0  0  0  0  0  0  0  0
   20.2300  -15.0383   21.0263 H   0  0  0  0  0  0  0  0  0  0  0  0
   21.6681  -13.3819   19.8410 H   0  0  0  0  0  0  0  0  0  0  0  0
   20.7667  -11.1271   19.2913 H   0  0  0  0  0  0  0  0  0  0  0  0
   18.4414  -10.5109   19.9321 H   0  0  0  0  0  0  0  0  0  0  0  0
   16.9254  -14.4221   24.5354 H   0  0  0  0  0  0  0  0  0  0  0  0
   18.6419  -12.8911   25.4851 H   0  0  0  0  0  0  0  0  0  0  0  0
  1  2  1  0
  2  3  2  0
  2  4  1  0
  4  5  2  0
  5  6  1  0
  6  7  2  0
  7  8  1  0
  8  9  1  0
  9 10  1  0
 10 11  2  0
 10 12  1  0
 12 13  1  0
 13 14  1  0
 14 15  1  0
 15 16  1  0
 16 17  1  0
 17 18  2  0
 17 19  1  0
 19 20  1  0
 19 21  1  0
 21 22  1  0
 22 23  2  0
 23 24  1  0
 24 25  2  0
 25 26  1  0
 26 27  2  0
  7 28  1  0
 28 29  2  0
 29  4  1  0
 16 12  1  0
 27 22  1  0
  1 30  1  0
  1 31  1  0
  3 32  1  0
  3 33  1  0
  5 34  1  0
  6 35  1  0
  8 36  1  0
  8 37  1  0
  9 38  1  0
 12 39  1  1
 13 40  1  0
 13 41  1  0
 14 42  1  0
 14 43  1  0
 15 44  1  0
 15 45  1  0
 19 46  1  1
 20 47  1  0
 20 48  1  0
 20 49  1  0
 21 50  1  0
 21 51  1  0
 23 52  1  0
 24 53  1  0
 25 54  1  0
 26 55  1  0
 27 56  1  0
 28 57  1  0
 29 58  1  0
M  CHG  2   3   1  20   1
M  END
>  <meeko>  (7) 
{"is_sidechain": [false], "free_energy": -8.112, "intermolecular_energy": -11.22, "internal_energy": -2.133}

$$$$
2zda_ligand
     RDKit          3D

 58 60  0  0  0  0  0  0  0  0999 V2000
   22.6340  -12.8100   24.7000 N   0  0  0  0  0  0  0  0  0  0  0  0
   21.3560  -12.7440   25.0090 C   0  0  0  0  0  0  0  0  0  0  0  0
   20.9450  -12.0540   26.0520 N   0  0  0  0  0  0  0  0  0  0  0  0
   20.3690  -13.4470   24.1740 C   0  0  0  0  0  0  0  0  0  0  0  0
   20.6250  -13.6990   22.8170 C   0  0  0  0  0  0  0  0  0  0  0  0
   19.6980  -14.3900   22.0280 C   0  0  0  0  0  0  0  0  0  0  0  0
   18.4960  -14.8500   22.5800 C   0  0  0  0  0  0  0  0  0  0  0  0
   17.5010  -15.6170   21.7440 C   0  0  0  0  0  0  0  0  0  0  0  0
   16.1580  -15.1080   21.9310 N   0  0  0  0  0  0  0  0  0  0  0  0
   15.0560  -15.7930   21.4770 C   0  0  0  0  0  0  0  0  0  0  0  0
   15.1530  -16.8530   20.8490 O   0  0  0  0  0  0  0  0  0  0  0  0
   13.6850  -15.0940   21.6660 C   0  0  2  0  0  0  0  0  0  0  0  0
   12.4900  -15.9630   21.2480 C   0  0  0  0  0  0  0  0  0  0  0  0
   12.2940  -15.6090   19.7830 C   0  0  0  0  0  0  0  0  0  0  0  0
   12.5570  -14.1160   19.7730 C   0  0  0  0  0  0  0  0  0  0  0  0
   13.5770  -13.9010   20.7980 N   0  0  0  0  0  0  0  0  0  0  0  0
   14.1070  -12.6380   20.9120 C   0  0  0  0  0  0  0  0  0  0  0  0
   14.9320  -12.3940   21.8040 O   0  0  0  0  0  0  0  0  0  0  0  0
   13.5860  -11.4100   20.1280 C   0  0  2  0  0  0  0  0  0  0  0  0
   14.5500  -11.1110   19.0090 N   0  0  0  0  0  0  0  0  0  0  0  0
   13.2130  -10.1230   20.8630 C   0  0  0  0  0  0  0  0  0  0  0  0
   12.4090  -10.2640   22.1350 C   0  0  0  0  0  0  0  0  0  0  0  0
   12.3250   -9.1550   22.9950 C   0  0  0  0  0  0  0  0  0  0  0  0
   11.5880   -9.2190   24.1790 C   0  0  0  0  0  0  0  0  0  0  0  0
   10.9130  -10.3880   24.5150 C   0  0  0  0  0  0  0  0  0  0  0  0
   10.9640  -11.4860   23.6610 C   0  0  0  0  0  0  0  0  0  0  0  0
   11.6980  -11.4240   22.4730 C   0  0  0  0  0  0  0  0  0  0  0  0
   18.2280  -14.5830   23.9290 C   0  0  0  0  0  0  0  0  0  0  0  0
   19.1550  -13.8910   24.7170 C   0  0  0  0  0  0  0  0  0  0  0  0
   22.9400  -13.3670   23.9090 H   0  0  0  0  0  0  0  0  0  0  0  0
   23.3490  -12.3400   25.2390 H   0  0  0  0  0  0  0  0  0  0  0  0
   19.9540  -11.9870   26.2620 H   0  0  0  0  0  0  0  0  0  0  0  0
   21.5790  -11.5480   26.6570 H   0  0  0  0  0  0  0  0  0  0  0  0
   21.5662  -13.3490   22.3679 H   0  0  0  0  0  0  0  0  0  0  0  0
   19.9155  -14.5732   20.9654 H   0  0  0  0  0  0  0  0  0  0  0  0
   17.7759  -15.5233   20.6830 H   0  0  0  0  0  0  0  0  0  0  0  0
   17.5211  -16.6711   22.0579 H   0  0  0  0  0  0  0  0  0  0  0  0
   16.0700  -14.1390   22.2120 H   0  0  0  0  0  0  0  0  0  0  0  0
   13.6488  -14.8635   22.7410 H   0  0  0  0  0  0  0  0  0  0  0  0
   12.7196  -17.0321   21.3675 H   0  0  0  0  0  0  0  0  0  0  0  0
   11.5926  -15.7820   21.8578 H   0  0  0  0  0  0  0  0  0  0  0  0
   13.0121  -16.1442   19.1444 H   0  0  0  0  0  0  0  0  0  0  0  0
   11.3032  -15.8842   19.3923 H   0  0  0  0  0  0  0  0  0  0  0  0
   12.9265  -13.7957   18.7876 H   0  0  0  0  0  0  0  0  0  0  0  0
   11.6440  -13.5358   19.9726 H   0  0  0  0  0  0  0  0  0  0  0  0
   12.5924  -11.7449   19.7955 H   0  0  0  0  0  0  0  0  0  0  0  0
   15.0060  -10.1980   19.0870 H   0  0  0  0  0  0  0  0  0  0  0  0
   14.0520  -11.1540   18.1090 H   0  0  0  0  0  0  0  0  0  0  0  0
   15.2810  -11.8520   18.9650 H   0  0  0  0  0  0  0  0  0  0  0  0
   14.1488   -9.6044   21.1185 H   0  0  0  0  0  0  0  0  0  0  0  0
   12.5543   -9.5801   20.1691 H   0  0  0  0  0  0  0  0  0  0  0  0
   12.8474   -8.2236   22.7312 H   0  0  0  0  0  0  0  0  0  0  0  0
   11.5411   -8.3454   24.8459 H   0  0  0  0  0  0  0  0  0  0  0  0
   10.3407  -10.4445   25.4527 H   0  0  0  0  0  0  0  0  0  0  0  0
   10.4236  -12.4077   23.9225 H   0  0  0  0  0  0  0  0  0  0  0  0
   11.7179  -12.2923   21.7980 H   0  0  0  0  0  0  0  0  0  0  0  0
   17.2799  -14.9205   24.3731 H   0  0  0  0  0  0  0  0  0  0  0  0
   18.9283  -13.6931   25.7750 H   0  0  0  0  0  0  0  0  0  0  0  0
  1  2  1  0
  2  3  2  0
  2  4  1  0
  4  5  2  0
  5  6  1  0
  6  7  2  0
  7  8  1  0
  8  9  1  0
  9 10  1  0
 10 11  2  0
 10 12  1  0
 12 13  1  0
 13 14  1  0
 14 15  1  0
 15 16  1  0
 16 17  1  0
 17 18  2  0
 17 19  1  0
 19 20  1  0
 19 21  1  0
 21 22  1  0
 22 23  2  0
 23 24  1  0
 24 25  2  0
 25 26  1  0
 26 27  2  0
  7 28  1  0
 28 29  2  0
 29  4  1  0
 16 12  1  0
 27 22  1  0
  1 30  1  0
  1 31  1  0
  3 32  1  0
  3 33  1  0
  5 34  1  0
  6 35  1  0
  8 36  1  0
  8 37  1  0
  9 38  1  0
 12 39  1  1
 13 40  1  0
 13 41  1  0
 14 42  1  0
 14 43  1  0
 15 44  1  0
 15 45  1  0
 19 46  1  6
 20 47  1  0
 20 48  1  0
 20 49  1  0
 21 50  1  0
 21 51  1  0
 23 52  1  0
 24 53  1  0
 25 54  1  0
 26 55  1  0
 27 56  1  0
 28 57  1  0
 29 58  1  0
M  CHG  2   3   1  20   1
M  END
>  <meeko>  (8) 
{"is_sidechain": [false], "free_energy": -8.102, "intermolecular_energy": -12.672, "internal_energy": -0.666}

$$$$
2zda_ligand
     RDKit          3D

 58 60  0  0  0  0  0  0  0  0999 V2000
   23.3730  -17.0580   23.0720 N   0  0  0  0  0  0  0  0  0  0  0  0
   22.4300  -16.8220   23.9600 C   0  0  0  0  0  0  0  0  0  0  0  0
   22.7310  -16.4700   25.1920 N   0  0  0  0  0  0  0  0  0  0  0  0
   21.0160  -16.9480   23.5690 C   0  0  0  0  0  0  0  0  0  0  0  0
   20.6390  -16.9230   22.2170 C   0  0  0  0  0  0  0  0  0  0  0  0
   19.2980  -17.0670   21.8430 C   0  0  0  0  0  0  0  0  0  0  0  0
   18.3040  -17.2460   22.8130 C   0  0  0  0  0  0  0  0  0  0  0  0
   16.8590  -17.4270   22.4190 C   0  0  0  0  0  0  0  0  0  0  0  0
   16.1640  -16.1570   22.3820 N   0  0  0  0  0  0  0  0  0  0  0  0
   15.7410  -15.5980   21.2000 C   0  0  0  0  0  0  0  0  0  0  0  0
   15.9690  -16.1250   20.1050 O   0  0  0  0  0  0  0  0  0  0  0  0
   15.0890  -14.1950   21.2950 C   0  0  2  0  0  0  0  0  0  0  0  0
   13.5560  -14.2240   21.2060 C   0  0  0  0  0  0  0  0  0  0  0  0
   13.2890  -14.0750   19.7170 C   0  0  0  0  0  0  0  0  0  0  0  0
   14.3430  -13.0710   19.2970 C   0  0  0  0  0  0  0  0  0  0  0  0
   15.4950  -13.3450   20.1550 N   0  0  0  0  0  0  0  0  0  0  0  0
   16.6580  -12.6590   19.8960 C   0  0  0  0  0  0  0  0  0  0  0  0
   16.9520  -12.3640   18.7290 O   0  0  0  0  0  0  0  0  0  0  0  0
   17.7600  -12.4030   20.9510 C   0  0  2  0  0  0  0  0  0  0  0  0
   18.3460  -11.0360   20.7110 N   0  0  0  0  0  0  0  0  0  0  0  0
   18.8760  -13.4260   21.1680 C   0  0  0  0  0  0  0  0  0  0  0  0
   19.5820  -13.4040   22.5040 C   0  0  0  0  0  0  0  0  0  0  0  0
   18.8150  -13.6090   23.6650 C   0  0  0  0  0  0  0  0  0  0  0  0
   19.4120  -13.6100   24.9270 C   0  0  0  0  0  0  0  0  0  0  0  0
   20.7840  -13.4220   25.0480 C   0  0  0  0  0  0  0  0  0  0  0  0
   21.5610  -13.2440   23.9060 C   0  0  0  0  0  0  0  0  0  0  0  0
   20.9680  -13.2450   22.6410 C   0  0  0  0  0  0  0  0  0  0  0  0
   18.6740  -17.2500   24.1640 C   0  0  0  0  0  0  0  0  0  0  0  0
   20.0150  -17.1050   24.5380 C   0  0  0  0  0  0  0  0  0  0  0  0
   23.1290  -17.3540   22.1330 H   0  0  0  0  0  0  0  0  0  0  0  0
   24.3570  -16.9800   23.2900 H   0  0  0  0  0  0  0  0  0  0  0  0
   21.9940  -16.2630   25.8580 H   0  0  0  0  0  0  0  0  0  0  0  0
   23.6840  -16.3650   25.5130 H   0  0  0  0  0  0  0  0  0  0  0  0
   21.4075  -16.7885   21.4415 H   0  0  0  0  0  0  0  0  0  0  0  0
   19.0226  -17.0393   20.7784 H   0  0  0  0  0  0  0  0  0  0  0  0
   16.8140  -17.8900   21.4222 H   0  0  0  0  0  0  0  0  0  0  0  0
   16.3715  -18.0695   23.1670 H   0  0  0  0  0  0  0  0  0  0  0  0
   16.1900  -15.5950   23.2250 H   0  0  0  0  0  0  0  0  0  0  0  0
   15.4212  -13.8120   22.2712 H   0  0  0  0  0  0  0  0  0  0  0  0
   13.1573  -15.1768   21.5844 H   0  0  0  0  0  0  0  0  0  0  0  0
   13.0750  -13.4405   21.8100 H   0  0  0  0  0  0  0  0  0  0  0  0
   13.4195  -15.0325   19.1914 H   0  0  0  0  0  0  0  0  0  0  0  0
   12.2618  -13.7577   19.4840 H   0  0  0  0  0  0  0  0  0  0  0  0
   14.6083  -13.2099   18.2386 H   0  0  0  0  0  0  0  0  0  0  0  0
   13.9892  -12.0347   19.4013 H   0  0  0  0  0  0  0  0  0  0  0  0
   17.2097  -12.5019   21.8983 H   0  0  0  0  0  0  0  0  0  0  0  0
   19.2630  -11.0510   20.2570 H   0  0  0  0  0  0  0  0  0  0  0  0
   18.4320  -10.5400   21.6090 H   0  0  0  0  0  0  0  0  0  0  0  0
   17.6910  -10.4680   20.1330 H   0  0  0  0  0  0  0  0  0  0  0  0
   18.4369  -14.4267   21.0421 H   0  0  0  0  0  0  0  0  0  0  0  0
   19.6506  -13.1612   20.4333 H   0  0  0  0  0  0  0  0  0  0  0  0
   17.7305  -13.7707   23.5775 H   0  0  0  0  0  0  0  0  0  0  0  0
   18.7963  -13.7597   25.8262 H   0  0  0  0  0  0  0  0  0  0  0  0
   21.2544  -13.4139   26.0423 H   0  0  0  0  0  0  0  0  0  0  0  0
   22.6477  -13.1018   24.0005 H   0  0  0  0  0  0  0  0  0  0  0  0
   21.5939  -13.1200   21.7451 H   0  0  0  0  0  0  0  0  0  0  0  0
   17.9026  -17.3683   24.9392 H   0  0  0  0  0  0  0  0  0  0  0  0
   20.2865  -17.1143   25.6039 H   0  0  0  0  0  0  0  0  0  0  0  0
  1  2  1  0
  2  3  2  0
  2  4  1  0
  4  5  2  0
  5  6  1  0
  6  7  2  0
  7  8  1  0
  8  9  1  0
  9 10  1  0
 10 11  2  0
 10 12  1  0
 12 13  1  0
 13 14  1  0
 14 15  1  0
 15 16  1  0
 16 17  1  0
 17 18  2  0
 17 19  1  0
 19 20  1  0
 19 21  1  0
 21 22  1  0
 22 23  2  0
 23 24  1  0
 24 25  2  0
 25 26  1  0
 26 27  2  0
  7 28  1  0
 28 29  2  0
 29  4  1  0
 16 12  1  0
 27 22  1  0
  1 30  1  0
  1 31  1  0
  3 32  1  0
  3 33  1  0
  5 34  1  0
  6 35  1  0
  8 36  1  0
  8 37  1  0
  9 38  1  0
 12 39  1  1
 13 40  1  0
 13 41  1  0
 14 42  1  0
 14 43  1  0
 15 44  1  0
 15 45  1  0
 19 46  1  1
 20 47  1  0
 20 48  1  0
 20 49  1  0
 21 50  1  0
 21 51  1  0
 23 52  1  0
 24 53  1  0
 25 54  1  0
 26 55  1  0
 27 56  1  0
 28 57  1  0
 29 58  1  0
M  CHG  2   3   1  20   1
M  END
>  <meeko>  (9) 
{"is_sidechain": [false], "free_energy": -7.86, "intermolecular_energy": -9.64, "internal_energy": -3.336}

$$$$
