4twp_ligand
     RDKit          3D

 46 49  0  0  0  0  0  0  0  0999 V2000
   63.5550   21.8710   48.2630 C   0  0  0  0  0  0  0  0  0  0  0  0
   63.7130   20.4820   48.6030 N   0  0  0  0  0  0  0  0  0  0  0  0
   62.6770   19.5880   48.4530 C   0  0  0  0  0  0  0  0  0  0  0  0
   61.6090   19.8710   47.9210 O   0  0  0  0  0  0  0  0  0  0  0  0
   62.9150   18.2010   48.9380 C   0  0  0  0  0  0  0  0  0  0  0  0
   64.1280   17.9930   49.6180 C   0  0  0  0  0  0  0  0  0  0  0  0
   64.4540   16.7350   50.1220 C   0  0  0  0  0  0  0  0  0  0  0  0
   63.5760   15.6700   49.9430 C   0  0  0  0  0  0  0  0  0  0  0  0
   62.3780   15.8630   49.2510 C   0  0  0  0  0  0  0  0  0  0  0  0
   62.0370   17.1230   48.7300 C   0  0  0  0  0  0  0  0  0  0  0  0
   60.5010   17.2310   47.8110 S   0  0  0  0  0  0  0  0  0  0  0  0
   59.4870   16.0830   48.7350 C   0  0  0  0  0  0  0  0  0  0  0  0
   59.3320   16.2160   50.1180 C   0  0  0  0  0  0  0  0  0  0  0  0
   58.5400   15.3160   50.8460 C   0  0  0  0  0  0  0  0  0  0  0  0
   57.9060   14.2500   50.1740 C   0  0  0  0  0  0  0  0  0  0  0  0
   57.0510   13.1560   50.5200 C   0  0  0  0  0  0  0  0  0  0  0  0
   56.5710   12.7990   51.8220 C   0  0  0  0  0  0  0  0  0  0  0  0
   57.1740   13.0620   52.9940 C   0  0  0  0  0  0  0  0  0  0  0  0
   56.6390   12.6580   54.3020 C   0  0  0  0  0  0  0  0  0  0  0  0
   56.1300   11.3740   54.4800 C   0  0  0  0  0  0  0  0  0  0  0  0
   55.6330   11.0130   55.7310 C   0  0  0  0  0  0  0  0  0  0  0  0
   55.6610   11.9380   56.7670 C   0  0  0  0  0  0  0  0  0  0  0  0
   56.1860   13.1920   56.5050 C   0  0  0  0  0  0  0  0  0  0  0  0
   56.6740   13.5670   55.3030 N   0  0  0  0  0  0  0  0  0  0  0  0
   56.6920   12.4590   49.4320 N   0  0  0  0  0  0  0  0  0  0  0  0
   57.3370   13.0610   48.4250 N   0  0  0  0  0  0  0  0  0  0  0  0
   58.0770   14.1480   48.7980 C   0  0  0  0  0  0  0  0  0  0  0  0
   58.8610   15.0340   48.0480 C   0  0  0  0  0  0  0  0  0  0  0  0
   63.4870   22.4685   49.1841 H   0  0  0  0  0  0  0  0  0  0  0  0
   64.4210   22.2048   47.6725 H   0  0  0  0  0  0  0  0  0  0  0  0
   62.6362   22.0017   47.6725 H   0  0  0  0  0  0  0  0  0  0  0  0
   64.4980   20.2160   49.1870 H   0  0  0  0  0  0  0  0  0  0  0  0
   64.8268   18.8316   49.7536 H   0  0  0  0  0  0  0  0  0  0  0  0
   65.4019   16.5844   50.6594 H   0  0  0  0  0  0  0  0  0  0  0  0
   63.8252   14.6773   50.3461 H   0  0  0  0  0  0  0  0  0  0  0  0
   61.6907   15.0155   49.1117 H   0  0  0  0  0  0  0  0  0  0  0  0
   59.8389   17.0390   50.6432 H   0  0  0  0  0  0  0  0  0  0  0  0
   58.4143   15.4404   51.9317 H   0  0  0  0  0  0  0  0  0  0  0  0
   55.6152   12.2564   51.8667 H   0  0  0  0  0  0  0  0  0  0  0  0
   58.1258   13.6131   52.9730 H   0  0  0  0  0  0  0  0  0  0  0  0
   56.1204   10.6562   53.6465 H   0  0  0  0  0  0  0  0  0  0  0  0
   55.2227   10.0059   55.8963 H   0  0  0  0  0  0  0  0  0  0  0  0
   55.2775   11.6818   57.7656 H   0  0  0  0  0  0  0  0  0  0  0  0
   56.2068   13.9260   57.3241 H   0  0  0  0  0  0  0  0  0  0  0  0
   57.2210   12.6830   47.4920 H   0  0  0  0  0  0  0  0  0  0  0  0
   58.9807   14.9111   46.9615 H   0  0  0  0  0  0  0  0  0  0  0  0
  1  2  1  0
  2  3  1  0
  3  4  2  0
  3  5  1  0
  5  6  2  0
  6  7  1  0
  7  8  2  0
  8  9  1  0
  9 10  2  0
 10 11  1  0
 11 12  1  0
 12 13  2  0
 13 14  1  0
 14 15  2  0
 15 16  1  0
 16 17  1  0
 17 18  2  0
 18 19  1  0
 19 20  2  0
 20 21  1  0
 21 22  2  0
 22 23  1  0
 23 24  2  0
 16 25  2  0
 25 26  1  0
 26 27  1  0
 27 28  2  0
 10  5  1  0
 28 12  1  0
 27 15  1  0
 24 19  1  0
  1 29  1  0
  1 30  1  0
  1 31  1  0
  2 32  1  0
  6 33  1  0
  7 34  1  0
  8 35  1  0
  9 36  1  0
 13 37  1  0
 14 38  1  0
 17 39  1  0
 18 40  1  0
 20 41  1  0
 21 42  1  0
 22 43  1  0
 23 44  1  0
 26 45  1  0
 28 46  1  0
M  END
>  <meeko>  (1) 
{"is_sidechain": [false], "free_energy": -11.25, "intermolecular_energy": -14.538, "internal_energy": 0.043}

$$$$
4twp_ligand
     RDKit          3D

 46 49  0  0  0  0  0  0  0  0999 V2000
   64.4120   22.8430   46.7710 C   0  0  0  0  0  0  0  0  0  0  0  0
   64.4860   21.5760   47.4490 N   0  0  0  0  0  0  0  0  0  0  0  0
   63.4090   21.0740   48.1450 C   0  0  0  0  0  0  0  0  0  0  0  0
   62.2980   21.5930   48.1410 O   0  0  0  0  0  0  0  0  0  0  0  0
   63.6300   19.8110   48.9000 C   0  0  0  0  0  0  0  0  0  0  0  0
   64.5730   19.8800   49.9410 C   0  0  0  0  0  0  0  0  0  0  0  0
   64.8560   18.7590   50.7180 C   0  0  0  0  0  0  0  0  0  0  0  0
   64.2080   17.5550   50.4590 C   0  0  0  0  0  0  0  0  0  0  0  0
   63.2850   17.4720   49.4130 C   0  0  0  0  0  0  0  0  0  0  0  0
   62.9920   18.5910   48.6150 C   0  0  0  0  0  0  0  0  0  0  0  0
   61.8350   18.3450   47.2670 S   0  0  0  0  0  0  0  0  0  0  0  0
   60.6940   17.1930   48.0250 C   0  0  0  0  0  0  0  0  0  0  0  0
   60.4420   17.2330   49.3990 C   0  0  0  0  0  0  0  0  0  0  0  0
   59.5500   16.3300   49.9970 C   0  0  0  0  0  0  0  0  0  0  0  0
   58.9140   15.3550   49.2010 C   0  0  0  0  0  0  0  0  0  0  0  0
   57.9790   14.2900   49.3990 C   0  0  0  0  0  0  0  0  0  0  0  0
   57.3830   13.8680   50.6320 C   0  0  0  0  0  0  0  0  0  0  0  0
   58.0310   13.5710   51.7710 C   0  0  0  0  0  0  0  0  0  0  0  0
   57.3650   13.1280   53.0040 C   0  0  0  0  0  0  0  0  0  0  0  0
   57.3580   13.9520   54.1260 C   0  0  0  0  0  0  0  0  0  0  0  0
   56.7150   13.5120   55.2820 C   0  0  0  0  0  0  0  0  0  0  0  0
   56.0990   12.2670   55.2850 C   0  0  0  0  0  0  0  0  0  0  0  0
   56.1520   11.5120   54.1260 C   0  0  0  0  0  0  0  0  0  0  0  0
   56.7670   11.9150   52.9930 N   0  0  0  0  0  0  0  0  0  0  0  0
   57.6670   13.6970   48.2380 N   0  0  0  0  0  0  0  0  0  0  0  0
   58.4170   14.3330   47.3290 N   0  0  0  0  0  0  0  0  0  0  0  0
   59.1830   15.3440   47.8370 C   0  0  0  0  0  0  0  0  0  0  0  0
   60.0680   16.2350   47.2160 C   0  0  0  0  0  0  0  0  0  0  0  0
   64.3647   23.6537   47.5130 H   0  0  0  0  0  0  0  0  0  0  0  0
   65.3040   22.9743   46.1409 H   0  0  0  0  0  0  0  0  0  0  0  0
   63.5108   22.8696   46.1409 H   0  0  0  0  0  0  0  0  0  0  0  0
   65.4010   21.1790   47.6280 H   0  0  0  0  0  0  0  0  0  0  0  0
   65.0922   20.8284   50.1437 H   0  0  0  0  0  0  0  0  0  0  0  0
   65.5901   18.8253   51.5345 H   0  0  0  0  0  0  0  0  0  0  0  0
   64.4219   16.6702   51.0765 H   0  0  0  0  0  0  0  0  0  0  0  0
   62.7800   16.5159   49.2112 H   0  0  0  0  0  0  0  0  0  0  0  0
   60.9508   17.9840   50.0213 H   0  0  0  0  0  0  0  0  0  0  0  0
   59.3486   16.3821   51.0771 H   0  0  0  0  0  0  0  0  0  0  0  0
   56.2868   13.7784   50.6475 H   0  0  0  0  0  0  0  0  0  0  0  0
   59.1269   13.6652   51.7813 H   0  0  0  0  0  0  0  0  0  0  0  0
   57.8519   14.9346   54.1008 H   0  0  0  0  0  0  0  0  0  0  0  0
   56.6957   14.1440   56.1821 H   0  0  0  0  0  0  0  0  0  0  0  0
   55.5842   11.8921   56.1819 H   0  0  0  0  0  0  0  0  0  0  0  0
   55.6646   10.5259   54.1278 H   0  0  0  0  0  0  0  0  0  0  0  0
   58.3540   14.0310   46.3640 H   0  0  0  0  0  0  0  0  0  0  0  0
   60.2640   16.1846   46.1348 H   0  0  0  0  0  0  0  0  0  0  0  0
  1  2  1  0
  2  3  1  0
  3  4  2  0
  3  5  1  0
  5  6  2  0
  6  7  1  0
  7  8  2  0
  8  9  1  0
  9 10  2  0
 10 11  1  0
 11 12  1  0
 12 13  2  0
 13 14  1  0
 14 15  2  0
 15 16  1  0
 16 17  1  0
 17 18  2  0
 18 19  1  0
 19 20  2  0
 20 21  1  0
 21 22  2  0
 22 23  1  0
 23 24  2  0
 16 25  2  0
 25 26  1  0
 26 27  1  0
 27 28  2  0
 10  5  1  0
 28 12  1  0
 27 15  1  0
 24 19  1  0
  1 29  1  0
  1 30  1  0
  1 31  1  0
  2 32  1  0
  6 33  1  0
  7 34  1  0
  8 35  1  0
  9 36  1  0
 13 37  1  0
 14 38  1  0
 17 39  1  0
 18 40  1  0
 20 41  1  0
 21 42  1  0
 22 43  1  0
 23 44  1  0
 26 45  1  0
 28 46  1  0
M  END
>  <meeko>  (2) 
{"is_sidechain": [false], "free_energy": -10.263, "intermolecular_energy": -13.032, "internal_energy": -0.188}

$$$$
4twp_ligand
     RDKit          3D

 46 49  0  0  0  0  0  0  0  0999 V2000
   63.7490   13.6350   50.4600 C   0  0  0  0  0  0  0  0  0  0  0  0
   63.1400   14.8900   50.1050 N   0  0  0  0  0  0  0  0  0  0  0  0
   63.5930   15.6250   49.0320 C   0  0  0  0  0  0  0  0  0  0  0  0
   64.4450   15.2230   48.2470 O   0  0  0  0  0  0  0  0  0  0  0  0
   62.9650   16.9570   48.8220 C   0  0  0  0  0  0  0  0  0  0  0  0
   63.4920   18.0090   49.5920 C   0  0  0  0  0  0  0  0  0  0  0  0
   62.9840   19.3010   49.4740 C   0  0  0  0  0  0  0  0  0  0  0  0
   61.9390   19.5550   48.5910 C   0  0  0  0  0  0  0  0  0  0  0  0
   61.3950   18.5130   47.8360 C   0  0  0  0  0  0  0  0  0  0  0  0
   61.8900   17.2020   47.9490 C   0  0  0  0  0  0  0  0  0  0  0  0
   61.0720   15.9400   46.9720 S   0  0  0  0  0  0  0  0  0  0  0  0
   59.9570   15.2560   48.1930 C   0  0  0  0  0  0  0  0  0  0  0  0
   60.1000   15.5660   49.5490 C   0  0  0  0  0  0  0  0  0  0  0  0
   59.2290   15.0290   50.5080 C   0  0  0  0  0  0  0  0  0  0  0  0
   58.2060   14.1480   50.1000 C   0  0  0  0  0  0  0  0  0  0  0  0
   57.1520   13.4090   50.7250 C   0  0  0  0  0  0  0  0  0  0  0  0
   56.8340   13.3480   52.1210 C   0  0  0  0  0  0  0  0  0  0  0  0
   57.3990   12.5390   53.0330 C   0  0  0  0  0  0  0  0  0  0  0  0
   57.0210   12.5100   54.4530 C   0  0  0  0  0  0  0  0  0  0  0  0
   55.7710   12.0280   54.8310 C   0  0  0  0  0  0  0  0  0  0  0  0
   55.4380   12.0060   56.1850 C   0  0  0  0  0  0  0  0  0  0  0  0
   56.3590   12.4630   57.1190 C   0  0  0  0  0  0  0  0  0  0  0  0
   57.5790   12.9260   56.6570 C   0  0  0  0  0  0  0  0  0  0  0  0
   57.9270   12.9570   55.3520 N   0  0  0  0  0  0  0  0  0  0  0  0
   56.4170   12.7520   49.8160 N   0  0  0  0  0  0  0  0  0  0  0  0
   57.0130   13.0240   48.6480 N   0  0  0  0  0  0  0  0  0  0  0  0
   58.0880   13.8630   48.7450 C   0  0  0  0  0  0  0  0  0  0  0  0
   58.9440   14.3860   47.7670 C   0  0  0  0  0  0  0  0  0  0  0  0
   63.7925   13.5454   51.5555 H   0  0  0  0  0  0  0  0  0  0  0  0
   63.1519   12.8081   50.0479 H   0  0  0  0  0  0  0  0  0  0  0  0
   64.7680   13.5924   50.0479 H   0  0  0  0  0  0  0  0  0  0  0  0
   62.5530   15.3510   50.7910 H   0  0  0  0  0  0  0  0  0  0  0  0
   64.3142   17.8098   50.2951 H   0  0  0  0  0  0  0  0  0  0  0  0
   63.4077   20.1177   50.0770 H   0  0  0  0  0  0  0  0  0  0  0  0
   61.5415   20.5755   48.4875 H   0  0  0  0  0  0  0  0  0  0  0  0
   60.5669   18.7215   47.1426 H   0  0  0  0  0  0  0  0  0  0  0  0
   60.9077   16.2411   49.8682 H   0  0  0  0  0  0  0  0  0  0  0  0
   59.3428   15.2928   51.5698 H   0  0  0  0  0  0  0  0  0  0  0  0
   56.0503   14.0306   52.4814 H   0  0  0  0  0  0  0  0  0  0  0  0
   58.1932   11.8565   52.6962 H   0  0  0  0  0  0  0  0  0  0  0  0
   55.0575   11.6703   54.0740 H   0  0  0  0  0  0  0  0  0  0  0  0
   54.4564   11.6307   56.5100 H   0  0  0  0  0  0  0  0  0  0  0  0
   56.1258   12.4572   58.1940 H   0  0  0  0  0  0  0  0  0  0  0  0
   58.3080   13.2901   57.3959 H   0  0  0  0  0  0  0  0  0  0  0  0
   56.6280   12.6090   47.8080 H   0  0  0  0  0  0  0  0  0  0  0  0
   58.8256   14.1239   46.7053 H   0  0  0  0  0  0  0  0  0  0  0  0
  1  2  1  0
  2  3  1  0
  3  4  2  0
  3  5  1  0
  5  6  2  0
  6  7  1  0
  7  8  2  0
  8  9  1  0
  9 10  2  0
 10 11  1  0
 11 12  1  0
 12 13  2  0
 13 14  1  0
 14 15  2  0
 15 16  1  0
 16 17  1  0
 17 18  2  0
 18 19  1  0
 19 20  2  0
 20 21  1  0
 21 22  2  0
 22 23  1  0
 23 24  2  0
 16 25  2  0
 25 26  1  0
 26 27  1  0
 27 28  2  0
 10  5  1  0
 28 12  1  0
 27 15  1  0
 24 19  1  0
  1 29  1  0
  1 30  1  0
  1 31  1  0
  2 32  1  0
  6 33  1  0
  7 34  1  0
  8 35  1  0
  9 36  1  0
 13 37  1  0
 14 38  1  0
 17 39  1  0
 18 40  1  0
 20 41  1  0
 21 42  1  0
 22 43  1  0
 23 44  1  0
 26 45  1  0
 28 46  1  0
M  END
>  <meeko>  (3) 
{"is_sidechain": [false], "free_energy": -9.809, "intermolecular_energy": -11.984, "internal_energy": -0.649}

$$$$
4twp_ligand
     RDKit          3D

 46 49  0  0  0  0  0  0  0  0999 V2000
   61.7600   17.3230   43.1290 C   0  0  0  0  0  0  0  0  0  0  0  0
   61.7940   17.7140   44.5140 N   0  0  0  0  0  0  0  0  0  0  0  0
   61.4700   16.8260   45.5140 C   0  0  0  0  0  0  0  0  0  0  0  0
   61.2520   15.6350   45.3200 O   0  0  0  0  0  0  0  0  0  0  0  0
   61.4300   17.3660   46.9000 C   0  0  0  0  0  0  0  0  0  0  0  0
   62.6430   17.8810   47.3890 C   0  0  0  0  0  0  0  0  0  0  0  0
   62.7220   18.4180   48.6730 C   0  0  0  0  0  0  0  0  0  0  0  0
   61.5920   18.4390   49.4840 C   0  0  0  0  0  0  0  0  0  0  0  0
   60.3860   17.9110   49.0150 C   0  0  0  0  0  0  0  0  0  0  0  0
   60.2910   17.3590   47.7250 C   0  0  0  0  0  0  0  0  0  0  0  0
   58.7070   16.6600   47.2580 S   0  0  0  0  0  0  0  0  0  0  0  0
   58.4150   15.5630   48.6410 C   0  0  0  0  0  0  0  0  0  0  0  0
   58.8460   15.9000   49.9270 C   0  0  0  0  0  0  0  0  0  0  0  0
   58.6200   15.0410   51.0120 C   0  0  0  0  0  0  0  0  0  0  0  0
   57.9670   13.8100   50.7980 C   0  0  0  0  0  0  0  0  0  0  0  0
   57.5580   12.6910   51.5900 C   0  0  0  0  0  0  0  0  0  0  0  0
   57.7560   12.4960   52.9960 C   0  0  0  0  0  0  0  0  0  0  0  0
   56.8030   12.5050   53.9440 C   0  0  0  0  0  0  0  0  0  0  0  0
   57.0680   12.3130   55.3770 C   0  0  0  0  0  0  0  0  0  0  0  0
   56.2250   11.5090   56.1400 C   0  0  0  0  0  0  0  0  0  0  0  0
   56.5000   11.3380   57.4960 C   0  0  0  0  0  0  0  0  0  0  0  0
   57.6060   11.9710   58.0490 C   0  0  0  0  0  0  0  0  0  0  0  0
   58.3930   12.7510   57.2200 C   0  0  0  0  0  0  0  0  0  0  0  0
   58.1490   12.9320   55.9040 N   0  0  0  0  0  0  0  0  0  0  0  0
   56.9010   11.7860   50.8490 N   0  0  0  0  0  0  0  0  0  0  0  0
   56.9310   12.2900   49.6090 N   0  0  0  0  0  0  0  0  0  0  0  0
   57.5470   13.5060   49.5080 C   0  0  0  0  0  0  0  0  0  0  0  0
   57.7590   14.3470   48.4070 C   0  0  0  0  0  0  0  0  0  0  0  0
   61.6649   16.2294   43.0590 H   0  0  0  0  0  0  0  0  0  0  0  0
   60.8998   17.7982   42.6348 H   0  0  0  0  0  0  0  0  0  0  0  0
   62.6893   17.6426   42.6348 H   0  0  0  0  0  0  0  0  0  0  0  0
   61.8060   18.7030   44.7330 H   0  0  0  0  0  0  0  0  0  0  0  0
   63.5394   17.8601   46.7518 H   0  0  0  0  0  0  0  0  0  0  0  0
   63.6748   18.8238   49.0437 H   0  0  0  0  0  0  0  0  0  0  0  0
   61.6476   18.8710   50.4941 H   0  0  0  0  0  0  0  0  0  0  0  0
   59.4982   17.9274   49.6643 H   0  0  0  0  0  0  0  0  0  0  0  0
   59.3702   16.8531   50.0904 H   0  0  0  0  0  0  0  0  0  0  0  0
   58.9496   15.3254   52.0222 H   0  0  0  0  0  0  0  0  0  0  0  0
   58.7888   12.3220   53.3322 H   0  0  0  0  0  0  0  0  0  0  0  0
   55.7617   12.6658   53.6282 H   0  0  0  0  0  0  0  0  0  0  0  0
   55.3556   11.0165   55.6799 H   0  0  0  0  0  0  0  0  0  0  0  0
   55.8487   10.7091   58.1208 H   0  0  0  0  0  0  0  0  0  0  0  0
   57.8493   11.8555   59.1155 H   0  0  0  0  0  0  0  0  0  0  0  0
   59.2682   13.2528   57.6584 H   0  0  0  0  0  0  0  0  0  0  0  0
   56.4990   11.7530   48.8660 H   0  0  0  0  0  0  0  0  0  0  0  0
   57.4235   14.0636   47.3985 H   0  0  0  0  0  0  0  0  0  0  0  0
  1  2  1  0
  2  3  1  0
  3  4  2  0
  3  5  1  0
  5  6  2  0
  6  7  1  0
  7  8  2  0
  8  9  1  0
  9 10  2  0
 10 11  1  0
 11 12  1  0
 12 13  2  0
 13 14  1  0
 14 15  2  0
 15 16  1  0
 16 17  1  0
 17 18  2  0
 18 19  1  0
 19 20  2  0
 20 21  1  0
 21 22  2  0
 22 23  1  0
 23 24  2  0
 16 25  2  0
 25 26  1  0
 26 27  1  0
 27 28  2  0
 10  5  1  0
 28 12  1  0
 27 15  1  0
 24 19  1  0
  1 29  1  0
  1 30  1  0
  1 31  1  0
  2 32  1  0
  6 33  1  0
  7 34  1  0
  8 35  1  0
  9 36  1  0
 13 37  1  0
 14 38  1  0
 17 39  1  0
 18 40  1  0
 20 41  1  0
 21 42  1  0
 22 43  1  0
 23 44  1  0
 26 45  1  0
 28 46  1  0
M  END
>  <meeko>  (4) 
{"is_sidechain": [false], "free_energy": -9.777, "intermolecular_energy": -12.74, "internal_energy": 0.147}

$$$$
4twp_ligand
     RDKit          3D

 46 49  0  0  0  0  0  0  0  0999 V2000
   54.6630   15.4920   59.8450 C   0  0  0  0  0  0  0  0  0  0  0  0
   54.1830   14.2620   59.2730 N   0  0  0  0  0  0  0  0  0  0  0  0
   53.9160   14.1580   57.9260 C   0  0  0  0  0  0  0  0  0  0  0  0
   54.1750   15.0400   57.1130 O   0  0  0  0  0  0  0  0  0  0  0  0
   53.3190   12.8770   57.4600 C   0  0  0  0  0  0  0  0  0  0  0  0
   51.9190   12.8640   57.3420 C   0  0  0  0  0  0  0  0  0  0  0  0
   51.2520   11.7190   56.9090 C   0  0  0  0  0  0  0  0  0  0  0  0
   51.9770   10.5740   56.5970 C   0  0  0  0  0  0  0  0  0  0  0  0
   53.3680   10.5700   56.7310 C   0  0  0  0  0  0  0  0  0  0  0  0
   54.0550   11.7140   57.1730 C   0  0  0  0  0  0  0  0  0  0  0  0
   55.8330   11.5680   57.3600 S   0  0  0  0  0  0  0  0  0  0  0  0
   56.3790   12.1900   55.7730 C   0  0  0  0  0  0  0  0  0  0  0  0
   57.0120   13.4310   55.6690 C   0  0  0  0  0  0  0  0  0  0  0  0
   57.4390   13.9220   54.4260 C   0  0  0  0  0  0  0  0  0  0  0  0
   57.2070   13.1600   53.2630 C   0  0  0  0  0  0  0  0  0  0  0  0
   57.4650   13.2860   51.8610 C   0  0  0  0  0  0  0  0  0  0  0  0
   58.0940   14.3800   51.1820 C   0  0  0  0  0  0  0  0  0  0  0  0
   58.2650   14.5030   49.8550 C   0  0  0  0  0  0  0  0  0  0  0  0
   58.9320   15.6450   49.2150 C   0  0  0  0  0  0  0  0  0  0  0  0
   59.9530   16.3180   49.8800 C   0  0  0  0  0  0  0  0  0  0  0  0
   60.5740   17.3950   49.2500 C   0  0  0  0  0  0  0  0  0  0  0  0
   60.1610   17.7680   47.9770 C   0  0  0  0  0  0  0  0  0  0  0  0
   59.1390   17.0440   47.3860 C   0  0  0  0  0  0  0  0  0  0  0  0
   58.5220   15.9970   47.9740 N   0  0  0  0  0  0  0  0  0  0  0  0
   57.0620   12.1940   51.1950 N   0  0  0  0  0  0  0  0  0  0  0  0
   56.5160   11.4130   52.1360 N   0  0  0  0  0  0  0  0  0  0  0  0
   56.5770   11.9280   53.4010 C   0  0  0  0  0  0  0  0  0  0  0  0
   56.1430   11.4150   54.6300 C   0  0  0  0  0  0  0  0  0  0  0  0
   54.6354   15.4214   60.9424 H   0  0  0  0  0  0  0  0  0  0  0  0
   55.6969   15.6709   59.5149 H   0  0  0  0  0  0  0  0  0  0  0  0
   54.0236   16.3240   59.5149 H   0  0  0  0  0  0  0  0  0  0  0  0
   53.8000   13.5590   59.8950 H   0  0  0  0  0  0  0  0  0  0  0  0
   51.3432   13.7668   57.5939 H   0  0  0  0  0  0  0  0  0  0  0  0
   50.1561   11.7212   56.8145 H   0  0  0  0  0  0  0  0  0  0  0  0
   51.4557    9.6717   56.2448 H   0  0  0  0  0  0  0  0  0  0  0  0
   53.9335    9.6585   56.4871 H   0  0  0  0  0  0  0  0  0  0  0  0
   57.1781   14.0321   56.5751 H   0  0  0  0  0  0  0  0  0  0  0  0
   57.9506   14.8935   54.3596 H   0  0  0  0  0  0  0  0  0  0  0  0
   58.4743   15.1999   51.8090 H   0  0  0  0  0  0  0  0  0  0  0  0
   57.8823   13.6997   49.2083 H   0  0  0  0  0  0  0  0  0  0  0  0
   60.2649   16.0046   50.8872 H   0  0  0  0  0  0  0  0  0  0  0  0
   61.3824   17.9438   49.7552 H   0  0  0  0  0  0  0  0  0  0  0  0
   60.6319   18.6134   47.4540 H   0  0  0  0  0  0  0  0  0  0  0  0
   58.8107   17.3393   46.3785 H   0  0  0  0  0  0  0  0  0  0  0  0
   56.1230   10.5250   51.8490 H   0  0  0  0  0  0  0  0  0  0  0  0
   55.6362   10.4409   54.6952 H   0  0  0  0  0  0  0  0  0  0  0  0
  1  2  1  0
  2  3  1  0
  3  4  2  0
  3  5  1  0
  5  6  2  0
  6  7  1  0
  7  8  2  0
  8  9  1  0
  9 10  2  0
 10 11  1  0
 11 12  1  0
 12 13  2  0
 13 14  1  0
 14 15  2  0
 15 16  1  0
 16 17  1  0
 17 18  2  0
 18 19  1  0
 19 20  2  0
 20 21  1  0
 21 22  2  0
 22 23  1  0
 23 24  2  0
 16 25  2  0
 25 26  1  0
 26 27  1  0
 27 28  2  0
 10  5  1  0
 28 12  1  0
 27 15  1  0
 24 19  1  0
  1 29  1  0
  1 30  1  0
  1 31  1  0
  2 32  1  0
  6 33  1  0
  7 34  1  0
  8 35  1  0
  9 36  1  0
 13 37  1  0
 14 38  1  0
 17 39  1  0
 18 40  1  0
 20 41  1  0
 21 42  1  0
 22 43  1  0
 23 44  1  0
 26 45  1  0
 28 46  1  0
M  END
>  <meeko>  (5) 
{"is_sidechain": [false], "free_energy": -9.483, "intermolecular_energy": -11.22, "internal_energy": -0.992}

$$$$
4twp_ligand
     RDKit          3D

 46 49  0  0  0  0  0  0  0  0999 V2000
   59.2230   11.9760   58.9010 C   0  0  0  0  0  0  0  0  0  0  0  0
   58.0770   12.8100   58.6540 N   0  0  0  0  0  0  0  0  0  0  0  0
   56.8120   12.4140   59.0280 C   0  0  0  0  0  0  0  0  0  0  0  0
   56.5850   11.4060   59.6890 O   0  0  0  0  0  0  0  0  0  0  0  0
   55.6880   13.3010   58.6240 C   0  0  0  0  0  0  0  0  0  0  0  0
   55.4820   14.4320   59.4340 C   0  0  0  0  0  0  0  0  0  0  0  0
   54.4600   15.3350   59.1480 C   0  0  0  0  0  0  0  0  0  0  0  0
   53.6290   15.1150   58.0550 C   0  0  0  0  0  0  0  0  0  0  0  0
   53.8120   13.9840   57.2550 C   0  0  0  0  0  0  0  0  0  0  0  0
   54.8330   13.0580   57.5340 C   0  0  0  0  0  0  0  0  0  0  0  0
   54.9320   11.6170   56.4720 S   0  0  0  0  0  0  0  0  0  0  0  0
   55.9060   12.2730   55.1230 C   0  0  0  0  0  0  0  0  0  0  0  0
   56.6440   13.4500   55.2770 C   0  0  0  0  0  0  0  0  0  0  0  0
   57.4070   13.9680   54.2200 C   0  0  0  0  0  0  0  0  0  0  0  0
   57.4120   13.3020   52.9770 C   0  0  0  0  0  0  0  0  0  0  0  0
   58.0220   13.4830   51.6960 C   0  0  0  0  0  0  0  0  0  0  0  0
   58.8870   14.5480   51.2820 C   0  0  0  0  0  0  0  0  0  0  0  0
   59.4900   14.6670   50.0870 C   0  0  0  0  0  0  0  0  0  0  0  0
   60.3810   15.7780   49.7230 C   0  0  0  0  0  0  0  0  0  0  0  0
   59.8460   17.0190   49.3880 C   0  0  0  0  0  0  0  0  0  0  0  0
   60.7120   18.0590   49.0520 C   0  0  0  0  0  0  0  0  0  0  0  0
   62.0820   17.8310   49.0600 C   0  0  0  0  0  0  0  0  0  0  0  0
   62.5300   16.5680   49.4060 C   0  0  0  0  0  0  0  0  0  0  0  0
   61.7130   15.5440   49.7370 N   0  0  0  0  0  0  0  0  0  0  0  0
   57.7110   12.4780   50.8640 N   0  0  0  0  0  0  0  0  0  0  0  0
   56.8860   11.7010   51.5780 N   0  0  0  0  0  0  0  0  0  0  0  0
   56.6700   12.1320   52.8570 C   0  0  0  0  0  0  0  0  0  0  0  0
   55.9020   11.5930   53.8970 C   0  0  0  0  0  0  0  0  0  0  0  0
   59.3711   11.8682   59.9856 H   0  0  0  0  0  0  0  0  0  0  0  0
   59.0586   10.9849   58.4531 H   0  0  0  0  0  0  0  0  0  0  0  0
   60.1155   12.4373   58.4531 H   0  0  0  0  0  0  0  0  0  0  0  0
   58.1660   13.5640   57.9820 H   0  0  0  0  0  0  0  0  0  0  0  0
   56.1345   14.6056   60.3024 H   0  0  0  0  0  0  0  0  0  0  0  0
   54.3110   16.2193   59.7850 H   0  0  0  0  0  0  0  0  0  0  0  0
   52.8277   15.8311   57.8202 H   0  0  0  0  0  0  0  0  0  0  0  0
   53.1478   13.8155   56.3945 H   0  0  0  0  0  0  0  0  0  0  0  0
   56.6262   13.9781   56.2418 H   0  0  0  0  0  0  0  0  0  0  0  0
   57.9966   14.8861   54.3596 H   0  0  0  0  0  0  0  0  0  0  0  0
   59.0759   15.3466   52.0145 H   0  0  0  0  0  0  0  0  0  0  0  0
   59.3056   13.8853   49.3353 H   0  0  0  0  0  0  0  0  0  0  0  0
   58.7573   17.1766   49.3884 H   0  0  0  0  0  0  0  0  0  0  0  0
   60.3145   19.0489   48.7836 H   0  0  0  0  0  0  0  0  0  0  0  0
   62.7904   18.6310   48.7989 H   0  0  0  0  0  0  0  0  0  0  0  0
   63.6150   16.3872   49.4119 H   0  0  0  0  0  0  0  0  0  0  0  0
   56.5060   10.8740   51.1320 H   0  0  0  0  0  0  0  0  0  0  0  0
   55.3180   10.6714   53.7571 H   0  0  0  0  0  0  0  0  0  0  0  0
  1  2  1  0
  2  3  1  0
  3  4  2  0
  3  5  1  0
  5  6  2  0
  6  7  1  0
  7  8  2  0
  8  9  1  0
  9 10  2  0
 10 11  1  0
 11 12  1  0
 12 13  2  0
 13 14  1  0
 14 15  2  0
 15 16  1  0
 16 17  1  0
 17 18  2  0
 18 19  1  0
 19 20  2  0
 20 21  1  0
 21 22  2  0
 22 23  1  0
 23 24  2  0
 16 25  2  0
 25 26  1  0
 26 27  1  0
 27 28  2  0
 10  5  1  0
 28 12  1  0
 27 15  1  0
 24 19  1  0
  1 29  1  0
  1 30  1  0
  1 31  1  0
  2 32  1  0
  6 33  1  0
  7 34  1  0
  8 35  1  0
  9 36  1  0
 13 37  1  0
 14 38  1  0
 17 39  1  0
 18 40  1  0
 20 41  1  0
 21 42  1  0
 22 43  1  0
 23 44  1  0
 26 45  1  0
 28 46  1  0
M  END
>  <meeko>  (6) 
{"is_sidechain": [false], "free_energy": -9.413, "intermolecular_energy": -11.238, "internal_energy": -0.884}

$$$$
4twp_ligand
     RDKit          3D

 46 49  0  0  0  0  0  0  0  0999 V2000
   66.1690   24.4230   43.8090 C   0  0  0  0  0  0  0  0  0  0  0  0
   65.1370   24.7240   44.7650 N   0  0  0  0  0  0  0  0  0  0  0  0
   64.3260   23.7350   45.2760 C   0  0  0  0  0  0  0  0  0  0  0  0
   64.4930   22.5400   45.0550 O   0  0  0  0  0  0  0  0  0  0  0  0
   63.2210   24.1730   46.1710 C   0  0  0  0  0  0  0  0  0  0  0  0
   62.1260   24.7840   45.5360 C   0  0  0  0  0  0  0  0  0  0  0  0
   61.0320   25.2280   46.2750 C   0  0  0  0  0  0  0  0  0  0  0  0
   61.0240   25.0760   47.6580 C   0  0  0  0  0  0  0  0  0  0  0  0
   62.1170   24.4880   48.3010 C   0  0  0  0  0  0  0  0  0  0  0  0
   63.2320   24.0410   47.5710 C   0  0  0  0  0  0  0  0  0  0  0  0
   64.5960   23.3580   48.5130 S   0  0  0  0  0  0  0  0  0  0  0  0
   64.0410   21.6690   48.7120 C   0  0  0  0  0  0  0  0  0  0  0  0
   62.8160   21.2500   48.1860 C   0  0  0  0  0  0  0  0  0  0  0  0
   62.3770   19.9270   48.3420 C   0  0  0  0  0  0  0  0  0  0  0  0
   63.1760   19.0120   49.0580 C   0  0  0  0  0  0  0  0  0  0  0  0
   63.1050   17.6330   49.4350 C   0  0  0  0  0  0  0  0  0  0  0  0
   62.0470   16.7050   49.1640 C   0  0  0  0  0  0  0  0  0  0  0  0
   60.7420   16.8860   49.4260 C   0  0  0  0  0  0  0  0  0  0  0  0
   59.7000   15.8890   49.1370 C   0  0  0  0  0  0  0  0  0  0  0  0
   59.0650   15.2230   50.1820 C   0  0  0  0  0  0  0  0  0  0  0  0
   58.0770   14.2870   49.8830 C   0  0  0  0  0  0  0  0  0  0  0  0
   57.7500   14.0440   48.5550 C   0  0  0  0  0  0  0  0  0  0  0  0
   58.4290   14.7510   47.5780 C   0  0  0  0  0  0  0  0  0  0  0  0
   59.3900   15.6630   47.8400 N   0  0  0  0  0  0  0  0  0  0  0  0
   64.2120   17.2520   50.0900 N   0  0  0  0  0  0  0  0  0  0  0  0
   64.9490   18.3680   50.1710 N   0  0  0  0  0  0  0  0  0  0  0  0
   64.3910   19.4580   49.5660 C   0  0  0  0  0  0  0  0  0  0  0  0
   64.8520   20.7730   49.4220 C   0  0  0  0  0  0  0  0  0  0  0  0
   67.0936   24.1533   44.3403 H   0  0  0  0  0  0  0  0  0  0  0  0
   65.8497   23.5805   43.1778 H   0  0  0  0  0  0  0  0  0  0  0  0
   66.3527   25.3050   43.1778 H   0  0  0  0  0  0  0  0  0  0  0  0
   64.8420   25.6880   44.8660 H   0  0  0  0  0  0  0  0  0  0  0  0
   62.1331   24.9129   44.4436 H   0  0  0  0  0  0  0  0  0  0  0  0
   60.1769   25.6974   45.7667 H   0  0  0  0  0  0  0  0  0  0  0  0
   60.1587   25.4181   48.2446 H   0  0  0  0  0  0  0  0  0  0  0  0
   62.1044   24.3733   49.3949 H   0  0  0  0  0  0  0  0  0  0  0  0
   62.1863   21.9688   47.6412 H   0  0  0  0  0  0  0  0  0  0  0  0
   61.4178   19.6061   47.9096 H   0  0  0  0  0  0  0  0  0  0  0  0
   62.3314   15.7512   48.6956 H   0  0  0  0  0  0  0  0  0  0  0  0
   60.4340   17.8373   49.8844 H   0  0  0  0  0  0  0  0  0  0  0  0
   59.3388   15.4324   51.2266 H   0  0  0  0  0  0  0  0  0  0  0  0
   57.5614   13.7461   50.6902 H   0  0  0  0  0  0  0  0  0  0  0  0
   56.9743   13.3113   48.2878 H   0  0  0  0  0  0  0  0  0  0  0  0
   58.1707   14.5588   46.5262 H   0  0  0  0  0  0  0  0  0  0  0  0
   65.8400   18.3160   50.6510 H   0  0  0  0  0  0  0  0  0  0  0  0
   65.8143   21.0905   49.8500 H   0  0  0  0  0  0  0  0  0  0  0  0
  1  2  1  0
  2  3  1  0
  3  4  2  0
  3  5  1  0
  5  6  2  0
  6  7  1  0
  7  8  2  0
  8  9  1  0
  9 10  2  0
 10 11  1  0
 11 12  1  0
 12 13  2  0
 13 14  1  0
 14 15  2  0
 15 16  1  0
 16 17  1  0
 17 18  2  0
 18 19  1  0
 19 20  2  0
 20 21  1  0
 21 22  2  0
 22 23  1  0
 23 24  2  0
 16 25  2  0
 25 26  1  0
 26 27  1  0
 27 28  2  0
 10  5  1  0
 28 12  1  0
 27 15  1  0
 24 19  1  0
  1 29  1  0
  1 30  1  0
  1 31  1  0
  2 32  1  0
  6 33  1  0
  7 34  1  0
  8 35  1  0
  9 36  1  0
 13 37  1  0
 14 38  1  0
 17 39  1  0
 18 40  1  0
 20 41  1  0
 21 42  1  0
 22 43  1  0
 23 44  1  0
 26 45  1  0
 28 46  1  0
M  END
>  <meeko>  (7) 
{"is_sidechain": [false], "free_energy": -9.361, "intermolecular_energy": -11.222, "internal_energy": -0.833}

$$$$
4twp_ligand
     RDKit          3D

 46 49  0  0  0  0  0  0  0  0999 V2000
   52.5310   14.7080   59.8050 C   0  0  0  0  0  0  0  0  0  0  0  0
   53.7410   13.9290   59.8020 N   0  0  0  0  0  0  0  0  0  0  0  0
   54.7060   14.1140   58.8370 C   0  0  0  0  0  0  0  0  0  0  0  0
   54.6680   15.0120   58.0030 O   0  0  0  0  0  0  0  0  0  0  0  0
   55.8640   13.1800   58.8630 C   0  0  0  0  0  0  0  0  0  0  0  0
   56.8280   13.4300   59.8550 C   0  0  0  0  0  0  0  0  0  0  0  0
   57.9520   12.6150   59.9760 C   0  0  0  0  0  0  0  0  0  0  0  0
   58.1290   11.5480   59.1020 C   0  0  0  0  0  0  0  0  0  0  0  0
   57.1870   11.3030   58.0990 C   0  0  0  0  0  0  0  0  0  0  0  0
   56.0510   12.1190   57.9590 C   0  0  0  0  0  0  0  0  0  0  0  0
   54.9450   11.7410   56.5990 S   0  0  0  0  0  0  0  0  0  0  0  0
   55.9030   12.3580   55.2190 C   0  0  0  0  0  0  0  0  0  0  0  0
   56.6680   13.5220   55.3410 C   0  0  0  0  0  0  0  0  0  0  0  0
   57.4180   14.0100   54.2610 C   0  0  0  0  0  0  0  0  0  0  0  0
   57.3820   13.3260   53.0280 C   0  0  0  0  0  0  0  0  0  0  0  0
   57.9680   13.4770   51.7310 C   0  0  0  0  0  0  0  0  0  0  0  0
   58.8450   14.5180   51.2830 C   0  0  0  0  0  0  0  0  0  0  0  0
   59.2750   14.7130   50.0250 C   0  0  0  0  0  0  0  0  0  0  0  0
   60.1880   15.7930   49.6260 C   0  0  0  0  0  0  0  0  0  0  0  0
   59.6780   16.9860   49.1220 C   0  0  0  0  0  0  0  0  0  0  0  0
   60.5650   17.9970   48.7560 C   0  0  0  0  0  0  0  0  0  0  0  0
   61.9310   17.7910   48.9050 C   0  0  0  0  0  0  0  0  0  0  0  0
   62.3530   16.5750   49.4150 C   0  0  0  0  0  0  0  0  0  0  0  0
   61.5160   15.5800   49.7780 N   0  0  0  0  0  0  0  0  0  0  0  0
   57.6190   12.4660   50.9210 N   0  0  0  0  0  0  0  0  0  0  0  0
   56.7940   11.7170   51.6630 N   0  0  0  0  0  0  0  0  0  0  0  0
   56.6150   12.1700   52.9400 C   0  0  0  0  0  0  0  0  0  0  0  0
   55.8580   11.6610   54.0040 C   0  0  0  0  0  0  0  0  0  0  0  0
   52.2245   14.9053   60.8429 H   0  0  0  0  0  0  0  0  0  0  0  0
   52.7080   15.6622   59.2872 H   0  0  0  0  0  0  0  0  0  0  0  0
   51.7356   14.1519   59.2872 H   0  0  0  0  0  0  0  0  0  0  0  0
   53.7660   13.0770   60.3500 H   0  0  0  0  0  0  0  0  0  0  0  0
   56.6938   14.2778   60.5430 H   0  0  0  0  0  0  0  0  0  0  0  0
   58.6968   12.8151   60.7604 H   0  0  0  0  0  0  0  0  0  0  0  0
   59.0102   10.8969   59.2000 H   0  0  0  0  0  0  0  0  0  0  0  0
   57.3367   10.4594   57.4091 H   0  0  0  0  0  0  0  0  0  0  0  0
   56.6818   14.0632   56.2986 H   0  0  0  0  0  0  0  0  0  0  0  0
   58.0287   14.9178   54.3745 H   0  0  0  0  0  0  0  0  0  0  0  0
   59.2014   15.2276   52.0442 H   0  0  0  0  0  0  0  0  0  0  0  0
   58.9218   14.0215   49.2458 H   0  0  0  0  0  0  0  0  0  0  0  0
   58.5926   17.1286   49.0143 H   0  0  0  0  0  0  0  0  0  0  0  0
   60.1874   18.9484   48.3532 H   0  0  0  0  0  0  0  0  0  0  0  0
   62.6553   18.5705   48.6262 H   0  0  0  0  0  0  0  0  0  0  0  0
   63.4343   16.4099   49.5313 H   0  0  0  0  0  0  0  0  0  0  0  0
   56.3880   10.8920   51.2380 H   0  0  0  0  0  0  0  0  0  0  0  0
   55.2522   10.7500   53.8899 H   0  0  0  0  0  0  0  0  0  0  0  0
  1  2  1  0
  2  3  1  0
  3  4  2  0
  3  5  1  0
  5  6  2  0
  6  7  1  0
  7  8  2  0
  8  9  1  0
  9 10  2  0
 10 11  1  0
 11 12  1  0
 12 13  2  0
 13 14  1  0
 14 15  2  0
 15 16  1  0
 16 17  1  0
 17 18  2  0
 18 19  1  0
 19 20  2  0
 20 21  1  0
 21 22  2  0
 22 23  1  0
 23 24  2  0
 16 25  2  0
 25 26  1  0
 26 27  1  0
 27 28  2  0
 10  5  1  0
 28 12  1  0
 27 15  1  0
 24 19  1  0
  1 29  1  0
  1 30  1  0
  1 31  1  0
  2 32  1  0
  6 33  1  0
  7 34  1  0
  8 35  1  0
  9 36  1  0
 13 37  1  0
 14 38  1  0
 17 39  1  0
 18 40  1  0
 20 41  1  0
 21 42  1  0
 22 43  1  0
 23 44  1  0
 26 45  1  0
 28 46  1  0
M  END
>  <meeko>  (8) 
{"is_sidechain": [false], "free_energy": -9.304, "intermolecular_energy": -11.033, "internal_energy": -0.948}

$$$$
4twp_ligand
     RDKit          3D

 46 49  0  0  0  0  0  0  0  0999 V2000
   54.1140    6.9970   58.1040 C   0  0  0  0  0  0  0  0  0  0  0  0
   55.3700    7.6900   57.9830 N   0  0  0  0  0  0  0  0  0  0  0  0
   55.6650    8.7760   58.7760 C   0  0  0  0  0  0  0  0  0  0  0  0
   54.9550    9.1520   59.7030 O   0  0  0  0  0  0  0  0  0  0  0  0
   56.9420    9.4840   58.4920 C   0  0  0  0  0  0  0  0  0  0  0  0
   58.1070    8.8570   58.9680 C   0  0  0  0  0  0  0  0  0  0  0  0
   59.3600    9.4270   58.7540 C   0  0  0  0  0  0  0  0  0  0  0  0
   59.4630   10.6340   58.0690 C   0  0  0  0  0  0  0  0  0  0  0  0
   58.3100   11.2750   57.6100 C   0  0  0  0  0  0  0  0  0  0  0  0
   57.0370   10.7170   57.8230 C   0  0  0  0  0  0  0  0  0  0  0  0
   55.6300   11.6620   57.2380 S   0  0  0  0  0  0  0  0  0  0  0  0
   56.2610   12.2490   55.6700 C   0  0  0  0  0  0  0  0  0  0  0  0
   56.8710   13.5030   55.5660 C   0  0  0  0  0  0  0  0  0  0  0  0
   57.3640   13.9670   54.3380 C   0  0  0  0  0  0  0  0  0  0  0  0
   57.2240   13.1640   53.1870 C   0  0  0  0  0  0  0  0  0  0  0  0
   57.5680   13.2540   51.8010 C   0  0  0  0  0  0  0  0  0  0  0  0
   58.2130   14.3430   51.1290 C   0  0  0  0  0  0  0  0  0  0  0  0
   58.2390   14.5580   49.8030 C   0  0  0  0  0  0  0  0  0  0  0  0
   58.9310   15.6880   49.1670 C   0  0  0  0  0  0  0  0  0  0  0  0
   59.9200   16.3790   49.8610 C   0  0  0  0  0  0  0  0  0  0  0  0
   60.5660   17.4440   49.2350 C   0  0  0  0  0  0  0  0  0  0  0  0
   60.2080   17.7870   47.9370 C   0  0  0  0  0  0  0  0  0  0  0  0
   59.2150   17.0470   47.3190 C   0  0  0  0  0  0  0  0  0  0  0  0
   58.5750   16.0110   47.9020 N   0  0  0  0  0  0  0  0  0  0  0  0
   57.2330   12.1330   51.1460 N   0  0  0  0  0  0  0  0  0  0  0  0
   56.6480   11.3670   52.0750 N   0  0  0  0  0  0  0  0  0  0  0  0
   56.6160   11.9210   53.3240 C   0  0  0  0  0  0  0  0  0  0  0  0
   56.1170   11.4340   54.5390 C   0  0  0  0  0  0  0  0  0  0  0  0
   53.8704    6.8626   59.1682 H   0  0  0  0  0  0  0  0  0  0  0  0
   53.3220    7.5858   57.6181 H   0  0  0  0  0  0  0  0  0  0  0  0
   54.1898    6.0130   57.6181 H   0  0  0  0  0  0  0  0  0  0  0  0
   55.9230    7.5390   57.1480 H   0  0  0  0  0  0  0  0  0  0  0  0
   58.0282    7.9061   59.5153 H   0  0  0  0  0  0  0  0  0  0  0  0
   60.2653    8.9245   59.1254 H   0  0  0  0  0  0  0  0  0  0  0  0
   60.4511   11.0826   57.8893 H   0  0  0  0  0  0  0  0  0  0  0  0
   58.3992   12.2312   57.0736 H   0  0  0  0  0  0  0  0  0  0  0  0
   56.9656   14.1352   56.4612 H   0  0  0  0  0  0  0  0  0  0  0  0
   57.8557   14.9488   54.2729 H   0  0  0  0  0  0  0  0  0  0  0  0
   58.7383   15.0745   51.7606 H   0  0  0  0  0  0  0  0  0  0  0  0
   57.7101   13.8448   49.1537 H   0  0  0  0  0  0  0  0  0  0  0  0
   60.1878   16.0892   50.8878 H   0  0  0  0  0  0  0  0  0  0  0  0
   61.3503   18.0065   49.7627 H   0  0  0  0  0  0  0  0  0  0  0  0
   60.6993   18.6220   47.4160 H   0  0  0  0  0  0  0  0  0  0  0  0
   58.9303   17.3191   46.2919 H   0  0  0  0  0  0  0  0  0  0  0  0
   56.2940   10.4610   51.7920 H   0  0  0  0  0  0  0  0  0  0  0  0
   55.6307   10.4494   54.6029 H   0  0  0  0  0  0  0  0  0  0  0  0
  1  2  1  0
  2  3  1  0
  3  4  2  0
  3  5  1  0
  5  6  2  0
  6  7  1  0
  7  8  2  0
  8  9  1  0
  9 10  2  0
 10 11  1  0
 11 12  1  0
 12 13  2  0
 13 14  1  0
 14 15  2  0
 15 16  1  0
 16 17  1  0
 17 18  2  0
 18 19  1  0
 19 20  2  0
 20 21  1  0
 21 22  2  0
 22 23  1  0
 23 24  2  0
 16 25  2  0
 25 26  1  0
 26 27  1  0
 27 28  2  0
 10  5  1  0
 28 12  1  0
 27 15  1  0
 24 19  1  0
  1 29  1  0
  1 30  1  0
  1 31  1  0
  2 32  1  0
  6 33  1  0
  7 34  1  0
  8 35  1  0
  9 36  1  0
 13 37  1  0
 14 38  1  0
 17 39  1  0
 18 40  1  0
 20 41  1  0
 21 42  1  0
 22 43  1  0
 23 44  1  0
 26 45  1  0
 28 46  1  0
M  END
>  <meeko>  (9) 
{"is_sidechain": [false], "free_energy": -9.272, "intermolecular_energy": -11.172, "internal_energy": -0.768}

$$$$
