3e93_ligand
     RDKit          3D

 70 75  0  0  0  0  0  0  0  0999 V2000
   39.6170   32.8940   30.6470 C   0  0  0  0  0  0  0  0  0  0  0  0
   39.8030   32.1000   31.9150 C   0  0  0  0  0  0  0  0  0  0  0  0
   38.6760   31.5180   32.5190 C   0  0  0  0  0  0  0  0  0  0  0  0
   38.7940   30.7670   33.6910 C   0  0  0  0  0  0  0  0  0  0  0  0
   40.0480   30.6010   34.2840 C   0  0  0  0  0  0  0  0  0  0  0  0
   40.2370   29.7970   35.5250 C   0  0  0  0  0  0  0  0  0  0  0  0
   41.2270   30.0260   36.2100 O   0  0  0  0  0  0  0  0  0  0  0  0
   39.2270   28.8900   35.7910 N   0  0  0  0  0  0  0  0  0  0  0  0
   39.1610   27.9670   36.8590 C   0  0  0  0  0  0  0  0  0  0  0  0
   38.7210   26.6790   36.5570 C   0  0  0  0  0  0  0  0  0  0  0  0
   38.6360   25.7170   37.5600 C   0  0  0  0  0  0  0  0  0  0  0  0
   38.9970   26.0410   38.8710 C   0  0  0  0  0  0  0  0  0  0  0  0
   39.4530   27.3210   39.2190 C   0  0  0  0  0  0  0  0  0  0  0  0
   39.8090   27.6360   40.5200 N   0  0  0  0  0  0  0  0  0  0  0  0
   40.8720   28.6050   40.8310 C   0  0  0  0  0  0  0  0  0  0  0  0
   40.5920   29.2840   42.1840 C   0  0  0  0  0  0  0  0  0  0  0  0
   40.4980   28.3730   43.2880 O   0  0  0  0  0  0  0  0  0  0  0  0
   40.0180   27.0750   42.9120 C   0  0  0  0  0  0  0  0  0  0  0  0
   39.0970   27.0760   41.6810 C   0  0  0  0  0  0  0  0  0  0  0  0
   39.5250   28.2690   38.1790 C   0  0  0  0  0  0  0  0  0  0  0  0
   41.1770   31.1730   33.6860 C   0  0  0  0  0  0  0  0  0  0  0  0
   41.0760   31.9320   32.5060 C   0  0  0  0  0  0  0  0  0  0  0  0
   42.3020   32.5080   31.9300 C   0  0  0  0  0  0  0  0  0  0  0  0
   43.0450   31.7770   30.9820 C   0  0  0  0  0  0  0  0  0  0  0  0
   44.2350   32.2750   30.4240 C   0  0  0  0  0  0  0  0  0  0  0  0
   44.6830   33.5390   30.8370 C   0  0  0  0  0  0  0  0  0  0  0  0
   45.7790   34.4000   30.5710 C   0  0  0  0  0  0  0  0  0  0  0  0
   46.9440   34.1820   29.6550 C   0  0  0  0  0  0  0  0  0  0  0  0
   47.8820   33.0910   30.2030 C   0  0  0  0  0  0  0  0  0  0  0  0
   49.1080   32.9080   29.3260 C   0  0  0  0  0  0  0  0  0  0  0  0
   49.7930   34.2210   29.1590 N   0  0  0  0  0  0  0  0  0  0  0  0
   48.9370   35.2720   28.5360 C   0  0  0  0  0  0  0  0  0  0  0  0
   47.7100   35.4930   29.4000 C   0  0  0  0  0  0  0  0  0  0  0  0
   45.6980   35.5340   31.2790 N   0  0  0  0  0  0  0  0  0  0  0  0
   44.5380   35.4280   32.0300 O   0  0  0  0  0  0  0  0  0  0  0  0
   43.9340   34.2380   31.7680 C   0  0  0  0  0  0  0  0  0  0  0  0
   42.7520   33.7740   32.3400 C   0  0  0  0  0  0  0  0  0  0  0  0
   39.3728   33.9364   30.8996 H   0  0  0  0  0  0  0  0  0  0  0  0
   40.5457   32.8673   30.0581 H   0  0  0  0  0  0  0  0  0  0  0  0
   38.7968   32.4576   30.0581 H   0  0  0  0  0  0  0  0  0  0  0  0
   37.6850   31.6558   32.0619 H   0  0  0  0  0  0  0  0  0  0  0  0
   37.9033   30.3083   34.1450 H   0  0  0  0  0  0  0  0  0  0  0  0
   38.4040   28.9310   35.2050 H   0  0  0  0  0  0  0  0  0  0  0  0
   38.4406   26.4224   35.5248 H   0  0  0  0  0  0  0  0  0  0  0  0
   38.2849   24.7024   37.3208 H   0  0  0  0  0  0  0  0  0  0  0  0
   38.9213   25.2701   39.6520 H   0  0  0  0  0  0  0  0  0  0  0  0
   41.8382   28.0814   40.8801 H   0  0  0  0  0  0  0  0  0  0  0  0
   40.9006   29.3721   40.0431 H   0  0  0  0  0  0  0  0  0  0  0  0
   41.4072   29.9933   42.3898 H   0  0  0  0  0  0  0  0  0  0  0  0
   39.6126   29.7767   42.0950 H   0  0  0  0  0  0  0  0  0  0  0  0
   40.8863   26.4363   42.6927 H   0  0  0  0  0  0  0  0  0  0  0  0
   39.4178   26.7033   43.7556 H   0  0  0  0  0  0  0  0  0  0  0  0
   38.7883   26.0444   41.4562 H   0  0  0  0  0  0  0  0  0  0  0  0
   38.2111   27.6926   41.8932 H   0  0  0  0  0  0  0  0  0  0  0  0
   39.8800   29.2839   38.4113 H   0  0  0  0  0  0  0  0  0  0  0  0
   42.1641   31.0258   34.1486 H   0  0  0  0  0  0  0  0  0  0  0  0
   42.6828   30.7866   30.6691 H   0  0  0  0  0  0  0  0  0  0  0  0
   44.7999   31.6897   29.6835 H   0  0  0  0  0  0  0  0  0  0  0  0
   46.5478   33.8347   28.6894 H   0  0  0  0  0  0  0  0  0  0  0  0
   48.2072   33.3763   31.2144 H   0  0  0  0  0  0  0  0  0  0  0  0
   47.3283   32.1407   30.2188 H   0  0  0  0  0  0  0  0  0  0  0  0
   49.7957   32.1922   29.8001 H   0  0  0  0  0  0  0  0  0  0  0  0
   48.8034   32.5228   28.3417 H   0  0  0  0  0  0  0  0  0  0  0  0
   50.1320   34.5520   30.0770 H   0  0  0  0  0  0  0  0  0  0  0  0
   50.6410   34.0920   28.5890 H   0  0  0  0  0  0  0  0  0  0  0  0
   49.5054   36.2105   28.4573 H   0  0  0  0  0  0  0  0  0  0  0  0
   48.6279   34.9489   27.5310 H   0  0  0  0  0  0  0  0  0  0  0  0
   48.0262   35.9138   30.3659 H   0  0  0  0  0  0  0  0  0  0  0  0
   47.0381   36.1826   28.8681 H   0  0  0  0  0  0  0  0  0  0  0  0
   42.1967   34.3710   33.0784 H   0  0  0  0  0  0  0  0  0  0  0  0
  1  2  1  0
  2  3  2  0
  3  4  1  0
  4  5  2  0
  5  6  1  0
  6  7  2  0
  6  8  1  0
  8  9  1  0
  9 10  2  0
 10 11  1  0
 11 12  2  0
 12 13  1  0
 13 14  1  0
 14 15  1  0
 15 16  1  0
 16 17  1  0
 17 18  1  0
 18 19  1  0
 13 20  2  0
  5 21  1  0
 21 22  2  0
 22 23  1  0
 23 24  2  0
 24 25  1  0
 25 26  2  0
 26 27  1  0
 27 28  1  0
 28 29  1  0
 29 30  1  0
 30 31  1  0
 31 32  1  0
 32 33  1  0
 27 34  2  0
 34 35  1  0
 35 36  1  0
 36 37  2  0
 22  2  1  0
 37 23  1  0
 20  9  1  0
 36 26  1  0
 19 14  1  0
 33 28  1  0
  1 38  1  0
  1 39  1  0
  1 40  1  0
  3 41  1  0
  4 42  1  0
  8 43  1  0
 10 44  1  0
 11 45  1  0
 12 46  1  0
 15 47  1  0
 15 48  1  0
 16 49  1  0
 16 50  1  0
 18 51  1  0
 18 52  1  0
 19 53  1  0
 19 54  1  0
 20 55  1  0
 21 56  1  0
 24 57  1  0
 25 58  1  0
 28 59  1  0
 29 60  1  0
 29 61  1  0
 30 62  1  0
 30 63  1  0
 31 64  1  0
 31 65  1  0
 32 66  1  0
 32 67  1  0
 33 68  1  0
 33 69  1  0
 37 70  1  0
M  CHG  1  31   1
M  END
>  <meeko>  (1) 
{"is_sidechain": [false], "free_energy": -13.833, "intermolecular_energy": -17.877, "internal_energy": -1.115}

$$$$
3e93_ligand
     RDKit          3D

 70 75  0  0  0  0  0  0  0  0999 V2000
   39.6260   32.9380   30.5860 C   0  0  0  0  0  0  0  0  0  0  0  0
   39.7960   32.1200   31.8410 C   0  0  0  0  0  0  0  0  0  0  0  0
   38.6580   31.5400   32.4270 C   0  0  0  0  0  0  0  0  0  0  0  0
   38.7610   30.7670   33.5860 C   0  0  0  0  0  0  0  0  0  0  0  0
   40.0100   30.5780   34.1850 C   0  0  0  0  0  0  0  0  0  0  0  0
   40.1810   29.7500   35.4130 C   0  0  0  0  0  0  0  0  0  0  0  0
   41.1000   30.0370   36.1720 O   0  0  0  0  0  0  0  0  0  0  0  0
   39.2370   28.7540   35.5820 N   0  0  0  0  0  0  0  0  0  0  0  0
   39.1770   27.7940   36.6160 C   0  0  0  0  0  0  0  0  0  0  0  0
   39.2440   28.2660   37.9260 C   0  0  0  0  0  0  0  0  0  0  0  0
   39.1870   27.3750   38.9940 C   0  0  0  0  0  0  0  0  0  0  0  0
   39.0580   26.0050   38.7540 C   0  0  0  0  0  0  0  0  0  0  0  0
   38.9790   25.4840   37.4530 C   0  0  0  0  0  0  0  0  0  0  0  0
   38.8510   24.1250   37.2220 N   0  0  0  0  0  0  0  0  0  0  0  0
   37.6080   23.3920   37.5100 C   0  0  0  0  0  0  0  0  0  0  0  0
   37.4700   22.1880   36.5620 C   0  0  0  0  0  0  0  0  0  0  0  0
   38.5530   21.2520   36.6400 O   0  0  0  0  0  0  0  0  0  0  0  0
   39.7990   21.8580   37.0130 C   0  0  0  0  0  0  0  0  0  0  0  0
   39.9290   23.3340   36.6030 C   0  0  0  0  0  0  0  0  0  0  0  0
   39.0410   26.4150   36.3970 C   0  0  0  0  0  0  0  0  0  0  0  0
   41.1490   31.1490   33.6040 C   0  0  0  0  0  0  0  0  0  0  0  0
   41.0630   31.9290   32.4370 C   0  0  0  0  0  0  0  0  0  0  0  0
   42.2990   32.5020   31.8790 C   0  0  0  0  0  0  0  0  0  0  0  0
   43.0560   31.7680   30.9460 C   0  0  0  0  0  0  0  0  0  0  0  0
   44.2550   32.2640   30.4060 C   0  0  0  0  0  0  0  0  0  0  0  0
   44.6980   33.5280   30.8220 C   0  0  0  0  0  0  0  0  0  0  0  0
   45.7990   34.3870   30.5720 C   0  0  0  0  0  0  0  0  0  0  0  0
   46.9780   34.1660   29.6750 C   0  0  0  0  0  0  0  0  0  0  0  0
   47.9620   33.1560   30.2940 C   0  0  0  0  0  0  0  0  0  0  0  0
   49.2010   32.9740   29.4350 C   0  0  0  0  0  0  0  0  0  0  0  0
   49.8260   34.3050   29.1880 N   0  0  0  0  0  0  0  0  0  0  0  0
   48.9270   35.2730   28.4960 C   0  0  0  0  0  0  0  0  0  0  0  0
   47.6850   35.4920   29.3400 C   0  0  0  0  0  0  0  0  0  0  0  0
   45.7080   35.5230   31.2760 N   0  0  0  0  0  0  0  0  0  0  0  0
   44.5360   35.4200   32.0080 O   0  0  0  0  0  0  0  0  0  0  0  0
   43.9350   34.2300   31.7390 C   0  0  0  0  0  0  0  0  0  0  0  0
   42.7440   33.7690   32.2940 C   0  0  0  0  0  0  0  0  0  0  0  0
   39.4090   33.9822   30.8555 H   0  0  0  0  0  0  0  0  0  0  0  0
   40.5518   32.8971   29.9934 H   0  0  0  0  0  0  0  0  0  0  0  0
   38.7931   32.5316   29.9934 H   0  0  0  0  0  0  0  0  0  0  0  0
   37.6716   31.6970   31.9663 H   0  0  0  0  0  0  0  0  0  0  0  0
   37.8628   30.3088   34.0257 H   0  0  0  0  0  0  0  0  0  0  0  0
   38.4550   28.7480   34.9410 H   0  0  0  0  0  0  0  0  0  0  0  0
   39.3421   29.3450   38.1162 H   0  0  0  0  0  0  0  0  0  0  0  0
   39.2435   27.7497   40.0267 H   0  0  0  0  0  0  0  0  0  0  0  0
   39.0171   25.3145   39.6093 H   0  0  0  0  0  0  0  0  0  0  0  0
   37.6293   23.0350   38.5502 H   0  0  0  0  0  0  0  0  0  0  0  0
   36.7512   24.0658   37.3619 H   0  0  0  0  0  0  0  0  0  0  0  0
   36.5380   21.6588   36.8098 H   0  0  0  0  0  0  0  0  0  0  0  0
   37.4724   22.5898   35.5380 H   0  0  0  0  0  0  0  0  0  0  0  0
   39.9005   21.7934   38.1064 H   0  0  0  0  0  0  0  0  0  0  0  0
   40.5895   21.3105   36.4788 H   0  0  0  0  0  0  0  0  0  0  0  0
   40.9029   23.7207   36.9375 H   0  0  0  0  0  0  0  0  0  0  0  0
   39.8526   23.4131   35.5085 H   0  0  0  0  0  0  0  0  0  0  0  0
   38.9805   26.0467   35.3623 H   0  0  0  0  0  0  0  0  0  0  0  0
   42.1316   30.9840   34.0702 H   0  0  0  0  0  0  0  0  0  0  0  0
   42.6983   30.7768   30.6303 H   0  0  0  0  0  0  0  0  0  0  0  0
   44.8310   31.6762   29.6761 H   0  0  0  0  0  0  0  0  0  0  0  0
   46.6035   33.7411   28.7320 H   0  0  0  0  0  0  0  0  0  0  0  0
   48.2674   33.5193   31.2863 H   0  0  0  0  0  0  0  0  0  0  0  0
   47.4521   32.1841   30.3675 H   0  0  0  0  0  0  0  0  0  0  0  0
   49.9175   32.3221   29.9562 H   0  0  0  0  0  0  0  0  0  0  0  0
   48.9215   32.5132   28.4761 H   0  0  0  0  0  0  0  0  0  0  0  0
   50.1430   34.7080   30.0830 H   0  0  0  0  0  0  0  0  0  0  0  0
   50.6820   34.1790   28.6300 H   0  0  0  0  0  0  0  0  0  0  0  0
   49.4522   36.2298   28.3592 H   0  0  0  0  0  0  0  0  0  0  0  0
   48.6396   34.8723   27.5127 H   0  0  0  0  0  0  0  0  0  0  0  0
   47.9753   35.9873   30.2783 H   0  0  0  0  0  0  0  0  0  0  0  0
   46.9859   36.1150   28.7629 H   0  0  0  0  0  0  0  0  0  0  0  0
   42.1782   34.3681   33.0227 H   0  0  0  0  0  0  0  0  0  0  0  0
  1  2  1  0
  2  3  2  0
  3  4  1  0
  4  5  2  0
  5  6  1  0
  6  7  2  0
  6  8  1  0
  8  9  1  0
  9 10  2  0
 10 11  1  0
 11 12  2  0
 12 13  1  0
 13 14  1  0
 14 15  1  0
 15 16  1  0
 16 17  1  0
 17 18  1  0
 18 19  1  0
 13 20  2  0
  5 21  1  0
 21 22  2  0
 22 23  1  0
 23 24  2  0
 24 25  1  0
 25 26  2  0
 26 27  1  0
 27 28  1  0
 28 29  1  0
 29 30  1  0
 30 31  1  0
 31 32  1  0
 32 33  1  0
 27 34  2  0
 34 35  1  0
 35 36  1  0
 36 37  2  0
 22  2  1  0
 37 23  1  0
 20  9  1  0
 36 26  1  0
 19 14  1  0
 33 28  1  0
  1 38  1  0
  1 39  1  0
  1 40  1  0
  3 41  1  0
  4 42  1  0
  8 43  1  0
 10 44  1  0
 11 45  1  0
 12 46  1  0
 15 47  1  0
 15 48  1  0
 16 49  1  0
 16 50  1  0
 18 51  1  0
 18 52  1  0
 19 53  1  0
 19 54  1  0
 20 55  1  0
 21 56  1  0
 24 57  1  0
 25 58  1  0
 28 59  1  0
 29 60  1  0
 29 61  1  0
 30 62  1  0
 30 63  1  0
 31 64  1  0
 31 65  1  0
 32 66  1  0
 32 67  1  0
 33 68  1  0
 33 69  1  0
 37 70  1  0
M  CHG  1  31   1
M  END
>  <meeko>  (2) 
{"is_sidechain": [false], "free_energy": -13.532, "intermolecular_energy": -17.564, "internal_energy": -1.039}

$$$$
3e93_ligand
     RDKit          3D

 70 75  0  0  0  0  0  0  0  0999 V2000
   39.8490   32.3110   30.7040 C   0  0  0  0  0  0  0  0  0  0  0  0
   39.9120   31.5730   32.0170 C   0  0  0  0  0  0  0  0  0  0  0  0
   38.7630   31.5340   32.8260 C   0  0  0  0  0  0  0  0  0  0  0  0
   38.7660   30.8580   34.0480 C   0  0  0  0  0  0  0  0  0  0  0  0
   39.9310   30.2220   34.4860 C   0  0  0  0  0  0  0  0  0  0  0  0
   39.9870   29.4730   35.7730 C   0  0  0  0  0  0  0  0  0  0  0  0
   40.6640   29.9440   36.6800 O   0  0  0  0  0  0  0  0  0  0  0  0
   39.2170   28.3250   35.8140 N   0  0  0  0  0  0  0  0  0  0  0  0
   39.1140   27.3970   36.8740 C   0  0  0  0  0  0  0  0  0  0  0  0
   38.8060   26.0790   36.5370 C   0  0  0  0  0  0  0  0  0  0  0  0
   38.6940   25.1120   37.5310 C   0  0  0  0  0  0  0  0  0  0  0  0
   38.8940   25.4580   38.8690 C   0  0  0  0  0  0  0  0  0  0  0  0
   39.2130   26.7690   39.2550 C   0  0  0  0  0  0  0  0  0  0  0  0
   39.4110   27.1070   40.5840 N   0  0  0  0  0  0  0  0  0  0  0  0
   39.5970   28.4990   41.0210 C   0  0  0  0  0  0  0  0  0  0  0  0
   39.0870   28.6760   42.4620 C   0  0  0  0  0  0  0  0  0  0  0  0
   39.7360   27.8290   43.4220 O   0  0  0  0  0  0  0  0  0  0  0  0
   40.1950   26.5890   42.8640 C   0  0  0  0  0  0  0  0  0  0  0  0
   39.3760   26.1000   41.6580 C   0  0  0  0  0  0  0  0  0  0  0  0
   39.3180   27.7220   38.2230 C   0  0  0  0  0  0  0  0  0  0  0  0
   41.0780   30.2520   33.6840 C   0  0  0  0  0  0  0  0  0  0  0  0
   41.0920   30.9270   32.4500 C   0  0  0  0  0  0  0  0  0  0  0  0
   42.3320   30.9210   31.6570 C   0  0  0  0  0  0  0  0  0  0  0  0
   42.8910   29.7000   31.2330 C   0  0  0  0  0  0  0  0  0  0  0  0
   44.0860   29.6440   30.4970 C   0  0  0  0  0  0  0  0  0  0  0  0
   44.7300   30.8500   30.1850 C   0  0  0  0  0  0  0  0  0  0  0  0
   45.9050   31.2650   29.5060 C   0  0  0  0  0  0  0  0  0  0  0  0
   46.9510   30.4250   28.8390 C   0  0  0  0  0  0  0  0  0  0  0  0
   46.6820   28.9250   29.0640 C   0  0  0  0  0  0  0  0  0  0  0  0
   47.7730   28.0590   28.4600 C   0  0  0  0  0  0  0  0  0  0  0  0
   49.0960   28.4900   28.9950 N   0  0  0  0  0  0  0  0  0  0  0  0
   49.4280   29.9140   28.7040 C   0  0  0  0  0  0  0  0  0  0  0  0
   48.3650   30.8100   29.3120 C   0  0  0  0  0  0  0  0  0  0  0  0
   46.0350   32.5980   29.5140 N   0  0  0  0  0  0  0  0  0  0  0  0
   44.9370   33.0790   30.2100 O   0  0  0  0  0  0  0  0  0  0  0  0
   44.1610   32.0370   30.6110 C   0  0  0  0  0  0  0  0  0  0  0  0
   42.9790   32.1280   31.3420 C   0  0  0  0  0  0  0  0  0  0  0  0
   39.7568   33.3905   30.8942 H   0  0  0  0  0  0  0  0  0  0  0  0
   40.7670   32.1169   30.1299 H   0  0  0  0  0  0  0  0  0  0  0  0
   38.9772   31.9641   30.1299 H   0  0  0  0  0  0  0  0  0  0  0  0
   37.8475   32.0438   32.4914 H   0  0  0  0  0  0  0  0  0  0  0  0
   37.8549   30.8262   34.6635 H   0  0  0  0  0  0  0  0  0  0  0  0
   38.5980   28.1570   35.0320 H   0  0  0  0  0  0  0  0  0  0  0  0
   38.6514   25.8036   35.4833 H   0  0  0  0  0  0  0  0  0  0  0  0
   38.4477   24.0740   37.2627 H   0  0  0  0  0  0  0  0  0  0  0  0
   38.7988   24.6812   39.6420 H   0  0  0  0  0  0  0  0  0  0  0  0
   40.6665   28.7528   40.9803 H   0  0  0  0  0  0  0  0  0  0  0  0
   39.0278   29.1636   40.3545 H   0  0  0  0  0  0  0  0  0  0  0  0
   39.2489   29.7225   42.7595 H   0  0  0  0  0  0  0  0  0  0  0  0
   38.0236   28.3946   42.4587 H   0  0  0  0  0  0  0  0  0  0  0  0
   41.2385   26.7208   42.5419 H   0  0  0  0  0  0  0  0  0  0  0  0
   40.0851   25.8280   43.6507 H   0  0  0  0  0  0  0  0  0  0  0  0
   39.8022   25.1564   41.2867 H   0  0  0  0  0  0  0  0  0  0  0  0
   38.3333   25.9410   41.9701 H   0  0  0  0  0  0  0  0  0  0  0  0
   39.5695   28.7603   38.4850 H   0  0  0  0  0  0  0  0  0  0  0  0
   41.9877   29.7368   34.0261 H   0  0  0  0  0  0  0  0  0  0  0  0
   42.3761   28.7615   31.4859 H   0  0  0  0  0  0  0  0  0  0  0  0
   44.5055   28.6798   30.1739 H   0  0  0  0  0  0  0  0  0  0  0  0
   46.8963   30.6212   27.7580 H   0  0  0  0  0  0  0  0  0  0  0  0
   46.6313   28.7308   30.1455 H   0  0  0  0  0  0  0  0  0  0  0  0
   45.7320   28.6707   28.5713 H   0  0  0  0  0  0  0  0  0  0  0  0
   47.5950   27.0061   28.7241 H   0  0  0  0  0  0  0  0  0  0  0  0
   47.7652   28.1662   27.3653 H   0  0  0  0  0  0  0  0  0  0  0  0
   49.1230   28.3310   30.0150 H   0  0  0  0  0  0  0  0  0  0  0  0
   49.8320   27.8830   28.6080 H   0  0  0  0  0  0  0  0  0  0  0  0
   50.4082   30.1592   29.1388 H   0  0  0  0  0  0  0  0  0  0  0  0
   49.4633   30.0696   27.6156 H   0  0  0  0  0  0  0  0  0  0  0  0
   48.4098   30.7222   30.4076 H   0  0  0  0  0  0  0  0  0  0  0  0
   48.5635   31.8425   28.9888 H   0  0  0  0  0  0  0  0  0  0  0  0
   42.5709   33.0994   31.6580 H   0  0  0  0  0  0  0  0  0  0  0  0
  1  2  1  0
  2  3  2  0
  3  4  1  0
  4  5  2  0
  5  6  1  0
  6  7  2  0
  6  8  1  0
  8  9  1  0
  9 10  2  0
 10 11  1  0
 11 12  2  0
 12 13  1  0
 13 14  1  0
 14 15  1  0
 15 16  1  0
 16 17  1  0
 17 18  1  0
 18 19  1  0
 13 20  2  0
  5 21  1  0
 21 22  2  0
 22 23  1  0
 23 24  2  0
 24 25  1  0
 25 26  2  0
 26 27  1  0
 27 28  1  0
 28 29  1  0
 29 30  1  0
 30 31  1  0
 31 32  1  0
 32 33  1  0
 27 34  2  0
 34 35  1  0
 35 36  1  0
 36 37  2  0
 22  2  1  0
 37 23  1  0
 20  9  1  0
 36 26  1  0
 19 14  1  0
 33 28  1  0
  1 38  1  0
  1 39  1  0
  1 40  1  0
  3 41  1  0
  4 42  1  0
  8 43  1  0
 10 44  1  0
 11 45  1  0
 12 46  1  0
 15 47  1  0
 15 48  1  0
 16 49  1  0
 16 50  1  0
 18 51  1  0
 18 52  1  0
 19 53  1  0
 19 54  1  0
 20 55  1  0
 21 56  1  0
 24 57  1  0
 25 58  1  0
 28 59  1  0
 29 60  1  0
 29 61  1  0
 30 62  1  0
 30 63  1  0
 31 64  1  0
 31 65  1  0
 32 66  1  0
 32 67  1  0
 33 68  1  0
 33 69  1  0
 37 70  1  0
M  CHG  1  31   1
M  END
>  <meeko>  (3) 
{"is_sidechain": [false], "free_energy": -12.021, "intermolecular_energy": -16.397, "internal_energy": -0.253}

$$$$
