1z9g_ligand
     RDKit          3D

 31 31  0  0  0  0  0  0  0  0999 V2000
   37.3150   38.0100   -5.7440 O   0  0  0  0  0  0  0  0  0  0  0  0
   38.4760   38.1360   -5.2660 C   0  0  0  0  0  0  0  0  0  0  0  0
   39.5890   37.8200   -5.7900 O   0  0  0  0  0  0  0  0  0  0  0  0
   38.5550   38.7120   -3.8650 C   0  0  0  0  0  0  0  0  0  0  0  0
   38.3180   40.1980   -3.8050 C   0  0  0  0  0  0  0  0  0  0  0  0
   39.1820   40.9720   -3.3850 O   0  0  0  0  0  0  0  0  0  0  0  0
   37.1460   40.6520   -4.3470 N   0  0  0  0  0  0  0  0  0  0  0  0
   36.7560   42.0550   -4.4100 C   0  0  1  0  0  0  0  0  0  0  0  0
   36.0390   42.3250   -5.7480 C   0  0  0  0  0  0  0  0  0  0  0  0
   35.2050   40.8490   -6.4270 S   0  0  0  0  0  0  0  0  0  0  0  0
   35.8680   42.4230   -3.2010 C   0  0  0  0  0  0  0  0  0  0  0  0
   36.6630   42.8820   -1.9970 C   0  0  0  0  0  0  0  0  0  0  0  0
   36.6750   42.1260   -0.8180 C   0  0  0  0  0  0  0  0  0  0  0  0
   37.4310   42.5400    0.2800 C   0  0  0  0  0  0  0  0  0  0  0  0
   38.1780   43.7140    0.2130 C   0  0  0  0  0  0  0  0  0  0  0  0
   38.1750   44.4730   -0.9550 C   0  0  0  0  0  0  0  0  0  0  0  0
   37.4250   44.0580   -2.0580 C   0  0  0  0  0  0  0  0  0  0  0  0
   37.7971   38.2144   -3.2421 H   0  0  0  0  0  0  0  0  0  0  0  0
   39.5787   38.5358   -3.5032 H   0  0  0  0  0  0  0  0  0  0  0  0
   36.5080   39.9150   -4.6870 H   0  0  0  0  0  0  0  0  0  0  0  0
   37.6516   42.6918   -4.3615 H   0  0  0  0  0  0  0  0  0  0  0  0
   35.2854   43.1103   -5.5887 H   0  0  0  0  0  0  0  0  0  0  0  0
   36.8063   42.6305   -6.4746 H   0  0  0  0  0  0  0  0  0  0  0  0
   34.4520   41.5180   -7.3140 H   0  0  0  0  0  0  0  0  0  0  0  0
   35.1873   43.2335   -3.5006 H   0  0  0  0  0  0  0  0  0  0  0  0
   35.3226   41.5143   -2.9064 H   0  0  0  0  0  0  0  0  0  0  0  0
   36.0847   41.1998   -0.7569 H   0  0  0  0  0  0  0  0  0  0  0  0
   37.4369   41.9377    1.2005 H   0  0  0  0  0  0  0  0  0  0  0  0
   38.7692   44.0411    1.0810 H   0  0  0  0  0  0  0  0  0  0  0  0
   38.7640   45.4004   -1.0089 H   0  0  0  0  0  0  0  0  0  0  0  0
   37.4320   44.6573   -2.9804 H   0  0  0  0  0  0  0  0  0  0  0  0
  1  2  2  0
  2  3  1  0
  2  4  1  0
  4  5  1  0
  5  6  2  0
  5  7  1  0
  7  8  1  0
  8  9  1  0
  9 10  1  0
  8 11  1  0
 11 12  1  0
 12 13  2  0
 13 14  1  0
 14 15  2  0
 15 16  1  0
 16 17  2  0
 17 12  1  0
  4 18  1  0
  4 19  1  0
  7 20  1  0
  8 21  1  6
  9 22  1  0
  9 23  1  0
 10 24  1  0
 11 25  1  0
 11 26  1  0
 13 27  1  0
 14 28  1  0
 15 29  1  0
 16 30  1  0
 17 31  1  0
M  CHG  1   3  -1
M  END
>  <meeko>  (1) 
{"is_sidechain": [false], "free_energy": -5.839, "intermolecular_energy": -8.057, "internal_energy": -0.846}

$$$$
1z9g_ligand
     RDKit          3D

 31 31  0  0  0  0  0  0  0  0999 V2000
   37.9730   38.8820   -1.2690 O   0  0  0  0  0  0  0  0  0  0  0  0
   38.1190   38.2470   -2.3490 C   0  0  0  0  0  0  0  0  0  0  0  0
   37.8510   37.0300   -2.5980 O   0  0  0  0  0  0  0  0  0  0  0  0
   38.7270   39.0290   -3.4990 C   0  0  0  0  0  0  0  0  0  0  0  0
   38.4070   40.5000   -3.4690 C   0  0  0  0  0  0  0  0  0  0  0  0
   39.2890   41.3490   -3.3160 O   0  0  0  0  0  0  0  0  0  0  0  0
   37.1100   40.8480   -3.7360 N   0  0  0  0  0  0  0  0  0  0  0  0
   36.6180   42.2200   -3.7830 C   0  0  1  0  0  0  0  0  0  0  0  0
   35.7680   42.4120   -5.0550 C   0  0  0  0  0  0  0  0  0  0  0  0
   35.5940   40.8850   -6.0420 S   0  0  0  0  0  0  0  0  0  0  0  0
   35.8160   42.5500   -2.5040 C   0  0  0  0  0  0  0  0  0  0  0  0
   36.6940   42.7320   -1.2840 C   0  0  0  0  0  0  0  0  0  0  0  0
   37.6430   43.7610   -1.2330 C   0  0  0  0  0  0  0  0  0  0  0  0
   38.4310   43.9400   -0.0950 C   0  0  0  0  0  0  0  0  0  0  0  0
   38.2830   43.0910    1.0000 C   0  0  0  0  0  0  0  0  0  0  0  0
   37.3420   42.0640    0.9600 C   0  0  0  0  0  0  0  0  0  0  0  0
   36.5470   41.8870   -0.1740 C   0  0  0  0  0  0  0  0  0  0  0  0
   39.8199   38.9108   -3.4595 H   0  0  0  0  0  0  0  0  0  0  0  0
   38.2935   38.6253   -4.4259 H   0  0  0  0  0  0  0  0  0  0  0  0
   36.4640   40.0540   -3.8690 H   0  0  0  0  0  0  0  0  0  0  0  0
   37.4670   42.9182   -3.8235 H   0  0  0  0  0  0  0  0  0  0  0  0
   34.7651   42.7519   -4.7572 H   0  0  0  0  0  0  0  0  0  0  0  0
   36.2849   43.1510   -5.6849 H   0  0  0  0  0  0  0  0  0  0  0  0
   36.7010   41.0760   -6.7770 H   0  0  0  0  0  0  0  0  0  0  0  0
   35.2542   43.4804   -2.6732 H   0  0  0  0  0  0  0  0  0  0  0  0
   35.1498   41.6976   -2.3050 H   0  0  0  0  0  0  0  0  0  0  0  0
   37.7680   44.4323   -2.0954 H   0  0  0  0  0  0  0  0  0  0  0  0
   39.1708   44.7534   -0.0624 H   0  0  0  0  0  0  0  0  0  0  0  0
   38.9079   43.2312    1.8944 H   0  0  0  0  0  0  0  0  0  0  0  0
   37.2254   41.3919    1.8230 H   0  0  0  0  0  0  0  0  0  0  0  0
   35.8004   41.0795   -0.1972 H   0  0  0  0  0  0  0  0  0  0  0  0
  1  2  2  0
  2  3  1  0
  2  4  1  0
  4  5  1  0
  5  6  2  0
  5  7  1  0
  7  8  1  0
  8  9  1  0
  9 10  1  0
  8 11  1  0
 11 12  1  0
 12 13  2  0
 13 14  1  0
 14 15  2  0
 15 16  1  0
 16 17  2  0
 17 12  1  0
  4 18  1  0
  4 19  1  0
  7 20  1  0
  8 21  1  6
  9 22  1  0
  9 23  1  0
 10 24  1  0
 11 25  1  0
 11 26  1  0
 13 27  1  0
 14 28  1  0
 15 29  1  0
 16 30  1  0
 17 31  1  0
M  CHG  1   3  -1
M  END
>  <meeko>  (2) 
{"is_sidechain": [false], "free_energy": -5.819, "intermolecular_energy": -8.017, "internal_energy": -0.859}

$$$$
1z9g_ligand
     RDKit          3D

 31 31  0  0  0  0  0  0  0  0999 V2000
   33.4810   42.7790   -8.0270 O   0  0  0  0  0  0  0  0  0  0  0  0
   34.5460   42.3250   -7.5260 C   0  0  0  0  0  0  0  0  0  0  0  0
   35.7110   42.8300   -7.5450 O   0  0  0  0  0  0  0  0  0  0  0  0
   34.4300   40.9800   -6.8340 C   0  0  0  0  0  0  0  0  0  0  0  0
   35.4170   40.7860   -5.7130 C   0  0  0  0  0  0  0  0  0  0  0  0
   36.1990   39.8330   -5.6990 O   0  0  0  0  0  0  0  0  0  0  0  0
   35.4790   41.7830   -4.7760 N   0  0  0  0  0  0  0  0  0  0  0  0
   36.3920   41.7890   -3.6390 C   0  0  1  0  0  0  0  0  0  0  0  0
   37.8450   41.7240   -4.1520 C   0  0  0  0  0  0  0  0  0  0  0  0
   38.8120   40.3690   -3.4020 S   0  0  0  0  0  0  0  0  0  0  0  0
   36.1510   43.0380   -2.7610 C   0  0  0  0  0  0  0  0  0  0  0  0
   36.8420   42.9590   -1.4160 C   0  0  0  0  0  0  0  0  0  0  0  0
   37.8140   43.9020   -1.0560 C   0  0  0  0  0  0  0  0  0  0  0  0
   38.4300   43.8400    0.1950 C   0  0  0  0  0  0  0  0  0  0  0  0
   38.0850   42.8350    1.0960 C   0  0  0  0  0  0  0  0  0  0  0  0
   37.1190   41.8930    0.7490 C   0  0  0  0  0  0  0  0  0  0  0  0
   36.4960   41.9560   -0.4990 C   0  0  0  0  0  0  0  0  0  0  0  0
   33.4144   40.8886   -6.4215 H   0  0  0  0  0  0  0  0  0  0  0  0
   34.6483   40.2110   -7.5897 H   0  0  0  0  0  0  0  0  0  0  0  0
   34.7910   42.5420   -4.9000 H   0  0  0  0  0  0  0  0  0  0  0  0
   36.2066   40.9068   -3.0087 H   0  0  0  0  0  0  0  0  0  0  0  0
   37.8248   41.5775   -5.2420 H   0  0  0  0  0  0  0  0  0  0  0  0
   38.3335   42.6688   -3.8713 H   0  0  0  0  0  0  0  0  0  0  0  0
   38.9030   39.6350   -4.5220 H   0  0  0  0  0  0  0  0  0  0  0  0
   36.5280   43.9213   -3.2973 H   0  0  0  0  0  0  0  0  0  0  0  0
   35.0694   43.1028   -2.5715 H   0  0  0  0  0  0  0  0  0  0  0  0
   38.0934   44.6963   -1.7639 H   0  0  0  0  0  0  0  0  0  0  0  0
   39.1897   44.5865    0.4701 H   0  0  0  0  0  0  0  0  0  0  0  0
   38.5745   42.7853    2.0798 H   0  0  0  0  0  0  0  0  0  0  0  0
   36.8467   41.0984    1.4593 H   0  0  0  0  0  0  0  0  0  0  0  0
   35.7287   41.2139   -0.7647 H   0  0  0  0  0  0  0  0  0  0  0  0
  1  2  2  0
  2  3  1  0
  2  4  1  0
  4  5  1  0
  5  6  2  0
  5  7  1  0
  7  8  1  0
  8  9  1  0
  9 10  1  0
  8 11  1  0
 11 12  1  0
 12 13  2  0
 13 14  1  0
 14 15  2  0
 15 16  1  0
 16 17  2  0
 17 12  1  0
  4 18  1  0
  4 19  1  0
  7 20  1  0
  8 21  1  1
  9 22  1  0
  9 23  1  0
 10 24  1  0
 11 25  1  0
 11 26  1  0
 13 27  1  0
 14 28  1  0
 15 29  1  0
 16 30  1  0
 17 31  1  0
M  CHG  1   3  -1
M  END
>  <meeko>  (3) 
{"is_sidechain": [false], "free_energy": -5.586, "intermolecular_energy": -8.194, "internal_energy": -0.36}

$$$$
1z9g_ligand
     RDKit          3D

 31 31  0  0  0  0  0  0  0  0999 V2000
   35.6560   40.7990   -7.7300 O   0  0  0  0  0  0  0  0  0  0  0  0
   35.2430   41.9060   -7.2900 C   0  0  0  0  0  0  0  0  0  0  0  0
   35.1280   43.0130   -7.9030 O   0  0  0  0  0  0  0  0  0  0  0  0
   34.8600   41.9330   -5.8220 C   0  0  0  0  0  0  0  0  0  0  0  0
   35.9970   42.3010   -4.9050 C   0  0  0  0  0  0  0  0  0  0  0  0
   37.0600   42.7470   -5.3420 O   0  0  0  0  0  0  0  0  0  0  0  0
   35.7460   42.2240   -3.5610 N   0  0  0  0  0  0  0  0  0  0  0  0
   36.7090   42.5690   -2.5220 C   0  0  1  0  0  0  0  0  0  0  0  0
   36.3170   43.9210   -1.8930 C   0  0  0  0  0  0  0  0  0  0  0  0
   37.7420   44.8320   -1.2020 S   0  0  0  0  0  0  0  0  0  0  0  0
   36.7850   41.4470   -1.4620 C   0  0  0  0  0  0  0  0  0  0  0  0
   37.7070   40.3140   -1.8620 C   0  0  0  0  0  0  0  0  0  0  0  0
   38.5910   40.4580   -2.9400 C   0  0  0  0  0  0  0  0  0  0  0  0
   39.4550   39.4200   -3.2880 C   0  0  0  0  0  0  0  0  0  0  0  0
   39.4440   38.2270   -2.5680 C   0  0  0  0  0  0  0  0  0  0  0  0
   38.5700   38.0730   -1.4940 C   0  0  0  0  0  0  0  0  0  0  0  0
   37.7070   39.1130   -1.1390 C   0  0  0  0  0  0  0  0  0  0  0  0
   34.0534   42.6687   -5.6872 H   0  0  0  0  0  0  0  0  0  0  0  0
   34.5479   40.9131   -5.5529 H   0  0  0  0  0  0  0  0  0  0  0  0
   34.8140   41.8570   -3.3110 H   0  0  0  0  0  0  0  0  0  0  0  0
   37.7115   42.6683   -2.9636 H   0  0  0  0  0  0  0  0  0  0  0  0
   35.8460   44.5438   -2.6678 H   0  0  0  0  0  0  0  0  0  0  0  0
   35.6300   43.7079   -1.0608 H   0  0  0  0  0  0  0  0  0  0  0  0
   37.3420   46.0420   -1.6230 H   0  0  0  0  0  0  0  0  0  0  0  0
   37.1509   41.8800   -0.5193 H   0  0  0  0  0  0  0  0  0  0  0  0
   35.7742   41.0260   -1.3566 H   0  0  0  0  0  0  0  0  0  0  0  0
   38.6034   41.3956   -3.5152 H   0  0  0  0  0  0  0  0  0  0  0  0
   40.1475   39.5435   -4.1337 H   0  0  0  0  0  0  0  0  0  0  0  0
   40.1239   37.4086   -2.8470 H   0  0  0  0  0  0  0  0  0  0  0  0
   38.5593   37.1317   -0.9249 H   0  0  0  0  0  0  0  0  0  0  0  0
   37.0231   38.9885   -0.2865 H   0  0  0  0  0  0  0  0  0  0  0  0
  1  2  2  0
  2  3  1  0
  2  4  1  0
  4  5  1  0
  5  6  2  0
  5  7  1  0
  7  8  1  0
  8  9  1  0
  9 10  1  0
  8 11  1  0
 11 12  1  0
 12 13  2  0
 13 14  1  0
 14 15  2  0
 15 16  1  0
 16 17  2  0
 17 12  1  0
  4 18  1  0
  4 19  1  0
  7 20  1  0
  8 21  1  6
  9 22  1  0
  9 23  1  0
 10 24  1  0
 11 25  1  0
 11 26  1  0
 13 27  1  0
 14 28  1  0
 15 29  1  0
 16 30  1  0
 17 31  1  0
M  CHG  1   3  -1
M  END
>  <meeko>  (4) 
{"is_sidechain": [false], "free_energy": -5.578, "intermolecular_energy": -8.066, "internal_energy": -0.478}

$$$$
1z9g_ligand
     RDKit          3D

 31 31  0  0  0  0  0  0  0  0999 V2000
   35.2190   43.2210   -6.1540 O   0  0  0  0  0  0  0  0  0  0  0  0
   34.6280   42.5770   -7.0640 C   0  0  0  0  0  0  0  0  0  0  0  0
   33.5520   42.8690   -7.6740 O   0  0  0  0  0  0  0  0  0  0  0  0
   35.2660   41.2600   -7.4630 C   0  0  0  0  0  0  0  0  0  0  0  0
   35.7300   40.4310   -6.2940 C   0  0  0  0  0  0  0  0  0  0  0  0
   35.2900   39.2960   -6.0930 O   0  0  0  0  0  0  0  0  0  0  0  0
   36.7450   40.9550   -5.5390 N   0  0  0  0  0  0  0  0  0  0  0  0
   37.3460   40.2870   -4.3910 C   0  0  1  0  0  0  0  0  0  0  0  0
   38.0530   39.0000   -4.8630 C   0  0  0  0  0  0  0  0  0  0  0  0
   39.6310   38.6890   -3.9970 S   0  0  0  0  0  0  0  0  0  0  0  0
   38.3210   41.2400   -3.6630 C   0  0  0  0  0  0  0  0  0  0  0  0
   37.8310   41.6580   -2.2930 C   0  0  0  0  0  0  0  0  0  0  0  0
   37.3360   40.7070   -1.3900 C   0  0  0  0  0  0  0  0  0  0  0  0
   36.9090   41.0940   -0.1200 C   0  0  0  0  0  0  0  0  0  0  0  0
   36.9670   42.4330    0.2610 C   0  0  0  0  0  0  0  0  0  0  0  0
   37.4580   43.3870   -0.6280 C   0  0  0  0  0  0  0  0  0  0  0  0
   37.8930   43.0020   -1.8980 C   0  0  0  0  0  0  0  0  0  0  0  0
   34.5280   40.6753   -8.0318 H   0  0  0  0  0  0  0  0  0  0  0  0
   36.1587   41.5034   -8.0578 H   0  0  0  0  0  0  0  0  0  0  0  0
   37.0480   41.9030   -5.8130 H   0  0  0  0  0  0  0  0  0  0  0  0
   36.5626   40.0088   -3.6707 H   0  0  0  0  0  0  0  0  0  0  0  0
   37.3820   38.1467   -4.6848 H   0  0  0  0  0  0  0  0  0  0  0  0
   38.2848   39.1264   -5.9308 H   0  0  0  0  0  0  0  0  0  0  0  0
   39.0780   38.4310   -2.8020 H   0  0  0  0  0  0  0  0  0  0  0  0
   39.2887   40.7298   -3.5480 H   0  0  0  0  0  0  0  0  0  0  0  0
   38.4057   42.1513   -4.2732 H   0  0  0  0  0  0  0  0  0  0  0  0
   37.2840   39.6486   -1.6850 H   0  0  0  0  0  0  0  0  0  0  0  0
   36.5253   40.3399    0.5830 H   0  0  0  0  0  0  0  0  0  0  0  0
   36.6258   42.7364    1.2618 H   0  0  0  0  0  0  0  0  0  0  0  0
   37.5030   44.4447   -0.3291 H   0  0  0  0  0  0  0  0  0  0  0  0
   38.2869   43.7581   -2.5931 H   0  0  0  0  0  0  0  0  0  0  0  0
  1  2  2  0
  2  3  1  0
  2  4  1  0
  4  5  1  0
  5  6  2  0
  5  7  1  0
  7  8  1  0
  8  9  1  0
  9 10  1  0
  8 11  1  0
 11 12  1  0
 12 13  2  0
 13 14  1  0
 14 15  2  0
 15 16  1  0
 16 17  2  0
 17 12  1  0
  4 18  1  0
  4 19  1  0
  7 20  1  0
  8 21  1  1
  9 22  1  0
  9 23  1  0
 10 24  1  0
 11 25  1  0
 11 26  1  0
 13 27  1  0
 14 28  1  0
 15 29  1  0
 16 30  1  0
 17 31  1  0
M  CHG  1   3  -1
M  END
>  <meeko>  (5) 
{"is_sidechain": [false], "free_energy": -5.237, "intermolecular_energy": -7.698, "internal_energy": -0.374}

$$$$
1z9g_ligand
     RDKit          3D

 31 31  0  0  0  0  0  0  0  0999 V2000
   36.2030   44.9440   -1.5750 O   0  0  0  0  0  0  0  0  0  0  0  0
   37.3050   44.3550   -1.4050 C   0  0  0  0  0  0  0  0  0  0  0  0
   38.4310   44.6080   -1.9350 O   0  0  0  0  0  0  0  0  0  0  0  0
   37.2800   43.1640   -0.4660 C   0  0  0  0  0  0  0  0  0  0  0  0
   37.3010   41.8330   -1.1720 C   0  0  0  0  0  0  0  0  0  0  0  0
   36.9050   40.8040   -0.6210 O   0  0  0  0  0  0  0  0  0  0  0  0
   37.6720   41.8480   -2.4900 N   0  0  0  0  0  0  0  0  0  0  0  0
   37.7210   40.6690   -3.3450 C   0  0  1  0  0  0  0  0  0  0  0  0
   36.9370   40.9460   -4.6430 C   0  0  0  0  0  0  0  0  0  0  0  0
   36.2280   42.6280   -4.7090 S   0  0  0  0  0  0  0  0  0  0  0  0
   39.1870   40.2750   -3.6360 C   0  0  0  0  0  0  0  0  0  0  0  0
   39.6260   39.0310   -2.8940 C   0  0  0  0  0  0  0  0  0  0  0  0
   40.9240   38.5260   -3.0490 C   0  0  0  0  0  0  0  0  0  0  0  0
   41.3310   37.3940   -2.3430 C   0  0  0  0  0  0  0  0  0  0  0  0
   40.4470   36.7520   -1.4780 C   0  0  0  0  0  0  0  0  0  0  0  0
   39.1550   37.2460   -1.3150 C   0  0  0  0  0  0  0  0  0  0  0  0
   38.7460   38.3820   -2.0150 C   0  0  0  0  0  0  0  0  0  0  0  0
   38.1601   43.2219    0.1913 H   0  0  0  0  0  0  0  0  0  0  0  0
   36.3337   43.2158    0.0924 H   0  0  0  0  0  0  0  0  0  0  0  0
   37.9630   42.7700   -2.8510 H   0  0  0  0  0  0  0  0  0  0  0  0
   37.2501   39.8182   -2.8308 H   0  0  0  0  0  0  0  0  0  0  0  0
   37.6187   40.8200   -5.4970 H   0  0  0  0  0  0  0  0  0  0  0  0
   36.0979   40.2356   -4.6765 H   0  0  0  0  0  0  0  0  0  0  0  0
   36.1620   42.7960   -3.3790 H   0  0  0  0  0  0  0  0  0  0  0  0
   39.2932   40.0943   -4.7158 H   0  0  0  0  0  0  0  0  0  0  0  0
   39.8237   41.1036   -3.2925 H   0  0  0  0  0  0  0  0  0  0  0  0
   41.6266   39.0257   -3.7321 H   0  0  0  0  0  0  0  0  0  0  0  0
   42.3528   37.0069   -2.4694 H   0  0  0  0  0  0  0  0  0  0  0  0
   40.7688   35.8571   -0.9252 H   0  0  0  0  0  0  0  0  0  0  0  0
   38.4557   36.7398   -0.6333 H   0  0  0  0  0  0  0  0  0  0  0  0
   37.7265   38.7712   -1.8766 H   0  0  0  0  0  0  0  0  0  0  0  0
  1  2  2  0
  2  3  1  0
  2  4  1  0
  4  5  1  0
  5  6  2  0
  5  7  1  0
  7  8  1  0
  8  9  1  0
  9 10  1  0
  8 11  1  0
 11 12  1  0
 12 13  2  0
 13 14  1  0
 14 15  2  0
 15 16  1  0
 16 17  2  0
 17 12  1  0
  4 18  1  0
  4 19  1  0
  7 20  1  0
  8 21  1  1
  9 22  1  0
  9 23  1  0
 10 24  1  0
 11 25  1  0
 11 26  1  0
 13 27  1  0
 14 28  1  0
 15 29  1  0
 16 30  1  0
 17 31  1  0
M  CHG  1   3  -1
M  END
>  <meeko>  (6) 
{"is_sidechain": [false], "free_energy": -5.19, "intermolecular_energy": -7.189, "internal_energy": -0.819}

$$$$
1z9g_ligand
     RDKit          3D

 31 31  0  0  0  0  0  0  0  0999 V2000
   36.1900   40.2530   -5.6940 O   0  0  0  0  0  0  0  0  0  0  0  0
   35.4990   41.2790   -5.9440 C   0  0  0  0  0  0  0  0  0  0  0  0
   34.5280   41.4050   -6.7530 O   0  0  0  0  0  0  0  0  0  0  0  0
   35.9010   42.5420   -5.2060 C   0  0  0  0  0  0  0  0  0  0  0  0
   36.9620   42.3230   -4.1590 C   0  0  0  0  0  0  0  0  0  0  0  0
   38.1110   42.7470   -4.3070 O   0  0  0  0  0  0  0  0  0  0  0  0
   36.5550   41.7340   -2.9920 N   0  0  0  0  0  0  0  0  0  0  0  0
   37.4280   41.4710   -1.8550 C   0  0  1  0  0  0  0  0  0  0  0  0
   37.0820   42.4440   -0.7100 C   0  0  0  0  0  0  0  0  0  0  0  0
   37.8390   44.0940   -0.9160 S   0  0  0  0  0  0  0  0  0  0  0  0
   37.3010   39.9960   -1.4080 C   0  0  0  0  0  0  0  0  0  0  0  0
   38.4600   39.1360   -1.8660 C   0  0  0  0  0  0  0  0  0  0  0  0
   38.8010   37.9680   -1.1720 C   0  0  0  0  0  0  0  0  0  0  0  0
   39.8540   37.1650   -1.6140 C   0  0  0  0  0  0  0  0  0  0  0  0
   40.5780   37.5220   -2.7490 C   0  0  0  0  0  0  0  0  0  0  0  0
   40.2460   38.6810   -3.4480 C   0  0  0  0  0  0  0  0  0  0  0  0
   39.1890   39.4830   -3.0130 C   0  0  0  0  0  0  0  0  0  0  0  0
   36.2829   43.2662   -5.9406 H   0  0  0  0  0  0  0  0  0  0  0  0
   35.0047   42.9061   -4.6825 H   0  0  0  0  0  0  0  0  0  0  0  0
   35.5660   41.4400   -2.9740 H   0  0  0  0  0  0  0  0  0  0  0  0
   38.4759   41.6357   -2.1460 H   0  0  0  0  0  0  0  0  0  0  0  0
   35.9892   42.5630   -0.6703 H   0  0  0  0  0  0  0  0  0  0  0  0
   37.4841   42.0129    0.2187 H   0  0  0  0  0  0  0  0  0  0  0  0
   38.2650   43.8880   -2.1730 H   0  0  0  0  0  0  0  0  0  0  0  0
   37.2549   39.9656   -0.3094 H   0  0  0  0  0  0  0  0  0  0  0  0
   36.3885   39.5903   -1.8692 H   0  0  0  0  0  0  0  0  0  0  0  0
   38.2355   37.6817   -0.2730 H   0  0  0  0  0  0  0  0  0  0  0  0
   40.1126   36.2479   -1.0644 H   0  0  0  0  0  0  0  0  0  0  0  0
   41.4103   36.8903   -3.0930 H   0  0  0  0  0  0  0  0  0  0  0  0
   40.8176   38.9645   -4.3440 H   0  0  0  0  0  0  0  0  0  0  0  0
   38.9264   40.3925   -3.5732 H   0  0  0  0  0  0  0  0  0  0  0  0
  1  2  2  0
  2  3  1  0
  2  4  1  0
  4  5  1  0
  5  6  2  0
  5  7  1  0
  7  8  1  0
  8  9  1  0
  9 10  1  0
  8 11  1  0
 11 12  1  0
 12 13  2  0
 13 14  1  0
 14 15  2  0
 15 16  1  0
 16 17  2  0
 17 12  1  0
  4 18  1  0
  4 19  1  0
  7 20  1  0
  8 21  1  6
  9 22  1  0
  9 23  1  0
 10 24  1  0
 11 25  1  0
 11 26  1  0
 13 27  1  0
 14 28  1  0
 15 29  1  0
 16 30  1  0
 17 31  1  0
M  CHG  1   3  -1
M  END
>  <meeko>  (7) 
{"is_sidechain": [false], "free_energy": -5.061, "intermolecular_energy": -7.063, "internal_energy": -0.766}

$$$$
1z9g_ligand
     RDKit          3D

 31 31  0  0  0  0  0  0  0  0999 V2000
   38.0420   46.1380   -0.4450 O   0  0  0  0  0  0  0  0  0  0  0  0
   37.9950   45.0170   -1.0230 C   0  0  0  0  0  0  0  0  0  0  0  0
   38.9270   44.1700   -1.1910 O   0  0  0  0  0  0  0  0  0  0  0  0
   36.6560   44.6420   -1.6300 C   0  0  0  0  0  0  0  0  0  0  0  0
   36.6370   43.2730   -2.2580 C   0  0  0  0  0  0  0  0  0  0  0  0
   35.9110   42.3740   -1.8250 O   0  0  0  0  0  0  0  0  0  0  0  0
   37.3770   43.1140   -3.4000 N   0  0  0  0  0  0  0  0  0  0  0  0
   37.4560   41.8760   -4.1640 C   0  0  1  0  0  0  0  0  0  0  0  0
   38.4440   40.9140   -3.4750 C   0  0  0  0  0  0  0  0  0  0  0  0
   38.4570   39.2440   -4.2160 S   0  0  0  0  0  0  0  0  0  0  0  0
   36.0540   41.2440   -4.3130 C   0  0  0  0  0  0  0  0  0  0  0  0
   35.5170   41.3170   -5.7270 C   0  0  0  0  0  0  0  0  0  0  0  0
   35.4010   40.1610   -6.5090 C   0  0  0  0  0  0  0  0  0  0  0  0
   34.8820   40.2310   -7.8020 C   0  0  0  0  0  0  0  0  0  0  0  0
   34.4770   41.4550   -8.3290 C   0  0  0  0  0  0  0  0  0  0  0  0
   34.5860   42.6120   -7.5600 C   0  0  0  0  0  0  0  0  0  0  0  0
   35.0990   42.5440   -6.2630 C   0  0  0  0  0  0  0  0  0  0  0  0
   35.8949   44.6704   -0.8363 H   0  0  0  0  0  0  0  0  0  0  0  0
   36.4532   45.3663   -2.4327 H   0  0  0  0  0  0  0  0  0  0  0  0
   37.9280   43.9410   -3.6800 H   0  0  0  0  0  0  0  0  0  0  0  0
   37.8275   42.0884   -5.1774 H   0  0  0  0  0  0  0  0  0  0  0  0
   39.4560   41.3383   -3.5514 H   0  0  0  0  0  0  0  0  0  0  0  0
   38.1195   40.8054   -2.4296 H   0  0  0  0  0  0  0  0  0  0  0  0
   39.0350   38.6380   -3.1670 H   0  0  0  0  0  0  0  0  0  0  0  0
   36.1131   40.1868   -4.0150 H   0  0  0  0  0  0  0  0  0  0  0  0
   35.3669   41.8149   -3.6712 H   0  0  0  0  0  0  0  0  0  0  0  0
   35.7214   39.1911   -6.1008 H   0  0  0  0  0  0  0  0  0  0  0  0
   34.7923   39.3168   -8.4071 H   0  0  0  0  0  0  0  0  0  0  0  0
   34.0719   41.5083   -9.3503 H   0  0  0  0  0  0  0  0  0  0  0  0
   34.2677   43.5797   -7.9750 H   0  0  0  0  0  0  0  0  0  0  0  0
   35.1758   43.4591   -5.6574 H   0  0  0  0  0  0  0  0  0  0  0  0
  1  2  2  0
  2  3  1  0
  2  4  1  0
  4  5  1  0
  5  6  2  0
  5  7  1  0
  7  8  1  0
  8  9  1  0
  9 10  1  0
  8 11  1  0
 11 12  1  0
 12 13  2  0
 13 14  1  0
 14 15  2  0
 15 16  1  0
 16 17  2  0
 17 12  1  0
  4 18  1  0
  4 19  1  0
  7 20  1  0
  8 21  1  6
  9 22  1  0
  9 23  1  0
 10 24  1  0
 11 25  1  0
 11 26  1  0
 13 27  1  0
 14 28  1  0
 15 29  1  0
 16 30  1  0
 17 31  1  0
M  CHG  1   3  -1
M  END
>  <meeko>  (8) 
{"is_sidechain": [false], "free_energy": -4.607, "intermolecular_energy": -7.128, "internal_energy": -0.075}

$$$$
1z9g_ligand
     RDKit          3D

 31 31  0  0  0  0  0  0  0  0999 V2000
   41.4180   39.4040   -4.0930 O   0  0  0  0  0  0  0  0  0  0  0  0
   40.3350   38.7590   -4.1190 C   0  0  0  0  0  0  0  0  0  0  0  0
   39.7200   38.2800   -5.1220 O   0  0  0  0  0  0  0  0  0  0  0  0
   39.6560   38.5510   -2.7780 C   0  0  0  0  0  0  0  0  0  0  0  0
   38.4990   39.4840   -2.5330 C   0  0  0  0  0  0  0  0  0  0  0  0
   37.7190   39.3100   -1.5930 O   0  0  0  0  0  0  0  0  0  0  0  0
   38.4290   40.5930   -3.3330 N   0  0  0  0  0  0  0  0  0  0  0  0
   37.4030   41.6220   -3.2240 C   0  0  1  0  0  0  0  0  0  0  0  0
   37.7430   42.5590   -2.0470 C   0  0  0  0  0  0  0  0  0  0  0  0
   36.4110   42.6600   -0.8010 S   0  0  0  0  0  0  0  0  0  0  0  0
   37.2760   42.4000   -4.5540 C   0  0  0  0  0  0  0  0  0  0  0  0
   36.1760   41.8710   -5.4490 C   0  0  0  0  0  0  0  0  0  0  0  0
   36.0430   40.4960   -5.6800 C   0  0  0  0  0  0  0  0  0  0  0  0
   35.0110   40.0110   -6.4860 C   0  0  0  0  0  0  0  0  0  0  0  0
   34.1060   40.8940   -7.0700 C   0  0  0  0  0  0  0  0  0  0  0  0
   34.2280   42.2640   -6.8460 C   0  0  0  0  0  0  0  0  0  0  0  0
   35.2550   42.7510   -6.0350 C   0  0  0  0  0  0  0  0  0  0  0  0
   39.2834   37.5170   -2.7343 H   0  0  0  0  0  0  0  0  0  0  0  0
   40.4070   38.7601   -2.0020 H   0  0  0  0  0  0  0  0  0  0  0  0
   39.1470   40.6440   -4.0720 H   0  0  0  0  0  0  0  0  0  0  0  0
   36.4278   41.1537   -3.0250 H   0  0  0  0  0  0  0  0  0  0  0  0
   38.6541   42.1869   -1.5556 H   0  0  0  0  0  0  0  0  0  0  0  0
   37.8806   43.5686   -2.4616 H   0  0  0  0  0  0  0  0  0  0  0  0
   36.0050   43.8930   -1.1410 H   0  0  0  0  0  0  0  0  0  0  0  0
   37.0632   43.4544   -4.3238 H   0  0  0  0  0  0  0  0  0  0  0  0
   38.2257   42.2801   -5.0959 H   0  0  0  0  0  0  0  0  0  0  0  0
   36.7560   39.7937   -5.2236 H   0  0  0  0  0  0  0  0  0  0  0  0
   34.9126   38.9293   -6.6600 H   0  0  0  0  0  0  0  0  0  0  0  0
   33.2957   40.5104   -7.7074 H   0  0  0  0  0  0  0  0  0  0  0  0
   33.5148   42.9622   -7.3084 H   0  0  0  0  0  0  0  0  0  0  0  0
   35.3422   43.8326   -5.8546 H   0  0  0  0  0  0  0  0  0  0  0  0
  1  2  2  0
  2  3  1  0
  2  4  1  0
  4  5  1  0
  5  6  2  0
  5  7  1  0
  7  8  1  0
  8  9  1  0
  9 10  1  0
  8 11  1  0
 11 12  1  0
 12 13  2  0
 13 14  1  0
 14 15  2  0
 15 16  1  0
 16 17  2  0
 17 12  1  0
  4 18  1  0
  4 19  1  0
  7 20  1  0
  8 21  1  1
  9 22  1  0
  9 23  1  0
 10 24  1  0
 11 25  1  0
 11 26  1  0
 13 27  1  0
 14 28  1  0
 15 29  1  0
 16 30  1  0
 17 31  1  0
M  CHG  1   3  -1
M  END
>  <meeko>  (9) 
{"is_sidechain": [false], "free_energy": -4.557, "intermolecular_energy": -6.496, "internal_energy": -0.639}

$$$$
