3nq9_ligand
     RDKit          3D

 25 24  0  0  0  0  0  0  0  0999 V2000
   -8.0310   -9.0550  -18.7210 C   0  0  0  0  0  0  0  0  0  0  0  0
   -9.0900   -8.2770  -17.9560 C   0  0  0  0  0  0  0  0  0  0  0  0
   -8.6800   -6.8350  -17.6420 C   0  0  0  0  0  0  0  0  0  0  0  0
   -7.3970   -6.4050  -18.3580 C   0  0  0  0  0  0  0  0  0  0  0  0
   -6.5260   -5.4590  -17.5240 C   0  0  0  0  0  0  0  0  0  0  0  0
   -5.0390   -5.5280  -17.8860 C   0  0  0  0  0  0  0  0  0  0  0  0
   -4.7080   -6.7560  -18.7320 C   0  0  0  0  0  0  0  0  0  0  0  0
   -3.9750   -7.8980  -18.0200 C   0  0  0  0  0  0  0  0  0  0  0  0
   -3.0470   -7.5640  -17.2340 O   0  0  0  0  0  0  0  0  0  0  0  0
   -4.4100   -9.0510  -18.3040 O   0  0  0  0  0  0  0  0  0  0  0  0
   -7.3551   -9.5515  -18.0092 H   0  0  0  0  0  0  0  0  0  0  0  0
   -8.5176   -9.8120  -19.3536 H   0  0  0  0  0  0  0  0  0  0  0  0
   -7.4541   -8.3643  -19.3536 H   0  0  0  0  0  0  0  0  0  0  0  0
  -10.0093   -8.2542  -18.5596 H   0  0  0  0  0  0  0  0  0  0  0  0
   -9.2359   -8.7891  -16.9935 H   0  0  0  0  0  0  0  0  0  0  0  0
   -9.4950   -6.1642  -17.9515 H   0  0  0  0  0  0  0  0  0  0  0  0
   -8.4867   -6.7775  -16.5606 H   0  0  0  0  0  0  0  0  0  0  0  0
   -6.8096   -7.3049  -18.5926 H   0  0  0  0  0  0  0  0  0  0  0  0
   -7.6969   -5.8583  -19.2642 H   0  0  0  0  0  0  0  0  0  0  0  0
   -6.8770   -4.4289  -17.6841 H   0  0  0  0  0  0  0  0  0  0  0  0
   -6.6205   -5.7702  -16.4732 H   0  0  0  0  0  0  0  0  0  0  0  0
   -4.7699   -4.6244  -18.4526 H   0  0  0  0  0  0  0  0  0  0  0  0
   -4.4662   -5.5984  -16.9496 H   0  0  0  0  0  0  0  0  0  0  0  0
   -5.6545   -7.1582  -19.1224 H   0  0  0  0  0  0  0  0  0  0  0  0
   -4.0110   -6.3988  -19.5044 H   0  0  0  0  0  0  0  0  0  0  0  0
  1  2  1  0
  2  3  1  0
  3  4  1  0
  4  5  1  0
  5  6  1  0
  6  7  1  0
  7  8  1  0
  8  9  2  0
  8 10  1  0
  1 11  1  0
  1 12  1  0
  1 13  1  0
  2 14  1  0
  2 15  1  0
  3 16  1  0
  3 17  1  0
  4 18  1  0
  4 19  1  0
  5 20  1  0
  5 21  1  0
  6 22  1  0
  6 23  1  0
  7 24  1  0
  7 25  1  0
M  CHG  1  10  -1
M  END
>  <meeko>  (1) 
{"is_sidechain": [false], "free_energy": -4.362, "intermolecular_energy": -5.892, "internal_energy": -0.404}

$$$$
3nq9_ligand
     RDKit          3D

 25 24  0  0  0  0  0  0  0  0999 V2000
   -9.1530   -7.0280  -17.2450 C   0  0  0  0  0  0  0  0  0  0  0  0
   -9.1520   -8.2930  -18.0900 C   0  0  0  0  0  0  0  0  0  0  0  0
   -7.7760   -8.6430  -18.6630 C   0  0  0  0  0  0  0  0  0  0  0  0
   -6.9430   -7.4100  -19.0240 C   0  0  0  0  0  0  0  0  0  0  0  0
   -5.5660   -7.3910  -18.3500 C   0  0  0  0  0  0  0  0  0  0  0  0
   -5.5140   -6.5000  -17.1040 C   0  0  0  0  0  0  0  0  0  0  0  0
   -5.8860   -5.0520  -17.4150 C   0  0  0  0  0  0  0  0  0  0  0  0
   -4.7250   -4.0570  -17.5250 C   0  0  0  0  0  0  0  0  0  0  0  0
   -3.6110   -4.5340  -17.8740 O   0  0  0  0  0  0  0  0  0  0  0  0
   -5.0400   -2.8610  -17.2610 O   0  0  0  0  0  0  0  0  0  0  0  0
   -9.1528   -7.2992  -16.1789 H   0  0  0  0  0  0  0  0  0  0  0  0
   -8.2553   -6.4344  -17.4725 H   0  0  0  0  0  0  0  0  0  0  0  0
  -10.0516   -6.4358  -17.4725 H   0  0  0  0  0  0  0  0  0  0  0  0
   -9.4916   -9.1308  -17.4632 H   0  0  0  0  0  0  0  0  0  0  0  0
   -9.8219   -8.1127  -18.9437 H   0  0  0  0  0  0  0  0  0  0  0  0
   -7.2245   -9.2309  -17.9145 H   0  0  0  0  0  0  0  0  0  0  0  0
   -7.9422   -9.2091  -19.5914 H   0  0  0  0  0  0  0  0  0  0  0  0
   -6.7985   -7.3931  -20.1143 H   0  0  0  0  0  0  0  0  0  0  0  0
   -7.4938   -6.5279  -18.6656 H   0  0  0  0  0  0  0  0  0  0  0  0
   -5.3070   -8.4187  -18.0555 H   0  0  0  0  0  0  0  0  0  0  0  0
   -4.8525   -6.9764  -19.0774 H   0  0  0  0  0  0  0  0  0  0  0  0
   -6.2185   -6.8942  -16.3568 H   0  0  0  0  0  0  0  0  0  0  0  0
   -4.4816   -6.5096  -16.7246 H   0  0  0  0  0  0  0  0  0  0  0  0
   -6.4253   -5.0438  -18.3737 H   0  0  0  0  0  0  0  0  0  0  0  0
   -6.4804   -4.7124  -16.5540 H   0  0  0  0  0  0  0  0  0  0  0  0
  1  2  1  0
  2  3  1  0
  3  4  1  0
  4  5  1  0
  5  6  1  0
  6  7  1  0
  7  8  1  0
  8  9  2  0
  8 10  1  0
  1 11  1  0
  1 12  1  0
  1 13  1  0
  2 14  1  0
  2 15  1  0
  3 16  1  0
  3 17  1  0
  4 18  1  0
  4 19  1  0
  5 20  1  0
  5 21  1  0
  6 22  1  0
  6 23  1  0
  7 24  1  0
  7 25  1  0
M  CHG  1  10  -1
M  END
>  <meeko>  (2) 
{"is_sidechain": [false], "free_energy": -4.241, "intermolecular_energy": -5.711, "internal_energy": -0.422}

$$$$
3nq9_ligand
     RDKit          3D

 25 24  0  0  0  0  0  0  0  0999 V2000
   -8.2730   -9.2700  -18.6940 C   0  0  0  0  0  0  0  0  0  0  0  0
   -8.9100   -8.1280  -17.9170 C   0  0  0  0  0  0  0  0  0  0  0  0
   -8.2710   -6.7650  -18.2030 C   0  0  0  0  0  0  0  0  0  0  0  0
   -6.8740   -6.8740  -18.8190 C   0  0  0  0  0  0  0  0  0  0  0  0
   -5.7700   -6.3070  -17.9190 C   0  0  0  0  0  0  0  0  0  0  0  0
   -6.1690   -5.0040  -17.2190 C   0  0  0  0  0  0  0  0  0  0  0  0
   -5.1850   -3.8710  -17.5030 C   0  0  0  0  0  0  0  0  0  0  0  0
   -4.1560   -3.5690  -16.4080 C   0  0  0  0  0  0  0  0  0  0  0  0
   -3.4140   -4.5270  -16.0570 O   0  0  0  0  0  0  0  0  0  0  0  0
   -4.1720   -2.3730  -15.9960 O   0  0  0  0  0  0  0  0  0  0  0  0
   -7.8614  -10.0079  -17.9897 H   0  0  0  0  0  0  0  0  0  0  0  0
   -9.0329   -9.7515  -19.3271 H   0  0  0  0  0  0  0  0  0  0  0  0
   -7.4641   -8.8764  -19.3271 H   0  0  0  0  0  0  0  0  0  0  0  0
   -9.9757   -8.0763  -18.1845 H   0  0  0  0  0  0  0  0  0  0  0  0
   -8.7588   -8.3391  -16.8481 H   0  0  0  0  0  0  0  0  0  0  0  0
   -8.9191   -6.2140  -18.9004 H   0  0  0  0  0  0  0  0  0  0  0  0
   -8.1650   -6.2440  -17.2400 H   0  0  0  0  0  0  0  0  0  0  0  0
   -6.6582   -7.9356  -19.0100 H   0  0  0  0  0  0  0  0  0  0  0  0
   -6.8781   -6.2795  -19.7445 H   0  0  0  0  0  0  0  0  0  0  0  0
   -5.5267   -7.0558  -17.1508 H   0  0  0  0  0  0  0  0  0  0  0  0
   -4.9082   -6.0800  -18.5638 H   0  0  0  0  0  0  0  0  0  0  0  0
   -7.1665   -4.7035  -17.5720 H   0  0  0  0  0  0  0  0  0  0  0  0
   -6.1666   -5.1891  -16.1347 H   0  0  0  0  0  0  0  0  0  0  0  0
   -4.6328   -4.1295  -18.4186 H   0  0  0  0  0  0  0  0  0  0  0  0
   -5.8010   -2.9631  -17.5823 H   0  0  0  0  0  0  0  0  0  0  0  0
  1  2  1  0
  2  3  1  0
  3  4  1  0
  4  5  1  0
  5  6  1  0
  6  7  1  0
  7  8  1  0
  8  9  2  0
  8 10  1  0
  1 11  1  0
  1 12  1  0
  1 13  1  0
  2 14  1  0
  2 15  1  0
  3 16  1  0
  3 17  1  0
  4 18  1  0
  4 19  1  0
  5 20  1  0
  5 21  1  0
  6 22  1  0
  6 23  1  0
  7 24  1  0
  7 25  1  0
M  CHG  1  10  -1
M  END
>  <meeko>  (3) 
{"is_sidechain": [false], "free_energy": -4.229, "intermolecular_energy": -5.849, "internal_energy": -0.266}

$$$$
3nq9_ligand
     RDKit          3D

 25 24  0  0  0  0  0  0  0  0999 V2000
   -3.2570   -3.0100  -15.8530 C   0  0  0  0  0  0  0  0  0  0  0  0
   -4.6370   -2.6810  -16.4030 C   0  0  0  0  0  0  0  0  0  0  0  0
   -5.1090   -3.6530  -17.4880 C   0  0  0  0  0  0  0  0  0  0  0  0
   -5.1490   -5.1080  -17.0150 C   0  0  0  0  0  0  0  0  0  0  0  0
   -6.4990   -5.7890  -17.2650 C   0  0  0  0  0  0  0  0  0  0  0  0
   -6.6150   -6.4100  -18.6610 C   0  0  0  0  0  0  0  0  0  0  0  0
   -8.0260   -6.9150  -18.9530 C   0  0  0  0  0  0  0  0  0  0  0  0
   -8.4910   -8.1400  -18.1570 C   0  0  0  0  0  0  0  0  0  0  0  0
   -9.1530   -7.9090  -17.1090 O   0  0  0  0  0  0  0  0  0  0  0  0
   -8.1570   -9.2480  -18.6690 O   0  0  0  0  0  0  0  0  0  0  0  0
   -3.2891   -3.0023  -14.7535 H   0  0  0  0  0  0  0  0  0  0  0  0
   -2.9504   -4.0064  -16.2039 H   0  0  0  0  0  0  0  0  0  0  0  0
   -2.5338   -2.2591  -16.2039 H   0  0  0  0  0  0  0  0  0  0  0  0
   -5.3584   -2.7085  -15.5730 H   0  0  0  0  0  0  0  0  0  0  0  0
   -4.5721   -1.6853  -16.8661 H   0  0  0  0  0  0  0  0  0  0  0  0
   -6.1209   -3.3599  -17.8044 H   0  0  0  0  0  0  0  0  0  0  0  0
   -4.3862   -3.5970  -18.3153 H   0  0  0  0  0  0  0  0  0  0  0  0
   -4.3696   -5.6707  -17.5498 H   0  0  0  0  0  0  0  0  0  0  0  0
   -4.9831   -5.1021  -15.9276 H   0  0  0  0  0  0  0  0  0  0  0  0
   -6.6328   -6.5842  -16.5169 H   0  0  0  0  0  0  0  0  0  0  0  0
   -7.2747   -5.0129  -17.1881 H   0  0  0  0  0  0  0  0  0  0  0  0
   -6.3490   -5.6496  -19.4100 H   0  0  0  0  0  0  0  0  0  0  0  0
   -5.9325   -7.2716  -18.7047 H   0  0  0  0  0  0  0  0  0  0  0  0
   -8.7259   -6.0932  -18.7413 H   0  0  0  0  0  0  0  0  0  0  0  0
   -8.0081   -7.2395  -20.0039 H   0  0  0  0  0  0  0  0  0  0  0  0
  1  2  1  0
  2  3  1  0
  3  4  1  0
  4  5  1  0
  5  6  1  0
  6  7  1  0
  7  8  1  0
  8  9  2  0
  8 10  1  0
  1 11  1  0
  1 12  1  0
  1 13  1  0
  2 14  1  0
  2 15  1  0
  3 16  1  0
  3 17  1  0
  4 18  1  0
  4 19  1  0
  5 20  1  0
  5 21  1  0
  6 22  1  0
  6 23  1  0
  7 24  1  0
  7 25  1  0
M  CHG  1  10  -1
M  END
>  <meeko>  (4) 
{"is_sidechain": [false], "free_energy": -4.197, "intermolecular_energy": -5.921, "internal_energy": -0.152}

$$$$
3nq9_ligand
     RDKit          3D

 25 24  0  0  0  0  0  0  0  0999 V2000
   -8.6010   -7.4470  -18.0100 C   0  0  0  0  0  0  0  0  0  0  0  0
   -7.5470   -6.5310  -18.6120 C   0  0  0  0  0  0  0  0  0  0  0  0
   -6.7010   -5.8020  -17.5630 C   0  0  0  0  0  0  0  0  0  0  0  0
   -5.2190   -5.7220  -17.9360 C   0  0  0  0  0  0  0  0  0  0  0  0
   -4.8090   -6.7330  -19.0130 C   0  0  0  0  0  0  0  0  0  0  0  0
   -3.5550   -7.5320  -18.6470 C   0  0  0  0  0  0  0  0  0  0  0  0
   -2.4030   -7.2730  -19.6150 C   0  0  0  0  0  0  0  0  0  0  0  0
   -1.2810   -8.3180  -19.6380 C   0  0  0  0  0  0  0  0  0  0  0  0
   -0.5500   -8.3320  -20.6660 O   0  0  0  0  0  0  0  0  0  0  0  0
   -1.2210   -9.0370  -18.5990 O   0  0  0  0  0  0  0  0  0  0  0  0
   -8.5453   -7.3986  -16.9125 H   0  0  0  0  0  0  0  0  0  0  0  0
   -9.5992   -7.1246  -18.3410 H   0  0  0  0  0  0  0  0  0  0  0  0
   -8.4209   -8.4804  -18.3410 H   0  0  0  0  0  0  0  0  0  0  0  0
   -6.8771   -7.1364  -19.2403 H   0  0  0  0  0  0  0  0  0  0  0  0
   -8.0789   -5.7616  -19.1909 H   0  0  0  0  0  0  0  0  0  0  0  0
   -7.0891   -4.7790  -17.4498 H   0  0  0  0  0  0  0  0  0  0  0  0
   -6.7729   -6.3760  -16.6274 H   0  0  0  0  0  0  0  0  0  0  0  0
   -5.0072   -4.7092  -18.3092 H   0  0  0  0  0  0  0  0  0  0  0  0
   -4.6419   -5.9592  -17.0301 H   0  0  0  0  0  0  0  0  0  0  0  0
   -5.6400   -7.4375  -19.1651 H   0  0  0  0  0  0  0  0  0  0  0  0
   -4.5775   -6.1625  -19.9245 H   0  0  0  0  0  0  0  0  0  0  0  0
   -3.2368   -7.2471  -17.6333 H   0  0  0  0  0  0  0  0  0  0  0  0
   -3.8080   -8.6011  -18.7016 H   0  0  0  0  0  0  0  0  0  0  0  0
   -2.8253   -7.2136  -20.6290 H   0  0  0  0  0  0  0  0  0  0  0  0
   -1.9294   -6.3449  -19.2625 H   0  0  0  0  0  0  0  0  0  0  0  0
  1  2  1  0
  2  3  1  0
  3  4  1  0
  4  5  1  0
  5  6  1  0
  6  7  1  0
  7  8  1  0
  8  9  2  0
  8 10  1  0
  1 11  1  0
  1 12  1  0
  1 13  1  0
  2 14  1  0
  2 15  1  0
  3 16  1  0
  3 17  1  0
  4 18  1  0
  4 19  1  0
  5 20  1  0
  5 21  1  0
  6 22  1  0
  6 23  1  0
  7 24  1  0
  7 25  1  0
M  CHG  1  10  -1
M  END
>  <meeko>  (5) 
{"is_sidechain": [false], "free_energy": -4.035, "intermolecular_energy": -5.64, "internal_energy": -0.215}

$$$$
3nq9_ligand
     RDKit          3D

 25 24  0  0  0  0  0  0  0  0999 V2000
   -8.6930   -8.4740  -18.2280 C   0  0  0  0  0  0  0  0  0  0  0  0
   -8.5510   -7.0090  -17.8430 C   0  0  0  0  0  0  0  0  0  0  0  0
   -7.3300   -6.3290  -18.4690 C   0  0  0  0  0  0  0  0  0  0  0  0
   -6.4060   -5.6810  -17.4350 C   0  0  0  0  0  0  0  0  0  0  0  0
   -5.1200   -6.4780  -17.1900 C   0  0  0  0  0  0  0  0  0  0  0  0
   -4.6190   -7.2180  -18.4350 C   0  0  0  0  0  0  0  0  0  0  0  0
   -4.5510   -8.7280  -18.2190 C   0  0  0  0  0  0  0  0  0  0  0  0
   -3.1510   -9.3340  -18.0730 C   0  0  0  0  0  0  0  0  0  0  0  0
   -2.7620   -9.5680  -16.8960 O   0  0  0  0  0  0  0  0  0  0  0  0
   -2.5570   -9.5400  -19.1710 O   0  0  0  0  0  0  0  0  0  0  0  0
   -8.7525   -9.0883  -17.3175 H   0  0  0  0  0  0  0  0  0  0  0  0
   -9.6085   -8.6098  -18.8225 H   0  0  0  0  0  0  0  0  0  0  0  0
   -7.8206   -8.7831  -18.8225 H   0  0  0  0  0  0  0  0  0  0  0  0
   -9.4542   -6.4736  -18.1710 H   0  0  0  0  0  0  0  0  0  0  0  0
   -8.4179   -6.9725  -16.7517 H   0  0  0  0  0  0  0  0  0  0  0  0
   -6.7563   -7.0842  -19.0262 H   0  0  0  0  0  0  0  0  0  0  0  0
   -7.7017   -5.5272  -19.1240 H   0  0  0  0  0  0  0  0  0  0  0  0
   -6.1324   -4.6770  -17.7914 H   0  0  0  0  0  0  0  0  0  0  0  0
   -6.9552   -5.6463  -16.4825 H   0  0  0  0  0  0  0  0  0  0  0  0
   -4.3356   -5.7818  -16.8584 H   0  0  0  0  0  0  0  0  0  0  0  0
   -5.3481   -7.2385  -16.4287 H   0  0  0  0  0  0  0  0  0  0  0  0
   -5.3037   -7.0100  -19.2704 H   0  0  0  0  0  0  0  0  0  0  0  0
   -3.6016   -6.8616  -18.6536 H   0  0  0  0  0  0  0  0  0  0  0  0
   -5.1133   -8.9605  -17.3026 H   0  0  0  0  0  0  0  0  0  0  0  0
   -4.9674   -9.1728  -19.1348 H   0  0  0  0  0  0  0  0  0  0  0  0
  1  2  1  0
  2  3  1  0
  3  4  1  0
  4  5  1  0
  5  6  1  0
  6  7  1  0
  7  8  1  0
  8  9  2  0
  8 10  1  0
  1 11  1  0
  1 12  1  0
  1 13  1  0
  2 14  1  0
  2 15  1  0
  3 16  1  0
  3 17  1  0
  4 18  1  0
  4 19  1  0
  5 20  1  0
  5 21  1  0
  6 22  1  0
  6 23  1  0
  7 24  1  0
  7 25  1  0
M  CHG  1  10  -1
M  END
>  <meeko>  (6) 
{"is_sidechain": [false], "free_energy": -3.962, "intermolecular_energy": -5.348, "internal_energy": -0.408}

$$$$
3nq9_ligand
     RDKit          3D

 25 24  0  0  0  0  0  0  0  0999 V2000
   -8.9540   -8.3310  -18.1330 C   0  0  0  0  0  0  0  0  0  0  0  0
   -8.5770   -6.9180  -17.7150 C   0  0  0  0  0  0  0  0  0  0  0  0
   -7.3950   -6.3440  -18.5030 C   0  0  0  0  0  0  0  0  0  0  0  0
   -6.3440   -5.6790  -17.6120 C   0  0  0  0  0  0  0  0  0  0  0  0
   -5.3960   -6.6820  -16.9420 C   0  0  0  0  0  0  0  0  0  0  0  0
   -4.8620   -7.7460  -17.9070 C   0  0  0  0  0  0  0  0  0  0  0  0
   -3.3400   -7.7120  -18.0180 C   0  0  0  0  0  0  0  0  0  0  0  0
   -2.7630   -7.3880  -19.4000 C   0  0  0  0  0  0  0  0  0  0  0  0
   -1.9430   -8.2220  -19.8750 O   0  0  0  0  0  0  0  0  0  0  0  0
   -3.1990   -6.3140  -19.9070 O   0  0  0  0  0  0  0  0  0  0  0  0
   -9.1184   -8.9470  -17.2366 H   0  0  0  0  0  0  0  0  0  0  0  0
   -9.8759   -8.3024  -18.7323 H   0  0  0  0  0  0  0  0  0  0  0  0
   -8.1404   -8.7655  -18.7323 H   0  0  0  0  0  0  0  0  0  0  0  0
   -9.4486   -6.2648  -17.8690 H   0  0  0  0  0  0  0  0  0  0  0  0
   -8.2716   -6.9628  -16.6592 H   0  0  0  0  0  0  0  0  0  0  0  0
   -6.9148   -7.1626  -19.0591 H   0  0  0  0  0  0  0  0  0  0  0  0
   -7.7941   -5.5684  -19.1731 H   0  0  0  0  0  0  0  0  0  0  0  0
   -5.7464   -4.9923  -18.2295 H   0  0  0  0  0  0  0  0  0  0  0  0
   -6.8820   -5.1525  -16.8099 H   0  0  0  0  0  0  0  0  0  0  0  0
   -4.5418   -6.1296  -16.5233 H   0  0  0  0  0  0  0  0  0  0  0  0
   -5.9711   -7.2056  -16.1641 H   0  0  0  0  0  0  0  0  0  0  0  0
   -5.1687   -8.7384  -17.5450 H   0  0  0  0  0  0  0  0  0  0  0  0
   -5.2780   -7.5372  -18.9037 H   0  0  0  0  0  0  0  0  0  0  0  0
   -2.9704   -6.9513  -17.3147 H   0  0  0  0  0  0  0  0  0  0  0  0
   -3.0087   -8.7374  -17.7970 H   0  0  0  0  0  0  0  0  0  0  0  0
  1  2  1  0
  2  3  1  0
  3  4  1  0
  4  5  1  0
  5  6  1  0
  6  7  1  0
  7  8  1  0
  8  9  2  0
  8 10  1  0
  1 11  1  0
  1 12  1  0
  1 13  1  0
  2 14  1  0
  2 15  1  0
  3 16  1  0
  3 17  1  0
  4 18  1  0
  4 19  1  0
  5 20  1  0
  5 21  1  0
  6 22  1  0
  6 23  1  0
  7 24  1  0
  7 25  1  0
M  CHG  1  10  -1
M  END
>  <meeko>  (7) 
{"is_sidechain": [false], "free_energy": -3.855, "intermolecular_energy": -5.25, "internal_energy": -0.361}

$$$$
3nq9_ligand
     RDKit          3D

 25 24  0  0  0  0  0  0  0  0999 V2000
   -1.8480   -7.4330  -18.2900 C   0  0  0  0  0  0  0  0  0  0  0  0
   -2.6160   -7.3090  -19.5970 C   0  0  0  0  0  0  0  0  0  0  0  0
   -3.8090   -6.3520  -19.5160 C   0  0  0  0  0  0  0  0  0  0  0  0
   -5.0380   -6.9770  -18.8520 C   0  0  0  0  0  0  0  0  0  0  0  0
   -5.4850   -6.2370  -17.5870 C   0  0  0  0  0  0  0  0  0  0  0  0
   -6.9760   -5.8820  -17.5880 C   0  0  0  0  0  0  0  0  0  0  0  0
   -7.7820   -6.7800  -18.5240 C   0  0  0  0  0  0  0  0  0  0  0  0
   -8.4790   -7.9840  -17.8820 C   0  0  0  0  0  0  0  0  0  0  0  0
   -8.3110   -9.0980  -18.4520 O   0  0  0  0  0  0  0  0  0  0  0  0
   -9.1350   -7.7080  -16.8370 O   0  0  0  0  0  0  0  0  0  0  0  0
   -2.5426   -7.3208  -17.4445 H   0  0  0  0  0  0  0  0  0  0  0  0
   -1.3661   -8.4206  -18.2401 H   0  0  0  0  0  0  0  0  0  0  0  0
   -1.0798   -6.6473  -18.2401 H   0  0  0  0  0  0  0  0  0  0  0  0
   -1.9272   -6.9420  -20.3721 H   0  0  0  0  0  0  0  0  0  0  0  0
   -3.0164   -8.3060  -19.8329 H   0  0  0  0  0  0  0  0  0  0  0  0
   -3.5091   -5.4676  -18.9347 H   0  0  0  0  0  0  0  0  0  0  0  0
   -4.0907   -6.0921  -20.5471 H   0  0  0  0  0  0  0  0  0  0  0  0
   -5.8679   -6.9672  -19.5739 H   0  0  0  0  0  0  0  0  0  0  0  0
   -4.7621   -7.9986  -18.5517 H   0  0  0  0  0  0  0  0  0  0  0  0
   -5.2790   -6.8773  -16.7166 H   0  0  0  0  0  0  0  0  0  0  0  0
   -4.9247   -5.2913  -17.5473 H   0  0  0  0  0  0  0  0  0  0  0  0
   -7.3674   -5.9934  -16.5660 H   0  0  0  0  0  0  0  0  0  0  0  0
   -7.0763   -4.8462  -17.9443 H   0  0  0  0  0  0  0  0  0  0  0  0
   -8.5562   -6.1592  -18.9985 H   0  0  0  0  0  0  0  0  0  0  0  0
   -7.0476   -7.2067  -19.2230 H   0  0  0  0  0  0  0  0  0  0  0  0
  1  2  1  0
  2  3  1  0
  3  4  1  0
  4  5  1  0
  5  6  1  0
  6  7  1  0
  7  8  1  0
  8  9  2  0
  8 10  1  0
  1 11  1  0
  1 12  1  0
  1 13  1  0
  2 14  1  0
  2 15  1  0
  3 16  1  0
  3 17  1  0
  4 18  1  0
  4 19  1  0
  5 20  1  0
  5 21  1  0
  6 22  1  0
  6 23  1  0
  7 24  1  0
  7 25  1  0
M  CHG  1  10  -1
M  END
>  <meeko>  (8) 
{"is_sidechain": [false], "free_energy": -3.789, "intermolecular_energy": -5.241, "internal_energy": -0.282}

$$$$
3nq9_ligand
     RDKit          3D

 25 24  0  0  0  0  0  0  0  0999 V2000
   -3.5600   -3.4090  -17.3880 C   0  0  0  0  0  0  0  0  0  0  0  0
   -5.0780   -3.4860  -17.3260 C   0  0  0  0  0  0  0  0  0  0  0  0
   -5.6220   -4.9110  -17.4620 C   0  0  0  0  0  0  0  0  0  0  0  0
   -4.5250   -5.9570  -17.6760 C   0  0  0  0  0  0  0  0  0  0  0  0
   -4.5980   -6.6390  -19.0470 C   0  0  0  0  0  0  0  0  0  0  0  0
   -3.3220   -6.4670  -19.8770 C   0  0  0  0  0  0  0  0  0  0  0  0
   -2.0940   -7.0430  -19.1740 C   0  0  0  0  0  0  0  0  0  0  0  0
   -1.5940   -8.4010  -19.6770 C   0  0  0  0  0  0  0  0  0  0  0  0
   -0.6920   -8.3750  -20.5590 O   0  0  0  0  0  0  0  0  0  0  0  0
   -2.1490   -9.3950  -19.1240 O   0  0  0  0  0  0  0  0  0  0  0  0
   -3.1519   -3.3883  -16.3667 H   0  0  0  0  0  0  0  0  0  0  0  0
   -3.1697   -4.2885  -17.9211 H   0  0  0  0  0  0  0  0  0  0  0  0
   -3.2607   -2.4945  -17.9211 H   0  0  0  0  0  0  0  0  0  0  0  0
   -5.4084   -3.0777  -16.3595 H   0  0  0  0  0  0  0  0  0  0  0  0
   -5.4669   -2.9079  -18.1772 H   0  0  0  0  0  0  0  0  0  0  0  0
   -6.1724   -5.1643  -16.5439 H   0  0  0  0  0  0  0  0  0  0  0  0
   -6.2701   -4.9302  -18.3506 H   0  0  0  0  0  0  0  0  0  0  0  0
   -3.5472   -5.4616  -17.5839 H   0  0  0  0  0  0  0  0  0  0  0  0
   -4.6665   -6.7385  -16.9149 H   0  0  0  0  0  0  0  0  0  0  0  0
   -4.7726   -7.7142  -18.8935 H   0  0  0  0  0  0  0  0  0  0  0  0
   -5.4171   -6.1622  -19.6053 H   0  0  0  0  0  0  0  0  0  0  0  0
   -3.4534   -6.9827  -20.8397 H   0  0  0  0  0  0  0  0  0  0  0  0
   -3.1548   -5.3892  -20.0197 H   0  0  0  0  0  0  0  0  0  0  0  0
   -1.2727   -6.3204  -19.2898 H   0  0  0  0  0  0  0  0  0  0  0  0
   -2.4073   -7.2147  -18.1336 H   0  0  0  0  0  0  0  0  0  0  0  0
  1  2  1  0
  2  3  1  0
  3  4  1  0
  4  5  1  0
  5  6  1  0
  6  7  1  0
  7  8  1  0
  8  9  2  0
  8 10  1  0
  1 11  1  0
  1 12  1  0
  1 13  1  0
  2 14  1  0
  2 15  1  0
  3 16  1  0
  3 17  1  0
  4 18  1  0
  4 19  1  0
  5 20  1  0
  5 21  1  0
  6 22  1  0
  6 23  1  0
  7 24  1  0
  7 25  1  0
M  CHG  1  10  -1
M  END
>  <meeko>  (9) 
{"is_sidechain": [false], "free_energy": -3.761, "intermolecular_energy": -5.096, "internal_energy": -0.388}

$$$$
