1h22_ligand
     RDKit          3D

 78 81  0  0  0  0  0  0  0  0999 V2000
    0.5780   68.4610   60.0630 O   0  0  0  0  0  0  0  0  0  0  0  0
    1.2300   68.3740   61.0940 C   0  0  0  0  0  0  0  0  0  0  0  0
    0.5740   68.1480   62.4030 C   0  0  0  0  0  0  0  0  0  0  0  0
    1.3210   67.9920   63.5050 C   0  0  0  0  0  0  0  0  0  0  0  0
    2.7780   68.0190   63.4400 C   0  0  0  0  0  0  0  0  0  0  0  0
    3.3680   68.3130   62.2610 C   0  0  0  0  0  0  0  0  0  0  0  0
    2.5980   68.4760   61.1320 N   0  0  0  0  0  0  0  0  0  0  0  0
    4.8530   68.4980   62.0970 C   0  0  0  0  0  0  0  0  0  0  0  0
    5.5550   68.7260   63.4370 C   0  0  0  0  0  0  0  0  0  0  0  0
    5.1070   67.6890   64.4630 C   0  0  0  0  0  0  0  0  0  0  0  0
    3.5830   67.7480   64.6940 C   0  0  2  0  0  0  0  0  0  0  0  0
    3.1650   66.4970   65.4410 N   0  0  0  0  0  0  0  0  0  0  0  0
    4.2540   65.5710   65.9050 C   0  0  0  0  0  0  0  0  0  0  0  0
    3.8920   65.0370   67.2900 C   0  0  0  0  0  0  0  0  0  0  0  0
    5.0490   65.1400   68.2940 C   0  0  0  0  0  0  0  0  0  0  0  0
    4.6270   64.8940   69.7480 C   0  0  0  0  0  0  0  0  0  0  0  0
    4.8940   63.4580   70.2180 C   0  0  0  0  0  0  0  0  0  0  0  0
    3.8090   62.4310   69.8760 C   0  0  0  0  0  0  0  0  0  0  0  0
    3.3120   61.6430   71.0930 C   0  0  0  0  0  0  0  0  0  0  0  0
    2.0300   62.2640   71.6600 C   0  0  0  0  0  0  0  0  0  0  0  0
    1.1000   62.8390   70.5850 C   0  0  0  0  0  0  0  0  0  0  0  0
    0.7430   64.3170   70.7380 C   0  0  0  0  0  0  0  0  0  0  0  0
    1.0370   65.0570   69.4730 N   0  0  0  0  0  0  0  0  0  0  0  0
    0.8220   66.5570   69.5060 C   0  0  1  0  0  0  0  0  0  0  0  0
    2.2060   67.2290   69.3860 C   0  0  0  0  0  0  0  0  0  0  0  0
    2.1060   68.6790   68.9270 C   0  0  0  0  0  0  0  0  0  0  0  0
    1.4190   68.7650   67.5650 C   0  0  0  0  0  0  0  0  0  0  0  0
    0.1460   67.9630   67.5330 C   0  0  0  0  0  0  0  0  0  0  0  0
   -0.7520   68.2790   66.5380 N   0  0  0  0  0  0  0  0  0  0  0  0
   -1.9800   67.6890   66.3730 C   0  0  0  0  0  0  0  0  0  0  0  0
   -2.7350   67.9620   65.4520 O   0  0  0  0  0  0  0  0  0  0  0  0
   -2.3480   66.6930   67.4040 C   0  0  0  0  0  0  0  0  0  0  0  0
   -1.4770   66.3860   68.3760 C   0  0  0  0  0  0  0  0  0  0  0  0
   -0.1520   66.9960   68.4270 C   0  0  0  0  0  0  0  0  0  0  0  0
   -0.5232   68.1083   62.4704 H   0  0  0  0  0  0  0  0  0  0  0  0
    0.8264   67.8409   64.4758 H   0  0  0  0  0  0  0  0  0  0  0  0
    3.0310   68.6820   60.2360 H   0  0  0  0  0  0  0  0  0  0  0  0
    5.2728   67.5974   61.6251 H   0  0  0  0  0  0  0  0  0  0  0  0
    5.0169   69.3885   61.4724 H   0  0  0  0  0  0  0  0  0  0  0  0
    6.6426   68.6456   63.2933 H   0  0  0  0  0  0  0  0  0  0  0  0
    5.2925   69.7276   63.8082 H   0  0  0  0  0  0  0  0  0  0  0  0
    5.3753   66.6862   64.0990 H   0  0  0  0  0  0  0  0  0  0  0  0
    5.6104   67.9056   65.4168 H   0  0  0  0  0  0  0  0  0  0  0  0
    3.3513   68.6255   65.3155 H   0  0  0  0  0  0  0  0  0  0  0  0
    2.5960   66.7820   66.2510 H   0  0  0  0  0  0  0  0  0  0  0  0
    2.5230   65.9760   64.8330 H   0  0  0  0  0  0  0  0  0  0  0  0
    4.3513   64.7325   65.1997 H   0  0  0  0  0  0  0  0  0  0  0  0
    5.2097   66.1135   65.9526 H   0  0  0  0  0  0  0  0  0  0  0  0
    3.0398   65.6150   67.6768 H   0  0  0  0  0  0  0  0  0  0  0  0
    3.6477   63.9704   67.1778 H   0  0  0  0  0  0  0  0  0  0  0  0
    5.8115   64.3950   68.0229 H   0  0  0  0  0  0  0  0  0  0  0  0
    5.4310   66.1701   68.2399 H   0  0  0  0  0  0  0  0  0  0  0  0
    5.1866   65.5842   70.3964 H   0  0  0  0  0  0  0  0  0  0  0  0
    3.5415   65.0617   69.8071 H   0  0  0  0  0  0  0  0  0  0  0  0
    5.8344   63.1215   69.7571 H   0  0  0  0  0  0  0  0  0  0  0  0
    4.9254   63.5045   71.3166 H   0  0  0  0  0  0  0  0  0  0  0  0
    2.9542   62.9617   69.4313 H   0  0  0  0  0  0  0  0  0  0  0  0
    4.2558   61.7059   69.1798 H   0  0  0  0  0  0  0  0  0  0  0  0
    3.1066   60.6054   70.7910 H   0  0  0  0  0  0  0  0  0  0  0  0
    4.0895   61.6698   71.8707 H   0  0  0  0  0  0  0  0  0  0  0  0
    1.4828   61.4872   72.2142 H   0  0  0  0  0  0  0  0  0  0  0  0
    2.3346   63.1014   72.3050 H   0  0  0  0  0  0  0  0  0  0  0  0
    1.5908   62.7093   69.6092 H   0  0  0  0  0  0  0  0  0  0  0  0
    0.1519   62.2901   70.6844 H   0  0  0  0  0  0  0  0  0  0  0  0
   -0.3280   64.4090   70.9713 H   0  0  0  0  0  0  0  0  0  0  0  0
    1.3451   64.7475   71.5517 H   0  0  0  0  0  0  0  0  0  0  0  0
    0.4450   64.6700   68.7290 H   0  0  0  0  0  0  0  0  0  0  0  0
    2.0020   64.8840   69.1630 H   0  0  0  0  0  0  0  0  0  0  0  0
    0.3573   66.8671   70.4536 H   0  0  0  0  0  0  0  0  0  0  0  0
    2.6989   67.2021   70.3690 H   0  0  0  0  0  0  0  0  0  0  0  0
    2.7849   66.6759   68.6317 H   0  0  0  0  0  0  0  0  0  0  0  0
    1.5228   69.2519   69.6630 H   0  0  0  0  0  0  0  0  0  0  0  0
    3.1208   69.0944   68.8395 H   0  0  0  0  0  0  0  0  0  0  0  0
    1.1828   69.8177   67.3506 H   0  0  0  0  0  0  0  0  0  0  0  0
    2.1034   68.3530   66.8087 H   0  0  0  0  0  0  0  0  0  0  0  0
   -0.5350   68.9940   65.8500 H   0  0  0  0  0  0  0  0  0  0  0  0
   -3.3337   66.2058   67.3729 H   0  0  0  0  0  0  0  0  0  0  0  0
   -1.7667   65.6602   69.1502 H   0  0  0  0  0  0  0  0  0  0  0  0
  1  2  2  0
  2  3  1  0
  3  4  2  0
  4  5  1  0
  5  6  2  0
  6  7  1  0
  6  8  1  0
  8  9  1  0
  9 10  1  0
 10 11  1  0
 11 12  1  0
 12 13  1  0
 13 14  1  0
 14 15  1  0
 15 16  1  0
 16 17  1  0
 17 18  1  0
 18 19  1  0
 19 20  1  0
 20 21  1  0
 21 22  1  0
 22 23  1  0
 23 24  1  0
 24 25  1  0
 25 26  1  0
 26 27  1  0
 27 28  1  0
 28 29  1  0
 29 30  1  0
 30 31  2  0
 30 32  1  0
 32 33  2  0
 33 34  1  0
  7  2  1  0
 34 24  1  0
 11  5  1  0
 34 28  2  0
  3 35  1  0
  4 36  1  0
  7 37  1  0
  8 38  1  0
  8 39  1  0
  9 40  1  0
  9 41  1  0
 10 42  1  0
 10 43  1  0
 11 44  1  1
 12 45  1  0
 12 46  1  0
 13 47  1  0
 13 48  1  0
 14 49  1  0
 14 50  1  0
 15 51  1  0
 15 52  1  0
 16 53  1  0
 16 54  1  0
 17 55  1  0
 17 56  1  0
 18 57  1  0
 18 58  1  0
 19 59  1  0
 19 60  1  0
 20 61  1  0
 20 62  1  0
 21 63  1  0
 21 64  1  0
 22 65  1  0
 22 66  1  0
 23 67  1  0
 23 68  1  0
 24 69  1  1
 25 70  1  0
 25 71  1  0
 26 72  1  0
 26 73  1  0
 27 74  1  0
 27 75  1  0
 29 76  1  0
 32 77  1  0
 33 78  1  0
M  CHG  2  12   1  23   1
M  END
>  <meeko>  (1) 
{"is_sidechain": [false], "free_energy": -11.331, "intermolecular_energy": -19.942, "internal_energy": -2.138}

$$$$
1h22_ligand
     RDKit          3D

 78 81  0  0  0  0  0  0  0  0999 V2000
   -2.6050   68.0050   65.3620 O   0  0  0  0  0  0  0  0  0  0  0  0
   -1.9210   67.7030   66.3290 C   0  0  0  0  0  0  0  0  0  0  0  0
   -2.4230   66.7700   67.3650 C   0  0  0  0  0  0  0  0  0  0  0  0
   -1.6240   66.4080   68.3800 C   0  0  0  0  0  0  0  0  0  0  0  0
   -0.2530   66.9000   68.4740 C   0  0  0  0  0  0  0  0  0  0  0  0
    0.1680   67.8170   67.5760 C   0  0  0  0  0  0  0  0  0  0  0  0
   -0.6560   68.1890   66.5380 N   0  0  0  0  0  0  0  0  0  0  0  0
    1.5120   68.4940   67.6480 C   0  0  0  0  0  0  0  0  0  0  0  0
    2.1550   68.3500   69.0290 C   0  0  0  0  0  0  0  0  0  0  0  0
    2.0970   66.9000   69.5010 C   0  0  0  0  0  0  0  0  0  0  0  0
    0.6420   66.3940   69.5860 C   0  0  2  0  0  0  0  0  0  0  0  0
    0.6690   64.8840   69.7220 N   0  0  0  0  0  0  0  0  0  0  0  0
    0.5580   64.3120   71.1070 C   0  0  0  0  0  0  0  0  0  0  0  0
    0.0180   62.8850   71.0100 C   0  0  0  0  0  0  0  0  0  0  0  0
    1.1280   61.8280   70.9170 C   0  0  0  0  0  0  0  0  0  0  0  0
    2.4600   62.2780   71.5280 C   0  0  0  0  0  0  0  0  0  0  0  0
    3.6460   62.1250   70.5660 C   0  0  0  0  0  0  0  0  0  0  0  0
    3.7200   63.1490   69.4290 C   0  0  0  0  0  0  0  0  0  0  0  0
    4.5630   64.3810   69.7730 C   0  0  0  0  0  0  0  0  0  0  0  0
    5.1740   64.9980   68.5090 C   0  0  0  0  0  0  0  0  0  0  0  0
    4.1630   65.1960   67.3740 C   0  0  0  0  0  0  0  0  0  0  0  0
    4.6580   66.0110   66.1790 C   0  0  0  0  0  0  0  0  0  0  0  0
    3.5150   66.7080   65.5150 N   0  0  0  0  0  0  0  0  0  0  0  0
    3.8440   67.9960   64.7860 C   0  0  1  0  0  0  0  0  0  0  0  0
    5.3630   68.0020   64.5140 C   0  0  0  0  0  0  0  0  0  0  0  0
    5.7450   68.9670   63.3980 C   0  0  0  0  0  0  0  0  0  0  0  0
    5.0340   68.5930   62.0980 C   0  0  0  0  0  0  0  0  0  0  0  0
    3.5620   68.3690   62.3140 C   0  0  0  0  0  0  0  0  0  0  0  0
    2.7620   68.4320   61.1960 N   0  0  0  0  0  0  0  0  0  0  0  0
    1.3970   68.2960   61.1980 C   0  0  0  0  0  0  0  0  0  0  0  0
    0.7210   68.3140   60.1810 O   0  0  0  0  0  0  0  0  0  0  0  0
    0.7790   68.1380   62.5350 C   0  0  0  0  0  0  0  0  0  0  0  0
    1.5560   68.0790   63.6260 C   0  0  0  0  0  0  0  0  0  0  0  0
    3.0100   68.1420   63.5250 C   0  0  0  0  0  0  0  0  0  0  0  0
   -3.4478   66.3754   67.3020 H   0  0  0  0  0  0  0  0  0  0  0  0
   -2.0087   65.7286   69.1549 H   0  0  0  0  0  0  0  0  0  0  0  0
   -0.3430   68.8670   65.8490 H   0  0  0  0  0  0  0  0  0  0  0  0
    2.1776   68.0421   66.8978 H   0  0  0  0  0  0  0  0  0  0  0  0
    1.3623   69.5663   67.4539 H   0  0  0  0  0  0  0  0  0  0  0  0
    3.2059   68.6701   68.9734 H   0  0  0  0  0  0  0  0  0  0  0  0
    1.6028   68.9776   69.7440 H   0  0  0  0  0  0  0  0  0  0  0  0
    2.6542   66.2701   68.7919 H   0  0  0  0  0  0  0  0  0  0  0  0
    2.5423   66.8445   70.5053 H   0  0  0  0  0  0  0  0  0  0  0  0
    0.1682   66.8214   70.4820 H   0  0  0  0  0  0  0  0  0  0  0  0
   -0.0820   64.4960   69.1340 H   0  0  0  0  0  0  0  0  0  0  0  0
    1.5420   64.5530   69.2950 H   0  0  0  0  0  0  0  0  0  0  0  0
    1.5498   64.3002   71.5825 H   0  0  0  0  0  0  0  0  0  0  0  0
   -0.1230   64.9285   71.7121 H   0  0  0  0  0  0  0  0  0  0  0  0
   -0.5887   62.6784   71.9040 H   0  0  0  0  0  0  0  0  0  0  0  0
   -0.5760   62.8202   70.0864 H   0  0  0  0  0  0  0  0  0  0  0  0
    0.7915   60.9236   71.4452 H   0  0  0  0  0  0  0  0  0  0  0  0
    1.3100   61.6461   69.8475 H   0  0  0  0  0  0  0  0  0  0  0  0
    2.3745   63.3371   71.8126 H   0  0  0  0  0  0  0  0  0  0  0  0
    2.6570   61.6326   72.3967 H   0  0  0  0  0  0  0  0  0  0  0  0
    4.5711   62.2079   71.1553 H   0  0  0  0  0  0  0  0  0  0  0  0
    3.5110   61.1479   70.0791 H   0  0  0  0  0  0  0  0  0  0  0  0
    4.1607   62.6601   68.5477 H   0  0  0  0  0  0  0  0  0  0  0  0
    2.6945   63.4997   69.2409 H   0  0  0  0  0  0  0  0  0  0  0  0
    3.9237   65.1285   70.2655 H   0  0  0  0  0  0  0  0  0  0  0  0
    5.3793   64.0718   70.4424 H   0  0  0  0  0  0  0  0  0  0  0  0
    5.5996   65.9780   68.7709 H   0  0  0  0  0  0  0  0  0  0  0  0
    5.9372   64.2955   68.1430 H   0  0  0  0  0  0  0  0  0  0  0  0
    3.8689   64.2019   67.0063 H   0  0  0  0  0  0  0  0  0  0  0  0
    3.3344   65.7745   67.8085 H   0  0  0  0  0  0  0  0  0  0  0  0
    5.3860   66.7588   66.5267 H   0  0  0  0  0  0  0  0  0  0  0  0
    5.1311   65.3315   65.4548 H   0  0  0  0  0  0  0  0  0  0  0  0
    2.8080   66.9210   66.2290 H   0  0  0  0  0  0  0  0  0  0  0  0
    3.0400   66.0820   64.8500 H   0  0  0  0  0  0  0  0  0  0  0  0
    3.5889   68.8721   65.4004 H   0  0  0  0  0  0  0  0  0  0  0  0
    5.8864   68.3001   65.4344 H   0  0  0  0  0  0  0  0  0  0  0  0
    5.6531   66.9891   64.1981 H   0  0  0  0  0  0  0  0  0  0  0  0
    5.4555   69.9879   63.6878 H   0  0  0  0  0  0  0  0  0  0  0  0
    6.8317   68.9113   63.2370 H   0  0  0  0  0  0  0  0  0  0  0  0
    5.1678   69.4078   61.3712 H   0  0  0  0  0  0  0  0  0  0  0  0
    5.4725   67.6559   61.7244 H   0  0  0  0  0  0  0  0  0  0  0  0
    3.1660   68.5880   60.2760 H   0  0  0  0  0  0  0  0  0  0  0  0
   -0.3145   68.0693   62.6324 H   0  0  0  0  0  0  0  0  0  0  0  0
    1.0880   67.9812   64.6167 H   0  0  0  0  0  0  0  0  0  0  0  0
  1  2  2  0
  2  3  1  0
  3  4  2  0
  4  5  1  0
  5  6  2  0
  6  7  1  0
  6  8  1  0
  8  9  1  0
  9 10  1  0
 10 11  1  0
 11 12  1  0
 12 13  1  0
 13 14  1  0
 14 15  1  0
 15 16  1  0
 16 17  1  0
 17 18  1  0
 18 19  1  0
 19 20  1  0
 20 21  1  0
 21 22  1  0
 22 23  1  0
 23 24  1  0
 24 25  1  0
 25 26  1  0
 26 27  1  0
 27 28  1  0
 28 29  1  0
 29 30  1  0
 30 31  2  0
 30 32  1  0
 32 33  2  0
 33 34  1  0
  7  2  1  0
 34 24  1  0
 11  5  1  0
 34 28  2  0
  3 35  1  0
  4 36  1  0
  7 37  1  0
  8 38  1  0
  8 39  1  0
  9 40  1  0
  9 41  1  0
 10 42  1  0
 10 43  1  0
 11 44  1  1
 12 45  1  0
 12 46  1  0
 13 47  1  0
 13 48  1  0
 14 49  1  0
 14 50  1  0
 15 51  1  0
 15 52  1  0
 16 53  1  0
 16 54  1  0
 17 55  1  0
 17 56  1  0
 18 57  1  0
 18 58  1  0
 19 59  1  0
 19 60  1  0
 20 61  1  0
 20 62  1  0
 21 63  1  0
 21 64  1  0
 22 65  1  0
 22 66  1  0
 23 67  1  0
 23 68  1  0
 24 69  1  1
 25 70  1  0
 25 71  1  0
 26 72  1  0
 26 73  1  0
 27 74  1  0
 27 75  1  0
 29 76  1  0
 32 77  1  0
 33 78  1  0
M  CHG  2  12   1  23   1
M  END
>  <meeko>  (2) 
{"is_sidechain": [false], "free_energy": -11.293, "intermolecular_energy": -19.93, "internal_energy": -2.082}

$$$$
1h22_ligand
     RDKit          3D

 78 81  0  0  0  0  0  0  0  0999 V2000
    0.5640   68.3070   59.7610 O   0  0  0  0  0  0  0  0  0  0  0  0
    1.0600   68.3430   60.8780 C   0  0  0  0  0  0  0  0  0  0  0  0
    0.2140   68.3690   62.0940 C   0  0  0  0  0  0  0  0  0  0  0  0
    0.7890   68.3420   63.3060 C   0  0  0  0  0  0  0  0  0  0  0  0
    2.2380   68.2650   63.4530 C   0  0  0  0  0  0  0  0  0  0  0  0
    3.0050   68.3310   62.3430 C   0  0  0  0  0  0  0  0  0  0  0  0
    2.4130   68.3620   61.1010 N   0  0  0  0  0  0  0  0  0  0  0  0
    4.5100   68.3940   62.3750 C   0  0  0  0  0  0  0  0  0  0  0  0
    5.0400   68.7860   63.7560 C   0  0  0  0  0  0  0  0  0  0  0  0
    4.3690   67.9550   64.8460 C   0  0  0  0  0  0  0  0  0  0  0  0
    2.8390   68.1470   64.8380 C   0  0  2  0  0  0  0  0  0  0  0  0
    2.2170   67.0580   65.6920 N   0  0  0  0  0  0  0  0  0  0  0  0
    2.1250   65.6810   65.0970 C   0  0  0  0  0  0  0  0  0  0  0  0
    3.4860   64.9970   65.2220 C   0  0  0  0  0  0  0  0  0  0  0  0
    3.7890   64.5170   66.6480 C   0  0  0  0  0  0  0  0  0  0  0  0
    4.8400   65.3640   67.3740 C   0  0  0  0  0  0  0  0  0  0  0  0
    5.0070   64.9830   68.8510 C   0  0  0  0  0  0  0  0  0  0  0  0
    3.8040   65.2710   69.7560 C   0  0  0  0  0  0  0  0  0  0  0  0
    3.0760   66.5730   69.4040 C   0  0  0  0  0  0  0  0  0  0  0  0
    1.5570   66.4000   69.5200 C   0  0  0  0  0  0  0  0  0  0  0  0
    1.1410   65.1880   70.3620 C   0  0  0  0  0  0  0  0  0  0  0  0
   -0.2150   64.5730   70.0150 C   0  0  0  0  0  0  0  0  0  0  0  0
   -0.1580   63.0850   70.1400 N   0  0  0  0  0  0  0  0  0  0  0  0
    0.6330   62.5370   71.3120 C   0  0  1  0  0  0  0  0  0  0  0  0
   -0.3780   61.9810   72.3370 C   0  0  0  0  0  0  0  0  0  0  0  0
    0.2660   60.9940   73.3040 C   0  0  0  0  0  0  0  0  0  0  0  0
    0.8670   59.8120   72.5440 C   0  0  0  0  0  0  0  0  0  0  0  0
    1.7170   60.2680   71.3890 C   0  0  0  0  0  0  0  0  0  0  0  0
    2.6180   59.3540   70.8940 N   0  0  0  0  0  0  0  0  0  0  0  0
    3.5050   59.5990   69.8740 C   0  0  0  0  0  0  0  0  0  0  0  0
    4.2620   58.7500   69.4290 O   0  0  0  0  0  0  0  0  0  0  0  0
    3.4970   60.9820   69.3470 C   0  0  0  0  0  0  0  0  0  0  0  0
    2.6210   61.8750   69.8300 C   0  0  0  0  0  0  0  0  0  0  0  0
    1.6500   61.5070   70.8540 C   0  0  0  0  0  0  0  0  0  0  0  0
   -0.8815   68.4103   62.0035 H   0  0  0  0  0  0  0  0  0  0  0  0
    0.1561   68.3786   64.2050 H   0  0  0  0  0  0  0  0  0  0  0  0
    2.9810   68.3970   60.2590 H   0  0  0  0  0  0  0  0  0  0  0  0
    4.9122   67.4056   62.1081 H   0  0  0  0  0  0  0  0  0  0  0  0
    4.8324   69.1629   61.6574 H   0  0  0  0  0  0  0  0  0  0  0  0
    6.1261   68.6146   63.7881 H   0  0  0  0  0  0  0  0  0  0  0  0
    4.8164   69.8485   63.9326 H   0  0  0  0  0  0  0  0  0  0  0  0
    4.5972   66.8922   64.6774 H   0  0  0  0  0  0  0  0  0  0  0  0
    4.7545   68.2870   65.8213 H   0  0  0  0  0  0  0  0  0  0  0  0
    2.6017   69.1253   65.2815 H   0  0  0  0  0  0  0  0  0  0  0  0
    2.7370   67.0100   66.5790 H   0  0  0  0  0  0  0  0  0  0  0  0
    1.2750   67.3720   65.9500 H   0  0  0  0  0  0  0  0  0  0  0  0
    1.3662   65.0953   65.6366 H   0  0  0  0  0  0  0  0  0  0  0  0
    1.8383   65.7508   64.0373 H   0  0  0  0  0  0  0  0  0  0  0  0
    3.5042   64.1275   64.5485 H   0  0  0  0  0  0  0  0  0  0  0  0
    4.2524   65.7397   64.9558 H   0  0  0  0  0  0  0  0  0  0  0  0
    2.8561   64.5476   67.2301 H   0  0  0  0  0  0  0  0  0  0  0  0
    4.1988   63.4996   66.5640 H   0  0  0  0  0  0  0  0  0  0  0  0
    5.8072   65.2313   66.8670 H   0  0  0  0  0  0  0  0  0  0  0  0
    4.4972   66.4087   67.3423 H   0  0  0  0  0  0  0  0  0  0  0  0
    5.2147   63.9039   68.8994 H   0  0  0  0  0  0  0  0  0  0  0  0
    5.8237   65.6143   69.2311 H   0  0  0  0  0  0  0  0  0  0  0  0
    3.0918   64.4376   69.6651 H   0  0  0  0  0  0  0  0  0  0  0  0
    4.1874   65.3800   70.7812 H   0  0  0  0  0  0  0  0  0  0  0  0
    3.4018   67.3654   70.0938 H   0  0  0  0  0  0  0  0  0  0  0  0
    3.3204   66.8423   68.3659 H   0  0  0  0  0  0  0  0  0  0  0  0
    1.1380   67.3056   69.9829 H   0  0  0  0  0  0  0  0  0  0  0  0
    1.1721   66.2343   68.5030 H   0  0  0  0  0  0  0  0  0  0  0  0
    1.9075   64.4093   70.2351 H   0  0  0  0  0  0  0  0  0  0  0  0
    1.0470   65.5580   71.3936 H   0  0  0  0  0  0  0  0  0  0  0  0
   -0.9781   64.9658   70.7030 H   0  0  0  0  0  0  0  0  0  0  0  0
   -0.4713   64.8349   68.9778 H   0  0  0  0  0  0  0  0  0  0  0  0
    0.2500   62.7040   69.2780 H   0  0  0  0  0  0  0  0  0  0  0  0
   -1.1050   62.6840   70.1850 H   0  0  0  0  0  0  0  0  0  0  0  0
    1.2259   63.3294   71.7921 H   0  0  0  0  0  0  0  0  0  0  0  0
   -0.7960   62.8197   72.9130 H   0  0  0  0  0  0  0  0  0  0  0  0
   -1.1626   61.4464   71.7815 H   0  0  0  0  0  0  0  0  0  0  0  0
    1.0618   61.5050   73.8658 H   0  0  0  0  0  0  0  0  0  0  0  0
   -0.5046   60.6181   73.9932 H   0  0  0  0  0  0  0  0  0  0  0  0
    1.4893   59.2235   73.2342 H   0  0  0  0  0  0  0  0  0  0  0  0
    0.0411   59.2056   72.1439 H   0  0  0  0  0  0  0  0  0  0  0  0
    2.6700   58.4150   71.2770 H   0  0  0  0  0  0  0  0  0  0  0  0
    4.2079   61.2766   68.5610 H   0  0  0  0  0  0  0  0  0  0  0  0
    2.6351   62.9058   69.4462 H   0  0  0  0  0  0  0  0  0  0  0  0
  1  2  2  0
  2  3  1  0
  3  4  2  0
  4  5  1  0
  5  6  2  0
  6  7  1  0
  6  8  1  0
  8  9  1  0
  9 10  1  0
 10 11  1  0
 11 12  1  0
 12 13  1  0
 13 14  1  0
 14 15  1  0
 15 16  1  0
 16 17  1  0
 17 18  1  0
 18 19  1  0
 19 20  1  0
 20 21  1  0
 21 22  1  0
 22 23  1  0
 23 24  1  0
 24 25  1  0
 25 26  1  0
 26 27  1  0
 27 28  1  0
 28 29  1  0
 29 30  1  0
 30 31  2  0
 30 32  1  0
 32 33  2  0
 33 34  1  0
  7  2  1  0
 34 24  1  0
 11  5  1  0
 34 28  2  0
  3 35  1  0
  4 36  1  0
  7 37  1  0
  8 38  1  0
  8 39  1  0
  9 40  1  0
  9 41  1  0
 10 42  1  0
 10 43  1  0
 11 44  1  1
 12 45  1  0
 12 46  1  0
 13 47  1  0
 13 48  1  0
 14 49  1  0
 14 50  1  0
 15 51  1  0
 15 52  1  0
 16 53  1  0
 16 54  1  0
 17 55  1  0
 17 56  1  0
 18 57  1  0
 18 58  1  0
 19 59  1  0
 19 60  1  0
 20 61  1  0
 20 62  1  0
 21 63  1  0
 21 64  1  0
 22 65  1  0
 22 66  1  0
 23 67  1  0
 23 68  1  0
 24 69  1  1
 25 70  1  0
 25 71  1  0
 26 72  1  0
 26 73  1  0
 27 74  1  0
 27 75  1  0
 29 76  1  0
 32 77  1  0
 33 78  1  0
M  CHG  2  12   1  23   1
M  END
>  <meeko>  (3) 
{"is_sidechain": [false], "free_energy": -10.872, "intermolecular_energy": -19.539, "internal_energy": -1.734}

$$$$
1h22_ligand
     RDKit          3D

 78 81  0  0  0  0  0  0  0  0999 V2000
   -2.3700   61.3440   73.9900 O   0  0  0  0  0  0  0  0  0  0  0  0
   -1.3870   60.8450   73.4600 C   0  0  0  0  0  0  0  0  0  0  0  0
   -0.6040   61.5840   72.4420 C   0  0  0  0  0  0  0  0  0  0  0  0
    0.5060   61.0340   71.9270 C   0  0  0  0  0  0  0  0  0  0  0  0
    0.9740   59.7240   72.3670 C   0  0  0  0  0  0  0  0  0  0  0  0
    0.2090   59.0200   73.2280 C   0  0  0  0  0  0  0  0  0  0  0  0
   -0.9320   59.5850   73.7520 N   0  0  0  0  0  0  0  0  0  0  0  0
    0.5190   57.6080   73.6520 C   0  0  0  0  0  0  0  0  0  0  0  0
    1.5220   56.9330   72.7140 C   0  0  0  0  0  0  0  0  0  0  0  0
    2.7180   57.8450   72.4590 C   0  0  0  0  0  0  0  0  0  0  0  0
    2.2810   59.1820   71.8250 C   0  0  2  0  0  0  0  0  0  0  0  0
    3.4400   60.1550   71.9150 N   0  0  0  0  0  0  0  0  0  0  0  0
    4.2370   60.4000   70.6650 C   0  0  0  0  0  0  0  0  0  0  0  0
    3.2730   60.5930   69.4950 C   0  0  0  0  0  0  0  0  0  0  0  0
    3.1540   62.0580   69.0500 C   0  0  0  0  0  0  0  0  0  0  0  0
    3.7240   63.0580   70.0630 C   0  0  0  0  0  0  0  0  0  0  0  0
    2.9270   64.3680   70.1300 C   0  0  0  0  0  0  0  0  0  0  0  0
    3.2710   65.4140   69.0640 C   0  0  0  0  0  0  0  0  0  0  0  0
    4.7100   65.3060   68.5470 C   0  0  0  0  0  0  0  0  0  0  0  0
    4.7930   65.7100   67.0700 C   0  0  0  0  0  0  0  0  0  0  0  0
    3.8900   64.8760   66.1540 C   0  0  0  0  0  0  0  0  0  0  0  0
    3.1830   65.6460   65.0390 C   0  0  0  0  0  0  0  0  0  0  0  0
    2.7630   66.9950   65.5240 N   0  0  0  0  0  0  0  0  0  0  0  0
    3.2370   68.1810   64.7080 C   0  0  1  0  0  0  0  0  0  0  0  0
    4.7700   68.0710   64.5740 C   0  0  0  0  0  0  0  0  0  0  0  0
    5.3080   68.8940   63.4090 C   0  0  0  0  0  0  0  0  0  0  0  0
    4.6850   68.4330   62.0930 C   0  0  0  0  0  0  0  0  0  0  0  0
    3.1880   68.3180   62.1960 C   0  0  0  0  0  0  0  0  0  0  0  0
    2.4900   68.3140   61.0100 N   0  0  0  0  0  0  0  0  0  0  0  0
    1.1230   68.2590   60.9030 C   0  0  0  0  0  0  0  0  0  0  0  0
    0.5370   68.2130   59.8320 O   0  0  0  0  0  0  0  0  0  0  0  0
    0.3860   68.2730   62.1880 C   0  0  0  0  0  0  0  0  0  0  0  0
    1.0640   68.2800   63.3450 C   0  0  0  0  0  0  0  0  0  0  0  0
    2.5230   68.2470   63.3690 C   0  0  0  0  0  0  0  0  0  0  0  0
   -0.9317   62.5801   72.1097 H   0  0  0  0  0  0  0  0  0  0  0  0
    1.0734   61.5805   71.1593 H   0  0  0  0  0  0  0  0  0  0  0  0
   -1.5070   59.0700   74.4120 H   0  0  0  0  0  0  0  0  0  0  0  0
    0.9405   57.6270   74.6678 H   0  0  0  0  0  0  0  0  0  0  0  0
   -0.4170   57.0310   73.6194 H   0  0  0  0  0  0  0  0  0  0  0  0
    1.8728   55.9970   73.1732 H   0  0  0  0  0  0  0  0  0  0  0  0
    1.0251   56.7241   71.7551 H   0  0  0  0  0  0  0  0  0  0  0  0
    3.2220   58.0500   73.4150 H   0  0  0  0  0  0  0  0  0  0  0  0
    3.3985   57.3365   71.7602 H   0  0  0  0  0  0  0  0  0  0  0  0
    2.0438   59.0117   70.7645 H   0  0  0  0  0  0  0  0  0  0  0  0
    3.0790   61.0520   72.2680 H   0  0  0  0  0  0  0  0  0  0  0  0
    4.0710   59.8130   72.6490 H   0  0  0  0  0  0  0  0  0  0  0  0
    4.8520   61.3034   70.7900 H   0  0  0  0  0  0  0  0  0  0  0  0
    4.8959   59.5415   70.4681 H   0  0  0  0  0  0  0  0  0  0  0  0
    3.6316   59.9961   68.6434 H   0  0  0  0  0  0  0  0  0  0  0  0
    2.2772   60.2702   69.8329 H   0  0  0  0  0  0  0  0  0  0  0  0
    3.6967   62.1778   68.1007 H   0  0  0  0  0  0  0  0  0  0  0  0
    2.0808   62.2776   68.9504 H   0  0  0  0  0  0  0  0  0  0  0  0
    3.7145   62.5912   71.0590 H   0  0  0  0  0  0  0  0  0  0  0  0
    4.7434   63.3108   69.7362 H   0  0  0  0  0  0  0  0  0  0  0  0
    1.8604   64.1196   70.0271 H   0  0  0  0  0  0  0  0  0  0  0  0
    3.1887   64.8276   71.0945 H   0  0  0  0  0  0  0  0  0  0  0  0
    2.5846   65.2846   68.2142 H   0  0  0  0  0  0  0  0  0  0  0  0
    3.1684   66.4030   69.5345 H   0  0  0  0  0  0  0  0  0  0  0  0
    5.3562   65.9708   69.1390 H   0  0  0  0  0  0  0  0  0  0  0  0
    5.0409   64.2615   68.6446 H   0  0  0  0  0  0  0  0  0  0  0  0
    4.4981   66.7660   66.9812 H   0  0  0  0  0  0  0  0  0  0  0  0
    5.8297   65.5365   66.7459 H   0  0  0  0  0  0  0  0  0  0  0  0
    4.5104   64.0975   65.6860 H   0  0  0  0  0  0  0  0  0  0  0  0
    3.0908   64.4823   66.7992 H   0  0  0  0  0  0  0  0  0  0  0  0
    3.8700   65.7643   64.1881 H   0  0  0  0  0  0  0  0  0  0  0  0
    2.2898   65.0843   64.7280 H   0  0  0  0  0  0  0  0  0  0  0  0
    3.1070   67.1150   66.4840 H   0  0  0  0  0  0  0  0  0  0  0  0
    1.7380   67.0550   65.6010 H   0  0  0  0  0  0  0  0  0  0  0  0
    2.9906   69.1280   65.2105 H   0  0  0  0  0  0  0  0  0  0  0  0
    5.2334   68.4300   65.5048 H   0  0  0  0  0  0  0  0  0  0  0  0
    5.0170   67.0161   64.3840 H   0  0  0  0  0  0  0  0  0  0  0  0
    5.0647   69.9542   63.5724 H   0  0  0  0  0  0  0  0  0  0  0  0
    6.3981   68.7584   63.3523 H   0  0  0  0  0  0  0  0  0  0  0  0
    4.9333   69.1610   61.3067 H   0  0  0  0  0  0  0  0  0  0  0  0
    5.0895   67.4389   61.8518 H   0  0  0  0  0  0  0  0  0  0  0  0
    2.9780   68.3530   60.1200 H   0  0  0  0  0  0  0  0  0  0  0  0
   -0.7140   68.2776   62.1931 H   0  0  0  0  0  0  0  0  0  0  0  0
    0.5097   68.3112   64.2946 H   0  0  0  0  0  0  0  0  0  0  0  0
  1  2  2  0
  2  3  1  0
  3  4  2  0
  4  5  1  0
  5  6  2  0
  6  7  1  0
  6  8  1  0
  8  9  1  0
  9 10  1  0
 10 11  1  0
 11 12  1  0
 12 13  1  0
 13 14  1  0
 14 15  1  0
 15 16  1  0
 16 17  1  0
 17 18  1  0
 18 19  1  0
 19 20  1  0
 20 21  1  0
 21 22  1  0
 22 23  1  0
 23 24  1  0
 24 25  1  0
 25 26  1  0
 26 27  1  0
 27 28  1  0
 28 29  1  0
 29 30  1  0
 30 31  2  0
 30 32  1  0
 32 33  2  0
 33 34  1  0
  7  2  1  0
 34 24  1  0
 11  5  1  0
 34 28  2  0
  3 35  1  0
  4 36  1  0
  7 37  1  0
  8 38  1  0
  8 39  1  0
  9 40  1  0
  9 41  1  0
 10 42  1  0
 10 43  1  0
 11 44  1  6
 12 45  1  0
 12 46  1  0
 13 47  1  0
 13 48  1  0
 14 49  1  0
 14 50  1  0
 15 51  1  0
 15 52  1  0
 16 53  1  0
 16 54  1  0
 17 55  1  0
 17 56  1  0
 18 57  1  0
 18 58  1  0
 19 59  1  0
 19 60  1  0
 20 61  1  0
 20 62  1  0
 21 63  1  0
 21 64  1  0
 22 65  1  0
 22 66  1  0
 23 67  1  0
 23 68  1  0
 24 69  1  1
 25 70  1  0
 25 71  1  0
 26 72  1  0
 26 73  1  0
 27 74  1  0
 27 75  1  0
 29 76  1  0
 32 77  1  0
 33 78  1  0
M  CHG  2  12   1  23   1
M  END
>  <meeko>  (4) 
{"is_sidechain": [false], "free_energy": -10.61, "intermolecular_energy": -19.214, "internal_energy": -1.597}

$$$$
1h22_ligand
     RDKit          3D

 78 81  0  0  0  0  0  0  0  0999 V2000
    4.0800   58.1320   69.7590 O   0  0  0  0  0  0  0  0  0  0  0  0
    3.5210   59.1450   70.1550 C   0  0  0  0  0  0  0  0  0  0  0  0
    3.9320   60.4870   69.6780 C   0  0  0  0  0  0  0  0  0  0  0  0
    3.2560   61.5730   70.0800 C   0  0  0  0  0  0  0  0  0  0  0  0
    2.1030   61.4590   70.9670 C   0  0  0  0  0  0  0  0  0  0  0  0
    1.7890   60.2450   71.4680 C   0  0  0  0  0  0  0  0  0  0  0  0
    2.4870   59.1320   71.0550 N   0  0  0  0  0  0  0  0  0  0  0  0
    0.7060   60.0220   72.4910 C   0  0  0  0  0  0  0  0  0  0  0  0
    0.3000   61.3210   73.1900 C   0  0  0  0  0  0  0  0  0  0  0  0
    0.0550   62.4280   72.1690 C   0  0  0  0  0  0  0  0  0  0  0  0
    1.3150   62.7030   71.3240 C   0  0  2  0  0  0  0  0  0  0  0  0
    0.9130   63.5460   70.1290 N   0  0  0  0  0  0  0  0  0  0  0  0
    0.9320   65.0390   70.2980 C   0  0  0  0  0  0  0  0  0  0  0  0
    2.0250   65.6240   69.4030 C   0  0  0  0  0  0  0  0  0  0  0  0
    3.4400   65.2210   69.8420 C   0  0  0  0  0  0  0  0  0  0  0  0
    4.2920   64.6310   68.7120 C   0  0  0  0  0  0  0  0  0  0  0  0
    4.9670   65.7030   67.8460 C   0  0  0  0  0  0  0  0  0  0  0  0
    4.7940   65.5440   66.3310 C   0  0  0  0  0  0  0  0  0  0  0  0
    3.5740   64.7010   65.9430 C   0  0  0  0  0  0  0  0  0  0  0  0
    3.7390   64.1160   64.5350 C   0  0  0  0  0  0  0  0  0  0  0  0
    4.7760   64.8550   63.6810 C   0  0  0  0  0  0  0  0  0  0  0  0
    4.2140   65.8750   62.6910 C   0  0  0  0  0  0  0  0  0  0  0  0
    4.5010   67.2650   63.1580 N   0  0  0  0  0  0  0  0  0  0  0  0
    3.3690   68.2650   63.0290 C   0  0  1  0  0  0  0  0  0  0  0  0
    2.7530   68.0930   61.6250 C   0  0  0  0  0  0  0  0  0  0  0  0
    1.3440   68.6690   61.5390 C   0  0  0  0  0  0  0  0  0  0  0  0
    0.4210   67.9860   62.5480 C   0  0  0  0  0  0  0  0  0  0  0  0
    1.0400   67.9310   63.9180 C   0  0  0  0  0  0  0  0  0  0  0  0
    0.1780   67.7240   64.9710 N   0  0  0  0  0  0  0  0  0  0  0  0
    0.5470   67.6850   66.2920 C   0  0  0  0  0  0  0  0  0  0  0  0
   -0.2380   67.4540   67.2000 O   0  0  0  0  0  0  0  0  0  0  0  0
    1.9780   67.9580   66.5580 C   0  0  0  0  0  0  0  0  0  0  0  0
    2.8190   68.1630   65.5340 C   0  0  0  0  0  0  0  0  0  0  0  0
    2.3590   68.0980   64.1510 C   0  0  0  0  0  0  0  0  0  0  0  0
    4.7890   60.5916   68.9963 H   0  0  0  0  0  0  0  0  0  0  0  0
    3.5762   62.5672   69.7351 H   0  0  0  0  0  0  0  0  0  0  0  0
    2.2490   58.2110   71.4140 H   0  0  0  0  0  0  0  0  0  0  0  0
   -0.1760   59.5991   71.9877 H   0  0  0  0  0  0  0  0  0  0  0  0
    1.0972   59.3337   73.2547 H   0  0  0  0  0  0  0  0  0  0  0  0
   -0.6221   61.1491   73.7647 H   0  0  0  0  0  0  0  0  0  0  0  0
    1.1147   61.6318   73.8605 H   0  0  0  0  0  0  0  0  0  0  0  0
   -0.7644   62.1239   71.5011 H   0  0  0  0  0  0  0  0  0  0  0  0
   -0.2052   63.3485   72.7122 H   0  0  0  0  0  0  0  0  0  0  0  0
    2.0345   63.2706   71.9325 H   0  0  0  0  0  0  0  0  0  0  0  0
    1.5180   63.2870   69.3360 H   0  0  0  0  0  0  0  0  0  0  0  0
   -0.0310   63.2550   69.8520 H   0  0  0  0  0  0  0  0  0  0  0  0
   -0.0442   65.4559   70.0094 H   0  0  0  0  0  0  0  0  0  0  0  0
    1.1348   65.2929   71.3489 H   0  0  0  0  0  0  0  0  0  0  0  0
    1.8628   65.2693   68.3744 H   0  0  0  0  0  0  0  0  0  0  0  0
    1.9578   66.7196   69.4752 H   0  0  0  0  0  0  0  0  0  0  0  0
    3.9503   66.1143   70.2314 H   0  0  0  0  0  0  0  0  0  0  0  0
    3.3284   64.4354   70.6039 H   0  0  0  0  0  0  0  0  0  0  0  0
    5.0732   63.9969   69.1567 H   0  0  0  0  0  0  0  0  0  0  0  0
    3.6188   64.0567   68.0585 H   0  0  0  0  0  0  0  0  0  0  0  0
    4.5502   66.6798   68.1325 H   0  0  0  0  0  0  0  0  0  0  0  0
    6.0460   65.6037   68.0353 H   0  0  0  0  0  0  0  0  0  0  0  0
    4.6829   66.5438   65.8859 H   0  0  0  0  0  0  0  0  0  0  0  0
    5.6846   65.0186   65.9557 H   0  0  0  0  0  0  0  0  0  0  0  0
    3.4608   63.8780   66.6640 H   0  0  0  0  0  0  0  0  0  0  0  0
    2.6831   65.3461   65.9536 H   0  0  0  0  0  0  0  0  0  0  0  0
    4.0511   63.0654   64.6293 H   0  0  0  0  0  0  0  0  0  0  0  0
    2.7691   64.2202   64.0267 H   0  0  0  0  0  0  0  0  0  0  0  0
    5.4584   65.3852   64.3617 H   0  0  0  0  0  0  0  0  0  0  0  0
    5.2663   64.0828   63.0699 H   0  0  0  0  0  0  0  0  0  0  0  0
    4.6797   65.7197   61.7066 H   0  0  0  0  0  0  0  0  0  0  0  0
    3.1247   65.7401   62.6186 H   0  0  0  0  0  0  0  0  0  0  0  0
    5.3020   67.6250   62.6250 H   0  0  0  0  0  0  0  0  0  0  0  0
    4.8130   67.2660   64.1380 H   0  0  0  0  0  0  0  0  0  0  0  0
    3.7404   69.2955   63.1298 H   0  0  0  0  0  0  0  0  0  0  0  0
    3.3916   68.6085   60.8925 H   0  0  0  0  0  0  0  0  0  0  0  0
    2.6904   67.0153   61.4138 H   0  0  0  0  0  0  0  0  0  0  0  0
    1.3804   69.7471   61.7544 H   0  0  0  0  0  0  0  0  0  0  0  0
    0.9516   68.4964   60.5260 H   0  0  0  0  0  0  0  0  0  0  0  0
   -0.5229   68.5479   62.6053 H   0  0  0  0  0  0  0  0  0  0  0  0
    0.2449   66.9545   62.2090 H   0  0  0  0  0  0  0  0  0  0  0  0
   -0.8160   67.5830   64.8100 H   0  0  0  0  0  0  0  0  0  0  0  0
    2.3499   67.9925   67.5926 H   0  0  0  0  0  0  0  0  0  0  0  0
    3.8764   68.3845   65.7407 H   0  0  0  0  0  0  0  0  0  0  0  0
  1  2  2  0
  2  3  1  0
  3  4  2  0
  4  5  1  0
  5  6  2  0
  6  7  1  0
  6  8  1  0
  8  9  1  0
  9 10  1  0
 10 11  1  0
 11 12  1  0
 12 13  1  0
 13 14  1  0
 14 15  1  0
 15 16  1  0
 16 17  1  0
 17 18  1  0
 18 19  1  0
 19 20  1  0
 20 21  1  0
 21 22  1  0
 22 23  1  0
 23 24  1  0
 24 25  1  0
 25 26  1  0
 26 27  1  0
 27 28  1  0
 28 29  1  0
 29 30  1  0
 30 31  2  0
 30 32  1  0
 32 33  2  0
 33 34  1  0
  7  2  1  0
 34 24  1  0
 11  5  1  0
 34 28  2  0
  3 35  1  0
  4 36  1  0
  7 37  1  0
  8 38  1  0
  8 39  1  0
  9 40  1  0
  9 41  1  0
 10 42  1  0
 10 43  1  0
 11 44  1  1
 12 45  1  0
 12 46  1  0
 13 47  1  0
 13 48  1  0
 14 49  1  0
 14 50  1  0
 15 51  1  0
 15 52  1  0
 16 53  1  0
 16 54  1  0
 17 55  1  0
 17 56  1  0
 18 57  1  0
 18 58  1  0
 19 59  1  0
 19 60  1  0
 20 61  1  0
 20 62  1  0
 21 63  1  0
 21 64  1  0
 22 65  1  0
 22 66  1  0
 23 67  1  0
 23 68  1  0
 24 69  1  6
 25 70  1  0
 25 71  1  0
 26 72  1  0
 26 73  1  0
 27 74  1  0
 27 75  1  0
 29 76  1  0
 32 77  1  0
 33 78  1  0
M  CHG  2  12   1  23   1
M  END
>  <meeko>  (5) 
{"is_sidechain": [false], "free_energy": -10.602, "intermolecular_energy": -18.333, "internal_energy": -2.464}

$$$$
1h22_ligand
     RDKit          3D

 78 81  0  0  0  0  0  0  0  0999 V2000
    4.7270   62.4280   63.2900 O   0  0  0  0  0  0  0  0  0  0  0  0
    4.3510   63.5540   63.5830 C   0  0  0  0  0  0  0  0  0  0  0  0
    3.3950   63.7830   64.6910 C   0  0  0  0  0  0  0  0  0  0  0  0
    3.0530   65.0350   65.0290 C   0  0  0  0  0  0  0  0  0  0  0  0
    3.6230   66.1860   64.3370 C   0  0  0  0  0  0  0  0  0  0  0  0
    4.4240   65.9690   63.2720 C   0  0  0  0  0  0  0  0  0  0  0  0
    4.7710   64.6830   62.9250 N   0  0  0  0  0  0  0  0  0  0  0  0
    4.9650   67.0720   62.4000 C   0  0  0  0  0  0  0  0  0  0  0  0
    4.1980   68.3820   62.5890 C   0  0  0  0  0  0  0  0  0  0  0  0
    4.0380   68.7030   64.0720 C   0  0  0  0  0  0  0  0  0  0  0  0
    3.2780   67.5830   64.8110 C   0  0  2  0  0  0  0  0  0  0  0  0
    3.4510   67.7920   66.3030 N   0  0  0  0  0  0  0  0  0  0  0  0
    2.2510   68.2500   67.0820 C   0  0  0  0  0  0  0  0  0  0  0  0
    2.2830   67.6020   68.4650 C   0  0  0  0  0  0  0  0  0  0  0  0
    2.8760   66.1860   68.4520 C   0  0  0  0  0  0  0  0  0  0  0  0
    3.6670   65.8370   69.7190 C   0  0  0  0  0  0  0  0  0  0  0  0
    4.8960   64.9620   69.4390 C   0  0  0  0  0  0  0  0  0  0  0  0
    4.9430   63.6190   70.1780 C   0  0  0  0  0  0  0  0  0  0  0  0
    3.5620   62.9820   70.3690 C   0  0  0  0  0  0  0  0  0  0  0  0
    3.2370   62.0230   69.2180 C   0  0  0  0  0  0  0  0  0  0  0  0
    3.3640   60.5430   69.5980 C   0  0  0  0  0  0  0  0  0  0  0  0
    4.2190   60.2450   70.8290 C   0  0  0  0  0  0  0  0  0  0  0  0
    3.3500   60.0210   72.0250 N   0  0  0  0  0  0  0  0  0  0  0  0
    2.1870   59.0670   71.8410 C   0  0  1  0  0  0  0  0  0  0  0  0
    2.5880   57.7170   72.4720 C   0  0  0  0  0  0  0  0  0  0  0  0
    1.3780   56.8450   72.7860 C   0  0  0  0  0  0  0  0  0  0  0  0
    0.4390   57.5600   73.7580 C   0  0  0  0  0  0  0  0  0  0  0  0
    0.1530   58.9700   73.3180 C   0  0  0  0  0  0  0  0  0  0  0  0
   -0.9650   59.5650   73.8580 N   0  0  0  0  0  0  0  0  0  0  0  0
   -1.4110   60.8250   73.5490 C   0  0  0  0  0  0  0  0  0  0  0  0
   -2.3830   61.3400   74.0800 O   0  0  0  0  0  0  0  0  0  0  0  0
   -0.6380   61.5310   72.5020 C   0  0  0  0  0  0  0  0  0  0  0  0
    0.4500   60.9520   71.9710 C   0  0  0  0  0  0  0  0  0  0  0  0
    0.9080   59.6420   72.4230 C   0  0  0  0  0  0  0  0  0  0  0  0
    2.9667   62.9284   65.2352 H   0  0  0  0  0  0  0  0  0  0  0  0
    2.3301   65.1969   65.8422 H   0  0  0  0  0  0  0  0  0  0  0  0
    5.3850   64.5080   62.1350 H   0  0  0  0  0  0  0  0  0  0  0  0
    6.0219   67.2396   62.6546 H   0  0  0  0  0  0  0  0  0  0  0  0
    4.8523   66.7612   61.3509 H   0  0  0  0  0  0  0  0  0  0  0  0
    4.7507   69.1980   62.1003 H   0  0  0  0  0  0  0  0  0  0  0  0
    3.1994   68.2756   62.1400 H   0  0  0  0  0  0  0  0  0  0  0  0
    5.0347   68.8171   64.5231 H   0  0  0  0  0  0  0  0  0  0  0  0
    3.4590   69.6337   64.1644 H   0  0  0  0  0  0  0  0  0  0  0  0
    2.2084   67.6573   64.5652 H   0  0  0  0  0  0  0  0  0  0  0  0
    3.8050   66.9150   66.7100 H   0  0  0  0  0  0  0  0  0  0  0  0
    4.2090   68.4720   66.4310 H   0  0  0  0  0  0  0  0  0  0  0  0
    2.2742   69.3448   67.1864 H   0  0  0  0  0  0  0  0  0  0  0  0
    1.3306   67.9586   66.5548 H   0  0  0  0  0  0  0  0  0  0  0  0
    2.8913   68.2304   69.1322 H   0  0  0  0  0  0  0  0  0  0  0  0
    1.2428   67.5192   68.8130 H   0  0  0  0  0  0  0  0  0  0  0  0
    2.0516   65.4652   68.3477 H   0  0  0  0  0  0  0  0  0  0  0  0
    3.5820   66.1409   67.6097 H   0  0  0  0  0  0  0  0  0  0  0  0
    4.0031   66.7722   70.1907 H   0  0  0  0  0  0  0  0  0  0  0  0
    2.9976   65.2621   70.3758 H   0  0  0  0  0  0  0  0  0  0  0  0
    4.9229   64.7539   68.3592 H   0  0  0  0  0  0  0  0  0  0  0  0
    5.7600   65.5350   69.8066 H   0  0  0  0  0  0  0  0  0  0  0  0
    5.5706   62.9246   69.6002 H   0  0  0  0  0  0  0  0  0  0  0  0
    5.3529   63.8133   71.1801 H   0  0  0  0  0  0  0  0  0  0  0  0
    3.5511   62.4237   71.3167 H   0  0  0  0  0  0  0  0  0  0  0  0
    2.8060   63.7809   70.3844 H   0  0  0  0  0  0  0  0  0  0  0  0
    2.2038   62.2105   68.8903 H   0  0  0  0  0  0  0  0  0  0  0  0
    3.9701   62.2155   68.4208 H   0  0  0  0  0  0  0  0  0  0  0  0
    2.3523   60.1549   69.7874 H   0  0  0  0  0  0  0  0  0  0  0  0
    3.8768   60.0599   68.7532 H   0  0  0  0  0  0  0  0  0  0  0  0
    4.8198   59.3425   70.6433 H   0  0  0  0  0  0  0  0  0  0  0  0
    4.8779   61.1043   71.0225 H   0  0  0  0  0  0  0  0  0  0  0  0
    2.9710   60.9280   72.3220 H   0  0  0  0  0  0  0  0  0  0  0  0
    3.9060   59.6900   72.8250 H   0  0  0  0  0  0  0  0  0  0  0  0
    1.9710   58.9111   70.7737 H   0  0  0  0  0  0  0  0  0  0  0  0
    3.2403   57.1777   71.7694 H   0  0  0  0  0  0  0  0  0  0  0  0
    3.1064   57.9281   73.4189 H   0  0  0  0  0  0  0  0  0  0  0  0
    0.8365   56.6281   71.8534 H   0  0  0  0  0  0  0  0  0  0  0  0
    1.7248   55.9099   73.2500 H   0  0  0  0  0  0  0  0  0  0  0  0
   -0.5087   57.0042   73.8125 H   0  0  0  0  0  0  0  0  0  0  0  0
    0.9289   57.6000   74.7421 H   0  0  0  0  0  0  0  0  0  0  0  0
   -1.5340   59.0750   74.5430 H   0  0  0  0  0  0  0  0  0  0  0  0
   -0.9547   62.5275   72.1603 H   0  0  0  0  0  0  0  0  0  0  0  0
    1.0074   61.4748   71.1798 H   0  0  0  0  0  0  0  0  0  0  0  0
  1  2  2  0
  2  3  1  0
  3  4  2  0
  4  5  1  0
  5  6  2  0
  6  7  1  0
  6  8  1  0
  8  9  1  0
  9 10  1  0
 10 11  1  0
 11 12  1  0
 12 13  1  0
 13 14  1  0
 14 15  1  0
 15 16  1  0
 16 17  1  0
 17 18  1  0
 18 19  1  0
 19 20  1  0
 20 21  1  0
 21 22  1  0
 22 23  1  0
 23 24  1  0
 24 25  1  0
 25 26  1  0
 26 27  1  0
 27 28  1  0
 28 29  1  0
 29 30  1  0
 30 31  2  0
 30 32  1  0
 32 33  2  0
 33 34  1  0
  7  2  1  0
 34 24  1  0
 11  5  1  0
 34 28  2  0
  3 35  1  0
  4 36  1  0
  7 37  1  0
  8 38  1  0
  8 39  1  0
  9 40  1  0
  9 41  1  0
 10 42  1  0
 10 43  1  0
 11 44  1  1
 12 45  1  0
 12 46  1  0
 13 47  1  0
 13 48  1  0
 14 49  1  0
 14 50  1  0
 15 51  1  0
 15 52  1  0
 16 53  1  0
 16 54  1  0
 17 55  1  0
 17 56  1  0
 18 57  1  0
 18 58  1  0
 19 59  1  0
 19 60  1  0
 20 61  1  0
 20 62  1  0
 21 63  1  0
 21 64  1  0
 22 65  1  0
 22 66  1  0
 23 67  1  0
 23 68  1  0
 24 69  1  6
 25 70  1  0
 25 71  1  0
 26 72  1  0
 26 73  1  0
 27 74  1  0
 27 75  1  0
 29 76  1  0
 32 77  1  0
 33 78  1  0
M  CHG  2  12   1  23   1
M  END
>  <meeko>  (6) 
{"is_sidechain": [false], "free_energy": -10.49, "intermolecular_energy": -18.957, "internal_energy": -1.644}

$$$$
1h22_ligand
     RDKit          3D

 78 81  0  0  0  0  0  0  0  0999 V2000
    3.1550   64.1000   67.9060 O   0  0  0  0  0  0  0  0  0  0  0  0
    3.4120   63.3050   68.7990 C   0  0  0  0  0  0  0  0  0  0  0  0
    4.0120   63.7530   70.0780 C   0  0  0  0  0  0  0  0  0  0  0  0
    4.2220   62.8660   71.0620 C   0  0  0  0  0  0  0  0  0  0  0  0
    3.8490   61.4640   70.9070 C   0  0  0  0  0  0  0  0  0  0  0  0
    3.3860   61.0460   69.7100 C   0  0  0  0  0  0  0  0  0  0  0  0
    3.1750   61.9580   68.7000 N   0  0  0  0  0  0  0  0  0  0  0  0
    3.0930   59.6040   69.3890 C   0  0  0  0  0  0  0  0  0  0  0  0
    3.7510   58.6480   70.3860 C   0  0  0  0  0  0  0  0  0  0  0  0
    3.4800   59.0960   71.8190 C   0  0  0  0  0  0  0  0  0  0  0  0
    4.0210   60.5170   72.0770 C   0  0  2  0  0  0  0  0  0  0  0  0
    3.4290   61.0240   73.3770 N   0  0  0  0  0  0  0  0  0  0  0  0
    1.9330   61.1400   73.4580 C   0  0  0  0  0  0  0  0  0  0  0  0
    1.5640   62.6000   73.7200 C   0  0  0  0  0  0  0  0  0  0  0  0
    0.2790   63.0330   73.0010 C   0  0  0  0  0  0  0  0  0  0  0  0
    0.1070   62.4050   71.6130 C   0  0  0  0  0  0  0  0  0  0  0  0
   -0.2010   63.4360   70.5190 C   0  0  0  0  0  0  0  0  0  0  0  0
    0.4660   64.8060   70.6860 C   0  0  0  0  0  0  0  0  0  0  0  0
    0.2920   65.7200   69.4680 C   0  0  0  0  0  0  0  0  0  0  0  0
    1.4230   66.7530   69.3930 C   0  0  0  0  0  0  0  0  0  0  0  0
    1.2730   67.7430   68.2320 C   0  0  0  0  0  0  0  0  0  0  0  0
    0.5850   67.1990   66.9800 C   0  0  0  0  0  0  0  0  0  0  0  0
    1.5980   66.8610   65.9350 N   0  0  0  0  0  0  0  0  0  0  0  0
    2.2960   68.0310   65.2710 C   0  0  1  0  0  0  0  0  0  0  0  0
    3.8150   67.8410   65.4690 C   0  0  0  0  0  0  0  0  0  0  0  0
    4.6330   68.6510   64.4700 C   0  0  0  0  0  0  0  0  0  0  0  0
    4.2880   68.2430   63.0380 C   0  0  0  0  0  0  0  0  0  0  0  0
    2.8010   68.2070   62.8130 C   0  0  0  0  0  0  0  0  0  0  0  0
    2.3780   68.2590   61.5040 N   0  0  0  0  0  0  0  0  0  0  0  0
    1.0650   68.2790   61.1030 C   0  0  0  0  0  0  0  0  0  0  0  0
    0.7240   68.2800   59.9300 O   0  0  0  0  0  0  0  0  0  0  0  0
    0.0690   68.3140   62.1980 C   0  0  0  0  0  0  0  0  0  0  0  0
    0.4790   68.2670   63.4740 C   0  0  0  0  0  0  0  0  0  0  0  0
    1.8940   68.1560   63.8120 C   0  0  0  0  0  0  0  0  0  0  0  0
    4.2842   64.8093   70.2198 H   0  0  0  0  0  0  0  0  0  0  0  0
    4.6836   63.2015   72.0024 H   0  0  0  0  0  0  0  0  0  0  0  0
    2.8120   61.6570   67.8000 H   0  0  0  0  0  0  0  0  0  0  0  0
    2.0043   59.4490   69.4144 H   0  0  0  0  0  0  0  0  0  0  0  0
    3.5033   59.3886   68.3914 H   0  0  0  0  0  0  0  0  0  0  0  0
    3.3432   57.6368   70.2402 H   0  0  0  0  0  0  0  0  0  0  0  0
    4.8374   58.6489   70.2138 H   0  0  0  0  0  0  0  0  0  0  0  0
    2.3945   59.0887   71.9969 H   0  0  0  0  0  0  0  0  0  0  0  0
    3.9924   58.4017   72.5012 H   0  0  0  0  0  0  0  0  0  0  0  0
    5.1149   60.4682   72.1818 H   0  0  0  0  0  0  0  0  0  0  0  0
    3.7630   60.4180   74.1400 H   0  0  0  0  0  0  0  0  0  0  0  0
    3.8440   61.9440   73.5650 H   0  0  0  0  0  0  0  0  0  0  0  0
    1.4850   60.8103   72.5090 H   0  0  0  0  0  0  0  0  0  0  0  0
    1.5533   60.5071   74.2737 H   0  0  0  0  0  0  0  0  0  0  0  0
    1.4231   62.7370   74.8023 H   0  0  0  0  0  0  0  0  0  0  0  0
    2.3839   63.2212   73.3304 H   0  0  0  0  0  0  0  0  0  0  0  0
   -0.5811   62.7428   73.6223 H   0  0  0  0  0  0  0  0  0  0  0  0
    0.3437   64.1214   72.8552 H   0  0  0  0  0  0  0  0  0  0  0  0
    1.0373   61.8811   71.3482 H   0  0  0  0  0  0  0  0  0  0  0  0
   -0.7512   61.7190   71.6678 H   0  0  0  0  0  0  0  0  0  0  0  0
    0.1277   63.0157   69.5571 H   0  0  0  0  0  0  0  0  0  0  0  0
   -1.2835   63.6216   70.5799 H   0  0  0  0  0  0  0  0  0  0  0  0
    0.0247   65.3043   71.5618 H   0  0  0  0  0  0  0  0  0  0  0  0
    1.5448   64.6293   70.8080 H   0  0  0  0  0  0  0  0  0  0  0  0
    0.3021   65.1079   68.5541 H   0  0  0  0  0  0  0  0  0  0  0  0
   -0.6654   66.2533   69.5627 H   0  0  0  0  0  0  0  0  0  0  0  0
    1.4383   67.3211   70.3348 H   0  0  0  0  0  0  0  0  0  0  0  0
    2.3573   66.1973   69.2248 H   0  0  0  0  0  0  0  0  0  0  0  0
    0.6872   68.6011   68.5934 H   0  0  0  0  0  0  0  0  0  0  0  0
    2.2971   67.9994   67.9232 H   0  0  0  0  0  0  0  0  0  0  0  0
    0.0185   66.2933   67.2422 H   0  0  0  0  0  0  0  0  0  0  0  0
   -0.0944   67.9678   66.5833 H   0  0  0  0  0  0  0  0  0  0  0  0
    1.1340   66.3130   65.2010 H   0  0  0  0  0  0  0  0  0  0  0  0
    2.3220   66.2360   66.3140 H   0  0  0  0  0  0  0  0  0  0  0  0
    1.9931   68.9824   65.7327 H   0  0  0  0  0  0  0  0  0  0  0  0
    4.0820   68.1608   66.4870 H   0  0  0  0  0  0  0  0  0  0  0  0
    4.0453   66.7773   65.3094 H   0  0  0  0  0  0  0  0  0  0  0  0
    4.4126   69.7203   64.6046 H   0  0  0  0  0  0  0  0  0  0  0  0
    5.7015   68.4582   64.6466 H   0  0  0  0  0  0  0  0  0  0  0  0
    4.7363   68.9681   62.3428 H   0  0  0  0  0  0  0  0  0  0  0  0
    4.6859   67.2323   62.8639 H   0  0  0  0  0  0  0  0  0  0  0  0
    3.0490   68.2840   60.7420 H   0  0  0  0  0  0  0  0  0  0  0  0
   -1.0042   68.3784   61.9655 H   0  0  0  0  0  0  0  0  0  0  0  0
   -0.2662   68.3130   64.2818 H   0  0  0  0  0  0  0  0  0  0  0  0
  1  2  2  0
  2  3  1  0
  3  4  2  0
  4  5  1  0
  5  6  2  0
  6  7  1  0
  6  8  1  0
  8  9  1  0
  9 10  1  0
 10 11  1  0
 11 12  1  0
 12 13  1  0
 13 14  1  0
 14 15  1  0
 15 16  1  0
 16 17  1  0
 17 18  1  0
 18 19  1  0
 19 20  1  0
 20 21  1  0
 21 22  1  0
 22 23  1  0
 23 24  1  0
 24 25  1  0
 25 26  1  0
 26 27  1  0
 27 28  1  0
 28 29  1  0
 29 30  1  0
 30 31  2  0
 30 32  1  0
 32 33  2  0
 33 34  1  0
  7  2  1  0
 34 24  1  0
 11  5  1  0
 34 28  2  0
  3 35  1  0
  4 36  1  0
  7 37  1  0
  8 38  1  0
  8 39  1  0
  9 40  1  0
  9 41  1  0
 10 42  1  0
 10 43  1  0
 11 44  1  1
 12 45  1  0
 12 46  1  0
 13 47  1  0
 13 48  1  0
 14 49  1  0
 14 50  1  0
 15 51  1  0
 15 52  1  0
 16 53  1  0
 16 54  1  0
 17 55  1  0
 17 56  1  0
 18 57  1  0
 18 58  1  0
 19 59  1  0
 19 60  1  0
 20 61  1  0
 20 62  1  0
 21 63  1  0
 21 64  1  0
 22 65  1  0
 22 66  1  0
 23 67  1  0
 23 68  1  0
 24 69  1  1
 25 70  1  0
 25 71  1  0
 26 72  1  0
 26 73  1  0
 27 74  1  0
 27 75  1  0
 29 76  1  0
 32 77  1  0
 33 78  1  0
M  CHG  2  12   1  23   1
M  END
>  <meeko>  (7) 
{"is_sidechain": [false], "free_energy": -10.417, "intermolecular_energy": -18.141, "internal_energy": -2.331}

$$$$
1h22_ligand
     RDKit          3D

 78 81  0  0  0  0  0  0  0  0999 V2000
    4.0880   56.8160   70.1810 O   0  0  0  0  0  0  0  0  0  0  0  0
    3.3520   57.4560   70.9180 C   0  0  0  0  0  0  0  0  0  0  0  0
    3.3550   58.9380   70.9090 C   0  0  0  0  0  0  0  0  0  0  0  0
    2.4910   59.6110   71.6820 C   0  0  0  0  0  0  0  0  0  0  0  0
    1.5250   58.9100   72.5220 C   0  0  0  0  0  0  0  0  0  0  0  0
    1.5870   57.5630   72.5930 C   0  0  0  0  0  0  0  0  0  0  0  0
    2.4780   56.8750   71.8000 N   0  0  0  0  0  0  0  0  0  0  0  0
    0.7330   56.7390   73.5210 C   0  0  0  0  0  0  0  0  0  0  0  0
    0.1130   57.5860   74.6350 C   0  0  0  0  0  0  0  0  0  0  0  0
   -0.5260   58.8460   74.0600 C   0  0  0  0  0  0  0  0  0  0  0  0
    0.5080   59.7100   73.3100 C   0  0  2  0  0  0  0  0  0  0  0  0
   -0.2390   60.7430   72.4880 N   0  0  0  0  0  0  0  0  0  0  0  0
    0.0510   62.1910   72.7670 C   0  0  0  0  0  0  0  0  0  0  0  0
    0.2900   62.9110   71.4410 C   0  0  0  0  0  0  0  0  0  0  0  0
    1.7800   63.0910   71.1150 C   0  0  0  0  0  0  0  0  0  0  0  0
    2.1640   62.6220   69.7070 C   0  0  0  0  0  0  0  0  0  0  0  0
    3.6810   62.5510   69.4890 C   0  0  0  0  0  0  0  0  0  0  0  0
    4.4990   63.6920   70.1050 C   0  0  0  0  0  0  0  0  0  0  0  0
    4.5620   64.9420   69.2210 C   0  0  0  0  0  0  0  0  0  0  0  0
    3.5270   65.9820   69.6690 C   0  0  0  0  0  0  0  0  0  0  0  0
    2.5130   66.3470   68.5780 C   0  0  0  0  0  0  0  0  0  0  0  0
    2.8720   67.5570   67.7170 C   0  0  0  0  0  0  0  0  0  0  0  0
    3.8340   67.1650   66.6430 N   0  0  0  0  0  0  0  0  0  0  0  0
    3.2730   67.0790   65.2370 C   0  0  1  0  0  0  0  0  0  0  0  0
    3.7600   68.3230   64.4650 C   0  0  0  0  0  0  0  0  0  0  0  0
    3.6840   68.1310   62.9540 C   0  0  0  0  0  0  0  0  0  0  0  0
    4.5400   66.9410   62.5210 C   0  0  0  0  0  0  0  0  0  0  0  0
    4.2700   65.7250   63.3650 C   0  0  0  0  0  0  0  0  0  0  0  0
    4.6540   64.5150   62.8350 N   0  0  0  0  0  0  0  0  0  0  0  0
    4.4550   63.2960   63.4350 C   0  0  0  0  0  0  0  0  0  0  0  0
    4.8480   62.2430   62.9570 O   0  0  0  0  0  0  0  0  0  0  0  0
    3.7080   63.3340   64.7130 C   0  0  0  0  0  0  0  0  0  0  0  0
    3.3300   64.5130   65.2300 C   0  0  0  0  0  0  0  0  0  0  0  0
    3.6620   65.7710   64.5700 C   0  0  0  0  0  0  0  0  0  0  0  0
    4.0643   59.4842   70.2698 H   0  0  0  0  0  0  0  0  0  0  0  0
    2.5104   60.7108   71.6832 H   0  0  0  0  0  0  0  0  0  0  0  0
    2.5220   55.8610   71.8340 H   0  0  0  0  0  0  0  0  0  0  0  0
   -0.0750   56.2718   72.9388 H   0  0  0  0  0  0  0  0  0  0  0  0
    1.3764   55.9800   73.9900 H   0  0  0  0  0  0  0  0  0  0  0  0
   -0.6565   56.9946   75.1529 H   0  0  0  0  0  0  0  0  0  0  0  0
    0.9053   57.8802   75.3391 H   0  0  0  0  0  0  0  0  0  0  0  0
   -1.3239   58.5554   73.3608 H   0  0  0  0  0  0  0  0  0  0  0  0
   -0.9329   59.4384   74.8927 H   0  0  0  0  0  0  0  0  0  0  0  0
    1.1371   60.2311   74.0466 H   0  0  0  0  0  0  0  0  0  0  0  0
   -0.0650   60.5480   71.4930 H   0  0  0  0  0  0  0  0  0  0  0  0
   -1.2430   60.5740   72.6220 H   0  0  0  0  0  0  0  0  0  0  0  0
   -0.8058   62.6462   73.2854 H   0  0  0  0  0  0  0  0  0  0  0  0
    0.9434   62.2768   73.4044 H   0  0  0  0  0  0  0  0  0  0  0  0
   -0.1767   62.3254   70.6352 H   0  0  0  0  0  0  0  0  0  0  0  0
   -0.1510   63.9150   71.5280 H   0  0  0  0  0  0  0  0  0  0  0  0
    2.0287   64.1587   71.2052 H   0  0  0  0  0  0  0  0  0  0  0  0
    2.3421   62.4675   71.8259 H   0  0  0  0  0  0  0  0  0  0  0  0
    1.7396   61.6204   69.5438 H   0  0  0  0  0  0  0  0  0  0  0  0
    1.7646   63.3596   68.9953 H   0  0  0  0  0  0  0  0  0  0  0  0
    4.0402   61.6061   69.9228 H   0  0  0  0  0  0  0  0  0  0  0  0
    3.8301   62.6303   68.4020 H   0  0  0  0  0  0  0  0  0  0  0  0
    4.0428   63.9680   71.0672 H   0  0  0  0  0  0  0  0  0  0  0  0
    5.5295   63.3257   70.2232 H   0  0  0  0  0  0  0  0  0  0  0  0
    5.5678   65.3819   69.2904 H   0  0  0  0  0  0  0  0  0  0  0  0
    4.3409   64.6504   68.1837 H   0  0  0  0  0  0  0  0  0  0  0  0
    2.9786   65.5775   70.5325 H   0  0  0  0  0  0  0  0  0  0  0  0
    4.0788   66.9006   69.9175 H   0  0  0  0  0  0  0  0  0  0  0  0
    2.4060   65.4782   67.9119 H   0  0  0  0  0  0  0  0  0  0  0  0
    1.5884   66.6200   69.1077 H   0  0  0  0  0  0  0  0  0  0  0  0
    1.9574   67.9578   67.2557 H   0  0  0  0  0  0  0  0  0  0  0  0
    3.3405   68.3218   68.3539 H   0  0  0  0  0  0  0  0  0  0  0  0
    4.2280   66.2480   66.8820 H   0  0  0  0  0  0  0  0  0  0  0  0
    4.6400   67.8030   66.6220 H   0  0  0  0  0  0  0  0  0  0  0  0
    2.1731   67.0769   65.2512 H   0  0  0  0  0  0  0  0  0  0  0  0
    3.1319   69.1816   64.7448 H   0  0  0  0  0  0  0  0  0  0  0  0
    4.8137   68.4936   64.7306 H   0  0  0  0  0  0  0  0  0  0  0  0
    2.6385   67.9490   62.6645 H   0  0  0  0  0  0  0  0  0  0  0  0
    4.0620   69.0388   62.4609 H   0  0  0  0  0  0  0  0  0  0  0  0
    4.3148   66.7032   61.4709 H   0  0  0  0  0  0  0  0  0  0  0  0
    5.5978   67.2164   62.6447 H   0  0  0  0  0  0  0  0  0  0  0  0
    5.1250   64.4670   61.9360 H   0  0  0  0  0  0  0  0  0  0  0  0
    3.4637   62.3982   65.2370 H   0  0  0  0  0  0  0  0  0  0  0  0
    2.7587   64.5314   66.1698 H   0  0  0  0  0  0  0  0  0  0  0  0
  1  2  2  0
  2  3  1  0
  3  4  2  0
  4  5  1  0
  5  6  2  0
  6  7  1  0
  6  8  1  0
  8  9  1  0
  9 10  1  0
 10 11  1  0
 11 12  1  0
 12 13  1  0
 13 14  1  0
 14 15  1  0
 15 16  1  0
 16 17  1  0
 17 18  1  0
 18 19  1  0
 19 20  1  0
 20 21  1  0
 21 22  1  0
 22 23  1  0
 23 24  1  0
 24 25  1  0
 25 26  1  0
 26 27  1  0
 27 28  1  0
 28 29  1  0
 29 30  1  0
 30 31  2  0
 30 32  1  0
 32 33  2  0
 33 34  1  0
  7  2  1  0
 34 24  1  0
 11  5  1  0
 34 28  2  0
  3 35  1  0
  4 36  1  0
  7 37  1  0
  8 38  1  0
  8 39  1  0
  9 40  1  0
  9 41  1  0
 10 42  1  0
 10 43  1  0
 11 44  1  1
 12 45  1  0
 12 46  1  0
 13 47  1  0
 13 48  1  0
 14 49  1  0
 14 50  1  0
 15 51  1  0
 15 52  1  0
 16 53  1  0
 16 54  1  0
 17 55  1  0
 17 56  1  0
 18 57  1  0
 18 58  1  0
 19 59  1  0
 19 60  1  0
 20 61  1  0
 20 62  1  0
 21 63  1  0
 21 64  1  0
 22 65  1  0
 22 66  1  0
 23 67  1  0
 23 68  1  0
 24 69  1  1
 25 70  1  0
 25 71  1  0
 26 72  1  0
 26 73  1  0
 27 74  1  0
 27 75  1  0
 29 76  1  0
 32 77  1  0
 33 78  1  0
M  CHG  2  12   1  23   1
M  END
>  <meeko>  (8) 
{"is_sidechain": [false], "free_energy": -10.364, "intermolecular_energy": -18.366, "internal_energy": -2.012}

$$$$
1h22_ligand
     RDKit          3D

 78 81  0  0  0  0  0  0  0  0999 V2000
    4.2260   58.6050   69.2160 O   0  0  0  0  0  0  0  0  0  0  0  0
    3.9030   58.9180   70.3540 C   0  0  0  0  0  0  0  0  0  0  0  0
    4.5710   60.0330   71.0640 C   0  0  0  0  0  0  0  0  0  0  0  0
    4.1500   60.3930   72.2850 C   0  0  0  0  0  0  0  0  0  0  0  0
    3.0250   59.7200   72.9250 C   0  0  0  0  0  0  0  0  0  0  0  0
    2.4780   58.6490   72.3110 C   0  0  0  0  0  0  0  0  0  0  0  0
    2.9150   58.2790   71.0590 N   0  0  0  0  0  0  0  0  0  0  0  0
    1.4030   57.7950   72.9300 C   0  0  0  0  0  0  0  0  0  0  0  0
    1.2990   58.0080   74.4420 C   0  0  0  0  0  0  0  0  0  0  0  0
    1.2610   59.4970   74.7730 C   0  0  0  0  0  0  0  0  0  0  0  0
    2.5260   60.2190   74.2660 C   0  0  2  0  0  0  0  0  0  0  0  0
    2.2760   61.7130   74.3160 N   0  0  0  0  0  0  0  0  0  0  0  0
    0.8690   62.1880   74.0840 C   0  0  0  0  0  0  0  0  0  0  0  0
    0.8240   62.9820   72.7800 C   0  0  0  0  0  0  0  0  0  0  0  0
    0.5150   62.1090   71.5550 C   0  0  0  0  0  0  0  0  0  0  0  0
    1.5570   62.2250   70.4360 C   0  0  0  0  0  0  0  0  0  0  0  0
    2.5850   63.3360   70.6840 C   0  0  0  0  0  0  0  0  0  0  0  0
    3.6910   63.4700   69.6310 C   0  0  0  0  0  0  0  0  0  0  0  0
    4.4130   64.8220   69.6750 C   0  0  0  0  0  0  0  0  0  0  0  0
    4.7830   65.2910   68.2630 C   0  0  0  0  0  0  0  0  0  0  0  0
    3.6050   65.2740   67.2820 C   0  0  0  0  0  0  0  0  0  0  0  0
    2.8980   66.6120   67.0710 C   0  0  0  0  0  0  0  0  0  0  0  0
    2.4990   66.7700   65.6390 N   0  0  0  0  0  0  0  0  0  0  0  0
    3.0380   67.9920   64.9220 C   0  0  1  0  0  0  0  0  0  0  0  0
    4.5750   67.8650   64.8760 C   0  0  0  0  0  0  0  0  0  0  0  0
    5.1940   68.7430   63.7950 C   0  0  0  0  0  0  0  0  0  0  0  0
    4.6480   68.3660   62.4190 C   0  0  0  0  0  0  0  0  0  0  0  0
    3.1470   68.2690   62.4240 C   0  0  0  0  0  0  0  0  0  0  0  0
    2.5240   68.3430   61.1990 N   0  0  0  0  0  0  0  0  0  0  0  0
    1.1650   68.3160   61.0050 C   0  0  0  0  0  0  0  0  0  0  0  0
    0.6460   68.3380   59.9000 O   0  0  0  0  0  0  0  0  0  0  0  0
    0.3510   68.2700   62.2410 C   0  0  0  0  0  0  0  0  0  0  0  0
    0.9550   68.2010   63.4360 C   0  0  0  0  0  0  0  0  0  0  0  0
    2.4090   68.1440   63.5480 C   0  0  0  0  0  0  0  0  0  0  0  0
    5.4101   60.5642   70.5910 H   0  0  0  0  0  0  0  0  0  0  0  0
    4.6621   61.2105   72.8136 H   0  0  0  0  0  0  0  0  0  0  0  0
    2.5000   57.4840   70.5810 H   0  0  0  0  0  0  0  0  0  0  0  0
    0.4376   58.0500   72.4685 H   0  0  0  0  0  0  0  0  0  0  0  0
    1.6635   56.7410   72.7532 H   0  0  0  0  0  0  0  0  0  0  0  0
    0.3789   57.5318   74.8118 H   0  0  0  0  0  0  0  0  0  0  0  0
    2.1799   57.5597   74.9248 H   0  0  0  0  0  0  0  0  0  0  0  0
    0.3772   59.9469   74.2971 H   0  0  0  0  0  0  0  0  0  0  0  0
    1.2144   59.6073   75.8665 H   0  0  0  0  0  0  0  0  0  0  0  0
    3.3650   59.9781   74.9353 H   0  0  0  0  0  0  0  0  0  0  0  0
    2.6050   62.0630   75.2270 H   0  0  0  0  0  0  0  0  0  0  0  0
    2.8920   62.1510   73.6220 H   0  0  0  0  0  0  0  0  0  0  0  0
    0.1940   61.3224   74.0128 H   0  0  0  0  0  0  0  0  0  0  0  0
    0.5483   62.8263   74.9205 H   0  0  0  0  0  0  0  0  0  0  0  0
    0.0444   63.7532   72.8662 H   0  0  0  0  0  0  0  0  0  0  0  0
    1.8212   63.4206   72.6278 H   0  0  0  0  0  0  0  0  0  0  0  0
    0.4696   61.0590   71.8796 H   0  0  0  0  0  0  0  0  0  0  0  0
   -0.4411   62.4626   71.1415 H   0  0  0  0  0  0  0  0  0  0  0  0
    2.0904   61.2665   70.3536 H   0  0  0  0  0  0  0  0  0  0  0  0
    1.0181   62.4773   69.5108 H   0  0  0  0  0  0  0  0  0  0  0  0
    2.0438   64.2926   70.7283 H   0  0  0  0  0  0  0  0  0  0  0  0
    3.0956   63.0664   71.6203 H   0  0  0  0  0  0  0  0  0  0  0  0
    4.4311   62.6738   69.7994 H   0  0  0  0  0  0  0  0  0  0  0  0
    3.2114   63.3899   68.6443 H   0  0  0  0  0  0  0  0  0  0  0  0
    3.7523   65.5681   70.1407 H   0  0  0  0  0  0  0  0  0  0  0  0
    5.3370   64.7080   70.2608 H   0  0  0  0  0  0  0  0  0  0  0  0
    5.1668   66.3199   68.3277 H   0  0  0  0  0  0  0  0  0  0  0  0
    5.5349   64.5874   67.8762 H   0  0  0  0  0  0  0  0  0  0  0  0
    3.9827   64.9340   66.3064 H   0  0  0  0  0  0  0  0  0  0  0  0
    2.8538   64.6054   67.7277 H   0  0  0  0  0  0  0  0  0  0  0  0
    1.9993   66.6510   67.7041 H   0  0  0  0  0  0  0  0  0  0  0  0
    3.5864   67.4261   67.3417 H   0  0  0  0  0  0  0  0  0  0  0  0
    1.4740   66.8030   65.5920 H   0  0  0  0  0  0  0  0  0  0  0  0
    2.7640   65.9410   65.0920 H   0  0  0  0  0  0  0  0  0  0  0  0
    2.7733   68.9134   65.4614 H   0  0  0  0  0  0  0  0  0  0  0  0
    4.9843   68.1638   65.8523 H   0  0  0  0  0  0  0  0  0  0  0  0
    4.8201   66.8185   64.6419 H   0  0  0  0  0  0  0  0  0  0  0  0
    4.9540   69.7961   64.0031 H   0  0  0  0  0  0  0  0  0  0  0  0
    6.2838   68.5937   63.7975 H   0  0  0  0  0  0  0  0  0  0  0  0
    4.9533   69.1329   61.6919 H   0  0  0  0  0  0  0  0  0  0  0  0
    5.0546   67.3808   62.1467 H   0  0  0  0  0  0  0  0  0  0  0  0
    3.0670   68.4230   60.3440 H   0  0  0  0  0  0  0  0  0  0  0  0
   -0.7470   68.2924   62.1789 H   0  0  0  0  0  0  0  0  0  0  0  0
    0.3427   68.1871   64.3498 H   0  0  0  0  0  0  0  0  0  0  0  0
  1  2  2  0
  2  3  1  0
  3  4  2  0
  4  5  1  0
  5  6  2  0
  6  7  1  0
  6  8  1  0
  8  9  1  0
  9 10  1  0
 10 11  1  0
 11 12  1  0
 12 13  1  0
 13 14  1  0
 14 15  1  0
 15 16  1  0
 16 17  1  0
 17 18  1  0
 18 19  1  0
 19 20  1  0
 20 21  1  0
 21 22  1  0
 22 23  1  0
 23 24  1  0
 24 25  1  0
 25 26  1  0
 26 27  1  0
 27 28  1  0
 28 29  1  0
 29 30  1  0
 30 31  2  0
 30 32  1  0
 32 33  2  0
 33 34  1  0
  7  2  1  0
 34 24  1  0
 11  5  1  0
 34 28  2  0
  3 35  1  0
  4 36  1  0
  7 37  1  0
  8 38  1  0
  8 39  1  0
  9 40  1  0
  9 41  1  0
 10 42  1  0
 10 43  1  0
 11 44  1  1
 12 45  1  0
 12 46  1  0
 13 47  1  0
 13 48  1  0
 14 49  1  0
 14 50  1  0
 15 51  1  0
 15 52  1  0
 16 53  1  0
 16 54  1  0
 17 55  1  0
 17 56  1  0
 18 57  1  0
 18 58  1  0
 19 59  1  0
 19 60  1  0
 20 61  1  0
 20 62  1  0
 21 63  1  0
 21 64  1  0
 22 65  1  0
 22 66  1  0
 23 67  1  0
 23 68  1  0
 24 69  1  1
 25 70  1  0
 25 71  1  0
 26 72  1  0
 26 73  1  0
 27 74  1  0
 27 75  1  0
 29 76  1  0
 32 77  1  0
 33 78  1  0
M  CHG  2  12   1  23   1
M  END
>  <meeko>  (9) 
{"is_sidechain": [false], "free_energy": -10.323, "intermolecular_energy": -18.263, "internal_energy": -2.043}

$$$$
