1o0h_ligand
     RDKit          3D

 39 41  0  0  0  0  0  0  0  0999 V2000
   38.1060    1.6000   20.3310 N   0  0  0  0  0  0  0  0  0  0  0  0
   38.1550    2.8540   19.7070 C   0  0  0  0  0  0  0  0  0  0  0  0
   39.0380    3.0160   18.6940 N   0  0  0  0  0  0  0  0  0  0  0  0
   39.0620    4.2110   18.0400 C   0  0  0  0  0  0  0  0  0  0  0  0
   38.2950    5.2780   18.3030 N   0  0  0  0  0  0  0  0  0  0  0  0
   37.4310    5.0640   19.2880 C   0  0  0  0  0  0  0  0  0  0  0  0
   37.2910    3.9130   20.0360 C   0  0  0  0  0  0  0  0  0  0  0  0
   36.2710    4.0530   20.9660 N   0  0  0  0  0  0  0  0  0  0  0  0
   35.8180    5.2770   20.7650 C   0  0  0  0  0  0  0  0  0  0  0  0
   36.4860    5.9250   19.7540 N   0  0  0  0  0  0  0  0  0  0  0  0
   36.1870    7.2470   19.2470 C   0  0  2  0  0  0  0  0  0  0  0  0
   35.8410    7.1510   17.8430 O   0  0  0  0  0  0  0  0  0  0  0  0
   36.4550    8.2960   17.1780 C   0  0  2  0  0  0  0  0  0  0  0  0
   37.6330    7.8920   16.2840 C   0  0  0  0  0  0  0  0  0  0  0  0
   37.0960    7.3050   15.1090 O   0  0  0  0  0  0  0  0  0  0  0  0
   38.0530    6.2820   14.2770 P   0  0  1  0  0  5  0  0  0  0  0  0
   38.2370    6.9500   12.9150 O   0  0  0  0  0  0  0  0  0  0  0  0
   39.3370    6.1030   15.0770 O   0  0  0  0  0  0  0  0  0  0  0  0
   37.1720    4.9620   14.1210 O   0  0  0  0  0  0  0  0  0  0  0  0
   36.0520    4.3760   13.1190 P   0  0  0  0  0  0  0  0  0  0  0  0
   36.8030    4.1470   11.8050 O   0  0  0  0  0  0  0  0  0  0  0  0
   34.9770    5.4500   12.9890 O   0  0  0  0  0  0  0  0  0  0  0  0
   35.5380    3.0740   13.7230 O   0  0  0  0  0  0  0  0  0  0  0  0
   36.8450    9.2650   18.2970 C   0  0  1  0  0  0  0  0  0  0  0  0
   35.6650   10.0010   18.7190 O   0  0  0  0  0  0  0  0  0  0  0  0
   37.2820    8.3020   19.3900 C   0  0  1  0  0  0  0  0  0  0  0  0
   37.3280    8.9140   20.6860 O   0  0  0  0  0  0  0  0  0  0  0  0
   37.5480    0.9660   19.7730 H   0  0  0  0  0  0  0  0  0  0  0  0
   39.0660    1.3290   20.5140 H   0  0  0  0  0  0  0  0  0  0  0  0
   39.7822    4.3098   17.2144 H   0  0  0  0  0  0  0  0  0  0  0  0
   34.9974    5.7276   21.3425 H   0  0  0  0  0  0  0  0  0  0  0  0
   35.3591    7.5964   19.8815 H   0  0  0  0  0  0  0  0  0  0  0  0
   35.7562    8.7774   16.4781 H   0  0  0  0  0  0  0  0  0  0  0  0
   38.2274    8.7798   16.0222 H   0  0  0  0  0  0  0  0  0  0  0  0
   38.2895    7.1809   16.8067 H   0  0  0  0  0  0  0  0  0  0  0  0
   37.6081   10.0090   18.0248 H   0  0  0  0  0  0  0  0  0  0  0  0
   34.9460    9.5820   18.2100 H   0  0  0  0  0  0  0  0  0  0  0  0
   38.3064    7.9130   19.2936 H   0  0  0  0  0  0  0  0  0  0  0  0
   37.8990    9.6930   20.5320 H   0  0  0  0  0  0  0  0  0  0  0  0
  1  2  1  0
  2  3  2  0
  3  4  1  0
  4  5  2  0
  5  6  1  0
  6  7  2  0
  7  8  1  0
  8  9  2  0
  9 10  1  0
 10 11  1  0
 11 12  1  0
 12 13  1  0
 13 14  1  0
 14 15  1  0
 15 16  1  0
 16 17  2  0
 16 18  1  1
 16 19  1  0
 19 20  1  0
 20 21  2  0
 20 22  1  0
 20 23  1  0
 13 24  1  0
 24 25  1  0
 24 26  1  0
 26 27  1  0
  7  2  1  0
 26 11  1  0
 10  6  1  0
  1 28  1  0
  1 29  1  0
  4 30  1  0
  9 31  1  0
 11 32  1  1
 13 33  1  6
 14 34  1  0
 14 35  1  0
 24 36  1  6
 25 37  1  0
 26 38  1  6
 27 39  1  0
M  CHG  3  18  -1  22  -1  23  -1
M  END
>  <meeko>  (1) 
{"is_sidechain": [false], "free_energy": -6.409, "intermolecular_energy": -9.22, "internal_energy": -0.922}

$$$$
1o0h_ligand
     RDKit          3D

 39 41  0  0  0  0  0  0  0  0999 V2000
   37.9990    0.4950   20.3590 N   0  0  0  0  0  0  0  0  0  0  0  0
   37.4240    1.7470   20.6150 C   0  0  0  0  0  0  0  0  0  0  0  0
   36.4630    1.8120   21.5650 N   0  0  0  0  0  0  0  0  0  0  0  0
   35.9300    3.0300   21.8660 C   0  0  0  0  0  0  0  0  0  0  0  0
   36.2530    4.2010   21.3020 N   0  0  0  0  0  0  0  0  0  0  0  0
   37.2160    4.0900   20.3930 C   0  0  0  0  0  0  0  0  0  0  0  0
   37.8460    2.9320   19.9870 C   0  0  0  0  0  0  0  0  0  0  0  0
   38.8120    3.2090   19.0300 N   0  0  0  0  0  0  0  0  0  0  0  0
   38.7470    4.5190   18.8770 C   0  0  0  0  0  0  0  0  0  0  0  0
   37.7980    5.0960   19.6860 N   0  0  0  0  0  0  0  0  0  0  0  0
   37.5280    6.5130   19.8030 C   0  0  2  0  0  0  0  0  0  0  0  0
   36.4500    6.8680   18.9020 O   0  0  0  0  0  0  0  0  0  0  0  0
   36.7980    8.1590   18.3170 C   0  0  2  0  0  0  0  0  0  0  0  0
   37.1790    8.0490   16.8360 C   0  0  0  0  0  0  0  0  0  0  0  0
   36.7790    6.7630   16.3870 O   0  0  0  0  0  0  0  0  0  0  0  0
   37.5830    6.1280   15.1200 P   0  0  1  0  0  5  0  0  0  0  0  0
   37.6300    7.2560   14.0900 O   0  0  0  0  0  0  0  0  0  0  0  0
   38.9440    5.6690   15.6240 O   0  0  0  0  0  0  0  0  0  0  0  0
   36.6310    4.9580   14.6000 O   0  0  0  0  0  0  0  0  0  0  0  0
   36.0370    4.4260   13.1980 P   0  0  0  0  0  0  0  0  0  0  0  0
   34.9060    5.4040   12.8710 O   0  0  0  0  0  0  0  0  0  0  0  0
   35.5220    3.0120   13.4500 O   0  0  0  0  0  0  0  0  0  0  0  0
   37.1650    4.4860   12.1740 O   0  0  0  0  0  0  0  0  0  0  0  0
   37.9200    8.7220   19.1930 C   0  0  1  0  0  0  0  0  0  0  0  0
   37.3390    9.2970   20.3950 O   0  0  0  0  0  0  0  0  0  0  0  0
   38.6960    7.4590   19.5360 C   0  0  1  0  0  0  0  0  0  0  0  0
   39.5700    7.6310   20.6600 O   0  0  0  0  0  0  0  0  0  0  0  0
   37.3350   -0.0890   19.8670 H   0  0  0  0  0  0  0  0  0  0  0  0
   38.8860    0.6710   19.9000 H   0  0  0  0  0  0  0  0  0  0  0  0
   35.1583    3.0534   22.6496 H   0  0  0  0  0  0  0  0  0  0  0  0
   39.3818    5.0852   18.1796 H   0  0  0  0  0  0  0  0  0  0  0  0
   37.2766    6.6515   20.8649 H   0  0  0  0  0  0  0  0  0  0  0  0
   35.9357    8.8420   18.3087 H   0  0  0  0  0  0  0  0  0  0  0  0
   36.6611    8.8272   16.2561 H   0  0  0  0  0  0  0  0  0  0  0  0
   38.2623    8.1861   16.7034 H   0  0  0  0  0  0  0  0  0  0  0  0
   38.5297    9.5077   18.7229 H   0  0  0  0  0  0  0  0  0  0  0  0
   36.6660    9.9100   20.0460 H   0  0  0  0  0  0  0  0  0  0  0  0
   39.3974    7.1109   18.7635 H   0  0  0  0  0  0  0  0  0  0  0  0
   40.4550    7.5210   20.2590 H   0  0  0  0  0  0  0  0  0  0  0  0
  1  2  1  0
  2  3  2  0
  3  4  1  0
  4  5  2  0
  5  6  1  0
  6  7  2  0
  7  8  1  0
  8  9  2  0
  9 10  1  0
 10 11  1  0
 11 12  1  0
 12 13  1  0
 13 14  1  0
 14 15  1  0
 15 16  1  0
 16 17  2  0
 16 18  1  1
 16 19  1  0
 19 20  1  0
 20 21  2  0
 20 22  1  0
 20 23  1  0
 13 24  1  0
 24 25  1  0
 24 26  1  0
 26 27  1  0
  7  2  1  0
 26 11  1  0
 10  6  1  0
  1 28  1  0
  1 29  1  0
  4 30  1  0
  9 31  1  0
 11 32  1  1
 13 33  1  6
 14 34  1  0
 14 35  1  0
 24 36  1  6
 25 37  1  0
 26 38  1  6
 27 39  1  0
M  CHG  3  18  -1  22  -1  23  -1
M  END
>  <meeko>  (2) 
{"is_sidechain": [false], "free_energy": -6.364, "intermolecular_energy": -8.982, "internal_energy": -1.093}

$$$$
1o0h_ligand
     RDKit          3D

 39 41  0  0  0  0  0  0  0  0999 V2000
   36.0660    2.4300   22.1000 N   0  0  0  0  0  0  0  0  0  0  0  0
   36.6670    3.2750   21.1560 C   0  0  0  0  0  0  0  0  0  0  0  0
   37.6390    2.7500   20.3750 N   0  0  0  0  0  0  0  0  0  0  0  0
   38.1970    3.5400   19.4150 C   0  0  0  0  0  0  0  0  0  0  0  0
   37.8890    4.8190   19.1590 N   0  0  0  0  0  0  0  0  0  0  0  0
   36.9160    5.2820   19.9350 C   0  0  0  0  0  0  0  0  0  0  0  0
   36.2600    4.6030   20.9410 C   0  0  0  0  0  0  0  0  0  0  0  0
   35.2890    5.4060   21.5230 N   0  0  0  0  0  0  0  0  0  0  0  0
   35.3770    6.5470   20.8620 C   0  0  0  0  0  0  0  0  0  0  0  0
   36.3440    6.5160   19.8870 N   0  0  0  0  0  0  0  0  0  0  0  0
   36.6420    7.5780   18.9500 C   0  0  2  0  0  0  0  0  0  0  0  0
   35.9910    7.2950   17.6870 O   0  0  0  0  0  0  0  0  0  0  0  0
   36.9290    7.6730   16.6350 C   0  0  2  0  0  0  0  0  0  0  0  0
   37.5130    6.4580   15.9050 C   0  0  0  0  0  0  0  0  0  0  0  0
   36.4270    5.7200   15.3670 O   0  0  0  0  0  0  0  0  0  0  0  0
   36.3940    5.5040   13.7520 P   0  0  1  0  0  5  0  0  0  0  0  0
   35.7070    4.1530   13.5600 O   0  0  0  0  0  0  0  0  0  0  0  0
   35.6530    6.6880   13.1460 O   0  0  0  0  0  0  0  0  0  0  0  0
   37.9310    5.3940   13.3410 O   0  0  0  0  0  0  0  0  0  0  0  0
   38.9120    5.9620   12.1940 P   0  0  0  0  0  0  0  0  0  0  0  0
   38.3860    5.3330   10.9010 O   0  0  0  0  0  0  0  0  0  0  0  0
   40.3170    5.4790   12.5400 O   0  0  0  0  0  0  0  0  0  0  0  0
   38.7770    7.4810   12.1910 O   0  0  0  0  0  0  0  0  0  0  0  0
   37.9900    8.5410   17.3180 C   0  0  1  0  0  0  0  0  0  0  0  0
   37.4640    9.8850   17.4880 O   0  0  0  0  0  0  0  0  0  0  0  0
   38.1180    7.8510   18.6680 C   0  0  1  0  0  0  0  0  0  0  0  0
   38.7520    8.6750   19.6560 O   0  0  0  0  0  0  0  0  0  0  0  0
   36.6180    1.5880   22.2000 H   0  0  0  0  0  0  0  0  0  0  0  0
   35.9170    2.9870   22.9350 H   0  0  0  0  0  0  0  0  0  0  0  0
   38.9771    3.0829   18.7885 H   0  0  0  0  0  0  0  0  0  0  0  0
   34.7461    7.4239   21.0695 H   0  0  0  0  0  0  0  0  0  0  0  0
   36.2656    8.4856   19.4446 H   0  0  0  0  0  0  0  0  0  0  0  0
   36.4287    8.2359   15.8332 H   0  0  0  0  0  0  0  0  0  0  0  0
   38.1786    6.7909   15.0949 H   0  0  0  0  0  0  0  0  0  0  0  0
   38.0989    5.8354   16.5972 H   0  0  0  0  0  0  0  0  0  0  0  0
   38.9401    8.6344   16.7715 H   0  0  0  0  0  0  0  0  0  0  0  0
   37.2120    9.9090   18.4290 H   0  0  0  0  0  0  0  0  0  0  0  0
   38.7586    6.9569   18.6825 H   0  0  0  0  0  0  0  0  0  0  0  0
   39.2550    8.0240   20.1830 H   0  0  0  0  0  0  0  0  0  0  0  0
  1  2  1  0
  2  3  2  0
  3  4  1  0
  4  5  2  0
  5  6  1  0
  6  7  2  0
  7  8  1  0
  8  9  2  0
  9 10  1  0
 10 11  1  0
 11 12  1  0
 12 13  1  0
 13 14  1  0
 14 15  1  0
 15 16  1  0
 16 17  2  0
 16 18  1  6
 16 19  1  0
 19 20  1  0
 20 21  2  0
 20 22  1  0
 20 23  1  0
 13 24  1  0
 24 25  1  0
 24 26  1  0
 26 27  1  0
  7  2  1  0
 26 11  1  0
 10  6  1  0
  1 28  1  0
  1 29  1  0
  4 30  1  0
  9 31  1  0
 11 32  1  1
 13 33  1  6
 14 34  1  0
 14 35  1  0
 24 36  1  6
 25 37  1  0
 26 38  1  6
 27 39  1  0
M  CHG  3  18  -1  22  -1  23  -1
M  END
>  <meeko>  (3) 
{"is_sidechain": [false], "free_energy": -6.336, "intermolecular_energy": -9.306, "internal_energy": -0.729}

$$$$
1o0h_ligand
     RDKit          3D

 39 41  0  0  0  0  0  0  0  0999 V2000
   36.0380    2.4060   22.1160 N   0  0  0  0  0  0  0  0  0  0  0  0
   36.6580    3.2490   21.1820 C   0  0  0  0  0  0  0  0  0  0  0  0
   37.6290    2.7150   20.4050 N   0  0  0  0  0  0  0  0  0  0  0  0
   38.2050    3.5030   19.4550 C   0  0  0  0  0  0  0  0  0  0  0  0
   37.9160    4.7870   19.2040 N   0  0  0  0  0  0  0  0  0  0  0  0
   36.9430    5.2590   19.9740 C   0  0  0  0  0  0  0  0  0  0  0  0
   36.2700    4.5830   20.9720 C   0  0  0  0  0  0  0  0  0  0  0  0
   35.3050    5.3950   21.5500 N   0  0  0  0  0  0  0  0  0  0  0  0
   35.4130    6.5390   20.8970 C   0  0  0  0  0  0  0  0  0  0  0  0
   36.3880    6.5010   19.9290 N   0  0  0  0  0  0  0  0  0  0  0  0
   36.7070    7.5640   19.0020 C   0  0  2  0  0  0  0  0  0  0  0  0
   36.0110    7.3310   17.7520 O   0  0  0  0  0  0  0  0  0  0  0  0
   36.9360    7.6850   16.6810 C   0  0  2  0  0  0  0  0  0  0  0  0
   37.4460    6.4580   15.9160 C   0  0  0  0  0  0  0  0  0  0  0  0
   36.3430    5.8990   15.2210 O   0  0  0  0  0  0  0  0  0  0  0  0
   36.5990    5.3860   13.6960 P   0  0  1  0  0  5  0  0  0  0  0  0
   35.2050    5.0670   13.1590 O   0  0  0  0  0  0  0  0  0  0  0  0
   37.3280    6.4990   12.9550 O   0  0  0  0  0  0  0  0  0  0  0  0
   37.4350    4.0400   13.8710 O   0  0  0  0  0  0  0  0  0  0  0  0
   37.9440    2.8130   12.9560 P   0  0  0  0  0  0  0  0  0  0  0  0
   38.4560    1.7780   13.9610 O   0  0  0  0  0  0  0  0  0  0  0  0
   39.0600    3.3600   12.0720 O   0  0  0  0  0  0  0  0  0  0  0  0
   36.7410    2.3040   12.1680 O   0  0  0  0  0  0  0  0  0  0  0  0
   38.0520    8.4940   17.3470 C   0  0  1  0  0  0  0  0  0  0  0  0
   37.5910    9.8570   17.5530 O   0  0  0  0  0  0  0  0  0  0  0  0
   38.1860    7.7770   18.6830 C   0  0  1  0  0  0  0  0  0  0  0  0
   38.8820    8.5560   19.6650 O   0  0  0  0  0  0  0  0  0  0  0  0
   36.6000    1.5750   22.2480 H   0  0  0  0  0  0  0  0  0  0  0  0
   35.8510    2.9710   22.9370 H   0  0  0  0  0  0  0  0  0  0  0  0
   38.9844    3.0395   18.8324 H   0  0  0  0  0  0  0  0  0  0  0  0
   34.7920    7.4228   21.1050 H   0  0  0  0  0  0  0  0  0  0  0  0
   36.3841    8.4781   19.5217 H   0  0  0  0  0  0  0  0  0  0  0  0
   36.4394    8.2826   15.9024 H   0  0  0  0  0  0  0  0  0  0  0  0
   38.2265    6.7587   15.2016 H   0  0  0  0  0  0  0  0  0  0  0  0
   37.8797    5.7223   16.6093 H   0  0  0  0  0  0  0  0  0  0  0  0
   38.9897    8.5545   16.7751 H   0  0  0  0  0  0  0  0  0  0  0  0
   37.5880    9.9480   18.5230 H   0  0  0  0  0  0  0  0  0  0  0  0
   38.7868    6.8557   18.6662 H   0  0  0  0  0  0  0  0  0  0  0  0
   38.5580    8.1750   20.5060 H   0  0  0  0  0  0  0  0  0  0  0  0
  1  2  1  0
  2  3  2  0
  3  4  1  0
  4  5  2  0
  5  6  1  0
  6  7  2  0
  7  8  1  0
  8  9  2  0
  9 10  1  0
 10 11  1  0
 11 12  1  0
 12 13  1  0
 13 14  1  0
 14 15  1  0
 15 16  1  0
 16 17  2  0
 16 18  1  6
 16 19  1  0
 19 20  1  0
 20 21  2  0
 20 22  1  0
 20 23  1  0
 13 24  1  0
 24 25  1  0
 24 26  1  0
 26 27  1  0
  7  2  1  0
 26 11  1  0
 10  6  1  0
  1 28  1  0
  1 29  1  0
  4 30  1  0
  9 31  1  0
 11 32  1  1
 13 33  1  6
 14 34  1  0
 14 35  1  0
 24 36  1  6
 25 37  1  0
 26 38  1  6
 27 39  1  0
M  CHG  3  18  -1  22  -1  23  -1
M  END
>  <meeko>  (4) 
{"is_sidechain": [false], "free_energy": -6.229, "intermolecular_energy": -9.257, "internal_energy": -0.625}

$$$$
1o0h_ligand
     RDKit          3D

 39 41  0  0  0  0  0  0  0  0999 V2000
   38.3100   -0.3020   20.0940 N   0  0  0  0  0  0  0  0  0  0  0  0
   38.5450    1.0630   19.8730 C   0  0  0  0  0  0  0  0  0  0  0  0
   39.5300    1.3960   19.0070 N   0  0  0  0  0  0  0  0  0  0  0  0
   39.7370    2.7160   18.7390 C   0  0  0  0  0  0  0  0  0  0  0  0
   39.0610    3.7500   19.2590 N   0  0  0  0  0  0  0  0  0  0  0  0
   38.0910    3.3720   20.0830 C   0  0  0  0  0  0  0  0  0  0  0  0
   37.7660    2.0810   20.4480 C   0  0  0  0  0  0  0  0  0  0  0  0
   36.6820    2.0750   21.3150 N   0  0  0  0  0  0  0  0  0  0  0  0
   36.3770    3.3520   21.4570 C   0  0  0  0  0  0  0  0  0  0  0  0
   37.2000    4.1740   20.7250 N   0  0  0  0  0  0  0  0  0  0  0  0
   37.0850    5.6120   20.6150 C   0  0  2  0  0  0  0  0  0  0  0  0
   36.5250    5.9480   19.3210 O   0  0  0  0  0  0  0  0  0  0  0  0
   37.2410    7.1260   18.8440 C   0  0  2  0  0  0  0  0  0  0  0  0
   38.1770    6.8100   17.6720 C   0  0  0  0  0  0  0  0  0  0  0  0
   37.5310    5.8430   16.8590 O   0  0  0  0  0  0  0  0  0  0  0  0
   37.6850    5.9980   15.2440 P   0  0  1  0  0  5  0  0  0  0  0  0
   37.5930    7.5020   14.9920 O   0  0  0  0  0  0  0  0  0  0  0  0
   39.0130    5.3660   14.8480 O   0  0  0  0  0  0  0  0  0  0  0  0
   36.3950    5.2690   14.6560 O   0  0  0  0  0  0  0  0  0  0  0  0
   35.9260    4.5860   13.2720 P   0  0  0  0  0  0  0  0  0  0  0  0
   34.7270    5.4250   12.8240 O   0  0  0  0  0  0  0  0  0  0  0  0
   35.5330    3.1500   13.6040 O   0  0  0  0  0  0  0  0  0  0  0  0
   37.0940    4.6850   12.2970 O   0  0  0  0  0  0  0  0  0  0  0  0
   37.9670    7.6930   20.0670 C   0  0  1  0  0  0  0  0  0  0  0  0
   37.0220    8.4530   20.8690 O   0  0  0  0  0  0  0  0  0  0  0  0
   38.3690    6.4190   20.7950 C   0  0  1  0  0  0  0  0  0  0  0  0
   38.7200    6.6490   22.1660 O   0  0  0  0  0  0  0  0  0  0  0  0
   39.1880   -0.8050   20.0690 H   0  0  0  0  0  0  0  0  0  0  0  0
   37.7640   -0.3690   20.9460 H   0  0  0  0  0  0  0  0  0  0  0  0
   40.5384    2.9568   18.0250 H   0  0  0  0  0  0  0  0  0  0  0  0
   35.5555    3.7172   22.0908 H   0  0  0  0  0  0  0  0  0  0  0  0
   36.4396    5.8945   21.4598 H   0  0  0  0  0  0  0  0  0  0  0  0
   36.5512    7.8732   18.4246 H   0  0  0  0  0  0  0  0  0  0  0  0
   38.3699    7.7225   17.0888 H   0  0  0  0  0  0  0  0  0  0  0  0
   39.1408    6.4267   18.0383 H   0  0  0  0  0  0  0  0  0  0  0  0
   38.8090    8.3637   19.8405 H   0  0  0  0  0  0  0  0  0  0  0  0
   37.3820    9.3590   20.8390 H   0  0  0  0  0  0  0  0  0  0  0  0
   39.2754    5.9244   20.4158 H   0  0  0  0  0  0  0  0  0  0  0  0
   37.9610    6.2630   22.6460 H   0  0  0  0  0  0  0  0  0  0  0  0
  1  2  1  0
  2  3  2  0
  3  4  1  0
  4  5  2  0
  5  6  1  0
  6  7  2  0
  7  8  1  0
  8  9  2  0
  9 10  1  0
 10 11  1  0
 11 12  1  0
 12 13  1  0
 13 14  1  0
 14 15  1  0
 15 16  1  0
 16 17  2  0
 16 18  1  6
 16 19  1  0
 19 20  1  0
 20 21  2  0
 20 22  1  0
 20 23  1  0
 13 24  1  0
 24 25  1  0
 24 26  1  0
 26 27  1  0
  7  2  1  0
 26 11  1  0
 10  6  1  0
  1 28  1  0
  1 29  1  0
  4 30  1  0
  9 31  1  0
 11 32  1  1
 13 33  1  6
 14 34  1  0
 14 35  1  0
 24 36  1  6
 25 37  1  0
 26 38  1  6
 27 39  1  0
M  CHG  3  18  -1  22  -1  23  -1
M  END
>  <meeko>  (5) 
{"is_sidechain": [false], "free_energy": -6.179, "intermolecular_energy": -9.006, "internal_energy": -0.804}

$$$$
1o0h_ligand
     RDKit          3D

 39 41  0  0  0  0  0  0  0  0999 V2000
   35.9250    2.7660   22.5990 N   0  0  0  0  0  0  0  0  0  0  0  0
   36.4770    3.4860   21.5300 C   0  0  0  0  0  0  0  0  0  0  0  0
   37.3990    2.8600   20.7630 N   0  0  0  0  0  0  0  0  0  0  0  0
   37.9060    3.5250   19.6880 C   0  0  0  0  0  0  0  0  0  0  0  0
   37.5930    4.7690   19.3000 N   0  0  0  0  0  0  0  0  0  0  0  0
   36.6680    5.3330   20.0690 C   0  0  0  0  0  0  0  0  0  0  0  0
   36.0670    4.7850   21.1840 C   0  0  0  0  0  0  0  0  0  0  0  0
   35.1360    5.6630   21.7200 N   0  0  0  0  0  0  0  0  0  0  0  0
   35.1930    6.7180   20.9260 C   0  0  0  0  0  0  0  0  0  0  0  0
   36.1030    6.5600   19.9080 N   0  0  0  0  0  0  0  0  0  0  0  0
   36.3530    7.5010   18.8380 C   0  0  2  0  0  0  0  0  0  0  0  0
   36.0870    6.8580   17.5670 O   0  0  0  0  0  0  0  0  0  0  0  0
   37.1270    7.3020   16.6440 C   0  0  2  0  0  0  0  0  0  0  0  0
   38.1230    6.1880   16.3020 C   0  0  0  0  0  0  0  0  0  0  0  0
   38.8870    6.6250   15.1890 O   0  0  0  0  0  0  0  0  0  0  0  0
   38.6460    5.8640   13.7680 P   0  0  1  0  0  5  0  0  0  0  0  0
   38.4440    6.9920   12.7580 O   0  0  0  0  0  0  0  0  0  0  0  0
   39.8620    4.9850   13.5080 O   0  0  0  0  0  0  0  0  0  0  0  0
   37.2780    5.0700   13.9770 O   0  0  0  0  0  0  0  0  0  0  0  0
   36.0720    4.4970   13.0740 P   0  0  0  0  0  0  0  0  0  0  0  0
   35.0170    5.6060   13.1040 O   0  0  0  0  0  0  0  0  0  0  0  0
   35.5850    3.2200   13.7520 O   0  0  0  0  0  0  0  0  0  0  0  0
   36.6230    4.2660   11.6710 O   0  0  0  0  0  0  0  0  0  0  0  0
   37.7780    8.5180   17.3070 C   0  0  1  0  0  0  0  0  0  0  0  0
   36.9350    9.6830   17.0940 O   0  0  0  0  0  0  0  0  0  0  0  0
   37.7520    8.1110   18.7730 C   0  0  1  0  0  0  0  0  0  0  0  0
   37.9410    9.2200   19.6620 O   0  0  0  0  0  0  0  0  0  0  0  0
   36.0300    1.7740   22.4290 H   0  0  0  0  0  0  0  0  0  0  0  0
   36.3450    3.1350   23.4460 H   0  0  0  0  0  0  0  0  0  0  0  0
   38.6463    2.9874   19.0773 H   0  0  0  0  0  0  0  0  0  0  0  0
   34.5808    7.6214   21.0643 H   0  0  0  0  0  0  0  0  0  0  0  0
   35.6768    8.3409   19.0556 H   0  0  0  0  0  0  0  0  0  0  0  0
   36.7058    7.5764   15.6656 H   0  0  0  0  0  0  0  0  0  0  0  0
   38.7843    5.9991   17.1605 H   0  0  0  0  0  0  0  0  0  0  0  0
   37.5927    5.2539   16.0648 H   0  0  0  0  0  0  0  0  0  0  0  0
   38.7797    8.7734   16.9311 H   0  0  0  0  0  0  0  0  0  0  0  0
   36.0700    9.3990   17.4460 H   0  0  0  0  0  0  0  0  0  0  0  0
   38.5599    7.4351   19.0899 H   0  0  0  0  0  0  0  0  0  0  0  0
   37.7630    8.8220   20.5370 H   0  0  0  0  0  0  0  0  0  0  0  0
  1  2  1  0
  2  3  2  0
  3  4  1  0
  4  5  2  0
  5  6  1  0
  6  7  2  0
  7  8  1  0
  8  9  2  0
  9 10  1  0
 10 11  1  0
 11 12  1  0
 12 13  1  0
 13 14  1  0
 14 15  1  0
 15 16  1  0
 16 17  2  0
 16 18  1  6
 16 19  1  0
 19 20  1  0
 20 21  2  0
 20 22  1  0
 20 23  1  0
 13 24  1  0
 24 25  1  0
 24 26  1  0
 26 27  1  0
  7  2  1  0
 26 11  1  0
 10  6  1  0
  1 28  1  0
  1 29  1  0
  4 30  1  0
  9 31  1  0
 11 32  1  1
 13 33  1  6
 14 34  1  0
 14 35  1  0
 24 36  1  6
 25 37  1  0
 26 38  1  6
 27 39  1  0
M  CHG  3  18  -1  22  -1  23  -1
M  END
>  <meeko>  (6) 
{"is_sidechain": [false], "free_energy": -6.075, "intermolecular_energy": -8.901, "internal_energy": -0.759}

$$$$
1o0h_ligand
     RDKit          3D

 39 41  0  0  0  0  0  0  0  0999 V2000
   35.8960    3.0500   22.6170 N   0  0  0  0  0  0  0  0  0  0  0  0
   36.0340    4.0840   21.6800 C   0  0  0  0  0  0  0  0  0  0  0  0
   35.3230    5.2160   21.8870 N   0  0  0  0  0  0  0  0  0  0  0  0
   35.4860    6.2520   21.0170 C   0  0  0  0  0  0  0  0  0  0  0  0
   36.2860    6.2710   19.9430 N   0  0  0  0  0  0  0  0  0  0  0  0
   36.9800    5.1480   19.7940 C   0  0  0  0  0  0  0  0  0  0  0  0
   36.9210    4.0230   20.5910 C   0  0  0  0  0  0  0  0  0  0  0  0
   37.8040    3.0530   20.1370 N   0  0  0  0  0  0  0  0  0  0  0  0
   38.3750    3.6070   19.0820 C   0  0  0  0  0  0  0  0  0  0  0  0
   37.9110    4.8770   18.8400 N   0  0  0  0  0  0  0  0  0  0  0  0
   38.3810    5.7710   17.8040 C   0  0  2  0  0  0  0  0  0  0  0  0
   37.4580    5.7340   16.6870 O   0  0  0  0  0  0  0  0  0  0  0  0
   38.2660    5.7640   15.4710 C   0  0  2  0  0  0  0  0  0  0  0  0
   38.2590    4.4230   14.7290 C   0  0  0  0  0  0  0  0  0  0  0  0
   36.9400    4.2030   14.2550 O   0  0  0  0  0  0  0  0  0  0  0  0
   36.7690    3.3180   12.8970 P   0  0  1  0  0  5  0  0  0  0  0  0
   35.7150    2.2710   13.2520 O   0  0  0  0  0  0  0  0  0  0  0  0
   36.3700    4.2700   11.7770 O   0  0  0  0  0  0  0  0  0  0  0  0
   38.1890    2.6170   12.7060 O   0  0  0  0  0  0  0  0  0  0  0  0
   38.8050    1.1270   12.7250 P   0  0  0  0  0  0  0  0  0  0  0  0
   38.7760    0.7250   14.2010 O   0  0  0  0  0  0  0  0  0  0  0  0
   40.2280    1.2350   12.1840 O   0  0  0  0  0  0  0  0  0  0  0  0
   37.8980    0.2480   11.8710 O   0  0  0  0  0  0  0  0  0  0  0  0
   39.6630    6.2090   15.9130 C   0  0  1  0  0  0  0  0  0  0  0  0
   39.6670    7.6520   16.0860 O   0  0  0  0  0  0  0  0  0  0  0  0
   39.7860    5.5160   17.2620 C   0  0  1  0  0  0  0  0  0  0  0  0
   40.8290    6.0680   18.0770 O   0  0  0  0  0  0  0  0  0  0  0  0
   36.7970    2.6180   22.7800 H   0  0  0  0  0  0  0  0  0  0  0  0
   35.4230    3.4480   23.4210 H   0  0  0  0  0  0  0  0  0  0  0  0
   34.9027    7.1630   21.2165 H   0  0  0  0  0  0  0  0  0  0  0  0
   39.1370    3.1069   18.4662 H   0  0  0  0  0  0  0  0  0  0  0  0
   38.4315    6.7518   18.2996 H   0  0  0  0  0  0  0  0  0  0  0  0
   37.8545    6.4664   14.7311 H   0  0  0  0  0  0  0  0  0  0  0  0
   38.9608    4.4587   13.8827 H   0  0  0  0  0  0  0  0  0  0  0  0
   38.5699    3.6083   15.3996 H   0  0  0  0  0  0  0  0  0  0  0  0
   40.4745    5.9673   15.2109 H   0  0  0  0  0  0  0  0  0  0  0  0
   40.5900    7.8440   16.3370 H   0  0  0  0  0  0  0  0  0  0  0  0
   40.0740    4.4551   17.2235 H   0  0  0  0  0  0  0  0  0  0  0  0
   40.4980    5.9060   18.9830 H   0  0  0  0  0  0  0  0  0  0  0  0
  1  2  1  0
  2  3  2  0
  3  4  1  0
  4  5  2  0
  5  6  1  0
  6  7  2  0
  7  8  1  0
  8  9  2  0
  9 10  1  0
 10 11  1  0
 11 12  1  0
 12 13  1  0
 13 14  1  0
 14 15  1  0
 15 16  1  0
 16 17  2  0
 16 18  1  6
 16 19  1  0
 19 20  1  0
 20 21  2  0
 20 22  1  0
 20 23  1  0
 13 24  1  0
 24 25  1  0
 24 26  1  0
 26 27  1  0
  7  2  1  0
 26 11  1  0
 10  6  1  0
  1 28  1  0
  1 29  1  0
  4 30  1  0
  9 31  1  0
 11 32  1  1
 13 33  1  6
 14 34  1  0
 14 35  1  0
 24 36  1  6
 25 37  1  0
 26 38  1  6
 27 39  1  0
M  CHG  3  18  -1  22  -1  23  -1
M  END
>  <meeko>  (7) 
{"is_sidechain": [false], "free_energy": -5.969, "intermolecular_energy": -8.61, "internal_energy": -0.897}

$$$$
1o0h_ligand
     RDKit          3D

 39 41  0  0  0  0  0  0  0  0999 V2000
   35.9700    3.1000   22.6220 N   0  0  0  0  0  0  0  0  0  0  0  0
   35.9990    4.1530   21.6970 C   0  0  0  0  0  0  0  0  0  0  0  0
   35.2320    5.2380   21.9580 N   0  0  0  0  0  0  0  0  0  0  0  0
   35.2890    6.2930   21.0990 C   0  0  0  0  0  0  0  0  0  0  0  0
   36.0320    6.3760   19.9870 N   0  0  0  0  0  0  0  0  0  0  0  0
   36.7830    5.3000   19.7860 C   0  0  0  0  0  0  0  0  0  0  0  0
   36.8310    4.1620   20.5650 C   0  0  0  0  0  0  0  0  0  0  0  0
   37.7470    3.2540   20.0510 N   0  0  0  0  0  0  0  0  0  0  0  0
   38.2290    3.8560   18.9780 C   0  0  0  0  0  0  0  0  0  0  0  0
   37.6790    5.0990   18.7820 N   0  0  0  0  0  0  0  0  0  0  0  0
   38.0430    6.0350   17.7390 C   0  0  2  0  0  0  0  0  0  0  0  0
   37.9990    5.3600   16.4570 O   0  0  0  0  0  0  0  0  0  0  0  0
   39.1430    5.8400   15.6890 C   0  0  2  0  0  0  0  0  0  0  0  0
   40.2300    4.7720   15.5240 C   0  0  0  0  0  0  0  0  0  0  0  0
   40.1370    4.2690   14.2000 O   0  0  0  0  0  0  0  0  0  0  0  0
   39.4530    2.8030   14.0020 P   0  0  1  0  0  5  0  0  0  0  0  0
   39.9230    2.3440   12.6230 O   0  0  0  0  0  0  0  0  0  0  0  0
   39.9100    1.9230   15.1570 O   0  0  0  0  0  0  0  0  0  0  0  0
   37.8870    3.1040   13.9680 O   0  0  0  0  0  0  0  0  0  0  0  0
   36.7470    3.4240   12.8730 P   0  0  0  0  0  0  0  0  0  0  0  0
   36.5610    2.1020   12.1240 O   0  0  0  0  0  0  0  0  0  0  0  0
   37.3010    4.5230   11.9730 O   0  0  0  0  0  0  0  0  0  0  0  0
   35.4900    3.8370   13.6310 O   0  0  0  0  0  0  0  0  0  0  0  0
   39.6310    7.0970   16.4140 C   0  0  1  0  0  0  0  0  0  0  0  0
   38.7750    8.2150   16.0520 O   0  0  0  0  0  0  0  0  0  0  0  0
   39.4050    6.7120   17.8680 C   0  0  1  0  0  0  0  0  0  0  0  0
   39.4070    7.8430   18.7500 O   0  0  0  0  0  0  0  0  0  0  0  0
   35.9180    3.4750   23.5600 H   0  0  0  0  0  0  0  0  0  0  0  0
   35.2220    2.4790   22.3310 H   0  0  0  0  0  0  0  0  0  0  0  0
   34.6627    7.1640   21.3422 H   0  0  0  0  0  0  0  0  0  0  0  0
   38.9863    3.4112   18.3157 H   0  0  0  0  0  0  0  0  0  0  0  0
   37.3041    6.8442   17.8353 H   0  0  0  0  0  0  0  0  0  0  0  0
   38.8598    6.0777   14.6530 H   0  0  0  0  0  0  0  0  0  0  0  0
   41.2223    5.2178   15.6875 H   0  0  0  0  0  0  0  0  0  0  0  0
   40.0921    3.9628   16.2562 H   0  0  0  0  0  0  0  0  0  0  0  0
   40.6647    7.3957   16.1855 H   0  0  0  0  0  0  0  0  0  0  0  0
   37.9230    7.7870   15.8480 H   0  0  0  0  0  0  0  0  0  0  0  0
   40.1871    6.0817   18.3164 H   0  0  0  0  0  0  0  0  0  0  0  0
   39.0820    8.5620   18.1730 H   0  0  0  0  0  0  0  0  0  0  0  0
  1  2  1  0
  2  3  2  0
  3  4  1  0
  4  5  2  0
  5  6  1  0
  6  7  2  0
  7  8  1  0
  8  9  2  0
  9 10  1  0
 10 11  1  0
 11 12  1  0
 12 13  1  0
 13 14  1  0
 14 15  1  0
 15 16  1  0
 16 17  2  0
 16 18  1  1
 16 19  1  0
 19 20  1  0
 20 21  2  0
 20 22  1  0
 20 23  1  0
 13 24  1  0
 24 25  1  0
 24 26  1  0
 26 27  1  0
  7  2  1  0
 26 11  1  0
 10  6  1  0
  1 28  1  0
  1 29  1  0
  4 30  1  0
  9 31  1  0
 11 32  1  6
 13 33  1  6
 14 34  1  0
 14 35  1  0
 24 36  1  1
 25 37  1  0
 26 38  1  1
 27 39  1  0
M  CHG  3  18  -1  22  -1  23  -1
M  END
>  <meeko>  (8) 
{"is_sidechain": [false], "free_energy": -5.953, "intermolecular_energy": -8.436, "internal_energy": -1.049}

$$$$
1o0h_ligand
     RDKit          3D

 39 41  0  0  0  0  0  0  0  0999 V2000
   35.6290   -0.1350   12.2790 N   0  0  0  0  0  0  0  0  0  0  0  0
   36.7600    0.6590   12.5180 C   0  0  0  0  0  0  0  0  0  0  0  0
   37.9720    0.1120   12.2690 N   0  0  0  0  0  0  0  0  0  0  0  0
   39.0800    0.8860   12.4440 C   0  0  0  0  0  0  0  0  0  0  0  0
   39.1040    2.1600   12.8570 N   0  0  0  0  0  0  0  0  0  0  0  0
   37.8910    2.6590   13.0670 C   0  0  0  0  0  0  0  0  0  0  0  0
   36.6860    2.0000   12.9320 C   0  0  0  0  0  0  0  0  0  0  0  0
   35.6280    2.8500   13.2200 N   0  0  0  0  0  0  0  0  0  0  0  0
   36.2090    3.9970   13.5230 C   0  0  0  0  0  0  0  0  0  0  0  0
   37.5790    3.9300   13.4380 N   0  0  0  0  0  0  0  0  0  0  0  0
   38.4980    5.0290   13.6420 C   0  0  2  0  0  0  0  0  0  0  0  0
   39.0740    4.9280   14.9680 O   0  0  0  0  0  0  0  0  0  0  0  0
   39.1460    6.2850   15.5000 C   0  0  2  0  0  0  0  0  0  0  0  0
   38.1350    6.5290   16.6260 C   0  0  0  0  0  0  0  0  0  0  0  0
   37.7560    5.2620   17.1410 O   0  0  0  0  0  0  0  0  0  0  0  0
   38.0850    4.9610   18.7090 P   0  0  1  0  0  5  0  0  0  0  0  0
   39.2930    5.8420   19.0230 O   0  0  0  0  0  0  0  0  0  0  0  0
   36.8330    5.2880   19.5110 O   0  0  0  0  0  0  0  0  0  0  0  0
   38.5130    3.4250   18.7310 O   0  0  0  0  0  0  0  0  0  0  0  0
   38.9590    2.3170   19.8140 P   0  0  0  0  0  0  0  0  0  0  0  0
   37.7160    2.1180   20.6850 O   0  0  0  0  0  0  0  0  0  0  0  0
   40.1230    2.9140   20.5980 O   0  0  0  0  0  0  0  0  0  0  0  0
   39.3310    1.0530   19.0460 O   0  0  0  0  0  0  0  0  0  0  0  0
   38.9540    7.2130   14.2980 C   0  0  1  0  0  0  0  0  0  0  0  0
   40.2080    7.3110   13.5700 O   0  0  0  0  0  0  0  0  0  0  0  0
   37.9300    6.4380   13.4810 C   0  0  1  0  0  0  0  0  0  0  0  0
   37.8560    6.8790   12.1190 O   0  0  0  0  0  0  0  0  0  0  0  0
   34.8150    0.3030   12.6920 H   0  0  0  0  0  0  0  0  0  0  0  0
   35.6020   -0.3080   11.2800 H   0  0  0  0  0  0  0  0  0  0  0  0
   40.0510    0.4181   12.2243 H   0  0  0  0  0  0  0  0  0  0  0  0
   35.6578    4.9043   13.8111 H   0  0  0  0  0  0  0  0  0  0  0  0
   39.2351    4.9163   12.8333 H   0  0  0  0  0  0  0  0  0  0  0  0
   40.1158    6.4761   15.9827 H   0  0  0  0  0  0  0  0  0  0  0  0
   38.5962    7.1345   17.4201 H   0  0  0  0  0  0  0  0  0  0  0  0
   37.2565    7.0717   16.2470 H   0  0  0  0  0  0  0  0  0  0  0  0
   38.6450    8.2394   14.5452 H   0  0  0  0  0  0  0  0  0  0  0  0
   40.8690    7.4230   14.2770 H   0  0  0  0  0  0  0  0  0  0  0  0
   36.8847    6.5491   13.8052 H   0  0  0  0  0  0  0  0  0  0  0  0
   38.7680    7.1870   11.9460 H   0  0  0  0  0  0  0  0  0  0  0  0
  1  2  1  0
  2  3  2  0
  3  4  1  0
  4  5  2  0
  5  6  1  0
  6  7  2  0
  7  8  1  0
  8  9  2  0
  9 10  1  0
 10 11  1  0
 11 12  1  0
 12 13  1  0
 13 14  1  0
 14 15  1  0
 15 16  1  0
 16 17  2  0
 16 18  1  1
 16 19  1  0
 19 20  1  0
 20 21  2  0
 20 22  1  0
 20 23  1  0
 13 24  1  0
 24 25  1  0
 24 26  1  0
 26 27  1  0
  7  2  1  0
 26 11  1  0
 10  6  1  0
  1 28  1  0
  1 29  1  0
  4 30  1  0
  9 31  1  0
 11 32  1  6
 13 33  1  1
 14 34  1  0
 14 35  1  0
 24 36  1  1
 25 37  1  0
 26 38  1  1
 27 39  1  0
M  CHG  3  18  -1  22  -1  23  -1
M  END
>  <meeko>  (9) 
{"is_sidechain": [false], "free_energy": -5.642, "intermolecular_energy": -7.956, "internal_energy": -1.082}

$$$$
