3zt2_ligand
     RDKit          3D

 34 37  0  0  0  0  0  0  0  0999 V2000
  -20.2800   35.0530    6.1310 O   0  0  0  0  0  0  0  0  0  0  0  0
  -20.9370   35.8180    5.4400 C   0  0  0  0  0  0  0  0  0  0  0  0
  -20.8150   35.9470    3.9340 C   0  0  0  0  0  0  0  0  0  0  0  0
  -21.7340   37.0970    3.6180 C   0  0  0  0  0  0  0  0  0  0  0  0
  -21.9650   37.6350    2.3580 C   0  0  0  0  0  0  0  0  0  0  0  0
  -22.8810   38.6800    2.2400 C   0  0  0  0  0  0  0  0  0  0  0  0
  -23.5550   39.1640    3.3690 C   0  0  0  0  0  0  0  0  0  0  0  0
  -23.3150   38.6190    4.6350 C   0  0  0  0  0  0  0  0  0  0  0  0
  -22.3940   37.5920    4.7610 C   0  0  0  0  0  0  0  0  0  0  0  0
  -21.9380   36.8280    5.9300 C   0  0  0  0  0  0  0  0  0  0  0  0
  -22.2270   36.8990    7.2370 C   0  0  0  0  0  0  0  0  0  0  0  0
  -23.1270   37.8660    7.8740 C   0  0  0  0  0  0  0  0  0  0  0  0
  -24.5120   37.5790    7.8490 C   0  0  0  0  0  0  0  0  0  0  0  0
  -25.4360   38.4410    8.4440 C   0  0  0  0  0  0  0  0  0  0  0  0
  -24.9470   39.5760    9.0500 C   0  0  0  0  0  0  0  0  0  0  0  0
  -23.6000   39.8710    9.0810 C   0  0  0  0  0  0  0  0  0  0  0  0
  -22.6560   39.0370    8.5040 C   0  0  0  0  0  0  0  0  0  0  0  0
  -21.2050   39.3720    8.5690 C   0  0  0  0  0  0  0  0  0  0  0  0
  -20.5460   38.8650    9.5290 O   0  0  0  0  0  0  0  0  0  0  0  0
  -20.7600   40.1510    7.6680 O   0  0  0  0  0  0  0  0  0  0  0  0
  -23.3640   41.0520    9.7200 O   0  0  0  0  0  0  0  0  0  0  0  0
  -24.6890   41.4410   10.1020 C   0  0  0  0  0  0  0  0  0  0  0  0
  -25.7100   40.5190    9.6710 O   0  0  0  0  0  0  0  0  0  0  0  0
  -19.7801   36.1752    3.6391 H   0  0  0  0  0  0  0  0  0  0  0  0
  -21.0756   35.0231    3.3969 H   0  0  0  0  0  0  0  0  0  0  0  0
  -21.4379   37.2459    1.4744 H   0  0  0  0  0  0  0  0  0  0  0  0
  -23.0756   39.1272    1.2540 H   0  0  0  0  0  0  0  0  0  0  0  0
  -24.2817   39.9824    3.2586 H   0  0  0  0  0  0  0  0  0  0  0  0
  -23.8498   39.0004    5.5173 H   0  0  0  0  0  0  0  0  0  0  0  0
  -21.7430   36.1617    7.8944 H   0  0  0  0  0  0  0  0  0  0  0  0
  -24.8666   36.6632    7.3535 H   0  0  0  0  0  0  0  0  0  0  0  0
  -26.5137   38.2211    8.4289 H   0  0  0  0  0  0  0  0  0  0  0  0
  -24.7271   41.5136   11.1989 H   0  0  0  0  0  0  0  0  0  0  0  0
  -24.8961   42.4031    9.6106 H   0  0  0  0  0  0  0  0  0  0  0  0
  1  2  2  0
  2  3  1  0
  3  4  1  0
  4  5  2  0
  5  6  1  0
  6  7  2  0
  7  8  1  0
  8  9  2  0
  9 10  1  0
 10 11  2  0
 11 12  1  0
 12 13  2  0
 13 14  1  0
 14 15  2  0
 15 16  1  0
 16 17  2  0
 17 18  1  0
 18 19  2  0
 18 20  1  0
 16 21  1  0
 21 22  1  0
 22 23  1  0
 10  2  1  0
 17 12  1  0
  9  4  1  0
 23 15  1  0
  3 24  1  0
  3 25  1  0
  5 26  1  0
  6 27  1  0
  7 28  1  0
  8 29  1  0
 11 30  1  0
 13 31  1  0
 14 32  1  0
 22 33  1  0
 22 34  1  0
M  CHG  1  20  -1
M  END
>  <meeko>  (1) 
{"is_sidechain": [false], "free_energy": -6.721, "intermolecular_energy": -7.507, "internal_energy": -0.926}

$$$$
3zt2_ligand
     RDKit          3D

 34 37  0  0  0  0  0  0  0  0999 V2000
  -20.1270   35.1680    6.9750 O   0  0  0  0  0  0  0  0  0  0  0  0
  -20.4970   36.1200    7.6470 C   0  0  0  0  0  0  0  0  0  0  0  0
  -20.7010   36.0920    9.1490 C   0  0  0  0  0  0  0  0  0  0  0  0
  -21.2760   37.4540    9.4370 C   0  0  0  0  0  0  0  0  0  0  0  0
  -21.6620   37.9310   10.6830 C   0  0  0  0  0  0  0  0  0  0  0  0
  -22.1420   39.2370   10.7750 C   0  0  0  0  0  0  0  0  0  0  0  0
  -22.2190   40.0470    9.6340 C   0  0  0  0  0  0  0  0  0  0  0  0
  -21.8300   39.5600    8.3820 C   0  0  0  0  0  0  0  0  0  0  0  0
  -21.3680   38.2570    8.2820 C   0  0  0  0  0  0  0  0  0  0  0  0
  -20.8920   37.4770    7.1320 C   0  0  0  0  0  0  0  0  0  0  0  0
  -20.7870   37.7480    5.8230 C   0  0  0  0  0  0  0  0  0  0  0  0
  -21.1900   38.9940    5.1620 C   0  0  0  0  0  0  0  0  0  0  0  0
  -20.2970   40.0880    5.2390 C   0  0  0  0  0  0  0  0  0  0  0  0
  -20.5970   41.3070    4.6260 C   0  0  0  0  0  0  0  0  0  0  0  0
  -21.7930   41.4000    3.9500 C   0  0  0  0  0  0  0  0  0  0  0  0
  -22.6760   40.3430    3.8690 C   0  0  0  0  0  0  0  0  0  0  0  0
  -22.4090   39.1200    4.4620 C   0  0  0  0  0  0  0  0  0  0  0  0
  -23.3720   37.9890    4.3420 C   0  0  0  0  0  0  0  0  0  0  0  0
  -24.2770   37.9150    5.2300 O   0  0  0  0  0  0  0  0  0  0  0  0
  -23.1910   37.1880    3.3730 O   0  0  0  0  0  0  0  0  0  0  0  0
  -23.7940   40.6810    3.1650 O   0  0  0  0  0  0  0  0  0  0  0  0
  -23.5030   42.0360    2.7990 C   0  0  0  0  0  0  0  0  0  0  0  0
  -22.2380   42.5130    3.3030 O   0  0  0  0  0  0  0  0  0  0  0  0
  -21.4039   35.2967    9.4380 H   0  0  0  0  0  0  0  0  0  0  0  0
  -19.7772   35.8838    9.7086 H   0  0  0  0  0  0  0  0  0  0  0  0
  -21.5907   37.2934   11.5765 H   0  0  0  0  0  0  0  0  0  0  0  0
  -22.4623   39.6340   11.7496 H   0  0  0  0  0  0  0  0  0  0  0  0
  -22.5900   41.0786    9.7242 H   0  0  0  0  0  0  0  0  0  0  0  0
  -21.8898   40.2012    7.4902 H   0  0  0  0  0  0  0  0  0  0  0  0
  -20.3581   36.9617    5.1845 H   0  0  0  0  0  0  0  0  0  0  0  0
  -19.3515   39.9774    5.7901 H   0  0  0  0  0  0  0  0  0  0  0  0
  -19.9044   42.1598    4.6812 H   0  0  0  0  0  0  0  0  0  0  0  0
  -23.4875   42.1037    1.7012 H   0  0  0  0  0  0  0  0  0  0  0  0
  -24.2860   42.6656    3.2468 H   0  0  0  0  0  0  0  0  0  0  0  0
  1  2  2  0
  2  3  1  0
  3  4  1  0
  4  5  2  0
  5  6  1  0
  6  7  2  0
  7  8  1  0
  8  9  2  0
  9 10  1  0
 10 11  2  0
 11 12  1  0
 12 13  2  0
 13 14  1  0
 14 15  2  0
 15 16  1  0
 16 17  2  0
 17 18  1  0
 18 19  2  0
 18 20  1  0
 16 21  1  0
 21 22  1  0
 22 23  1  0
 10  2  1  0
 17 12  1  0
  9  4  1  0
 23 15  1  0
  3 24  1  0
  3 25  1  0
  5 26  1  0
  6 27  1  0
  7 28  1  0
  8 29  1  0
 11 30  1  0
 13 31  1  0
 14 32  1  0
 22 33  1  0
 22 34  1  0
M  CHG  1  20  -1
M  END
>  <meeko>  (2) 
{"is_sidechain": [false], "free_energy": -6.646, "intermolecular_energy": -7.446, "internal_energy": -0.904}

$$$$
3zt2_ligand
     RDKit          3D

 34 37  0  0  0  0  0  0  0  0999 V2000
  -21.2980   35.5770    2.4520 O   0  0  0  0  0  0  0  0  0  0  0  0
  -20.8530   35.2760    3.5500 C   0  0  0  0  0  0  0  0  0  0  0  0
  -19.9050   34.1220    3.8140 C   0  0  0  0  0  0  0  0  0  0  0  0
  -19.7850   34.1210    5.3150 C   0  0  0  0  0  0  0  0  0  0  0  0
  -19.0360   33.2300    6.0740 C   0  0  0  0  0  0  0  0  0  0  0  0
  -19.0080   33.3970    7.4590 C   0  0  0  0  0  0  0  0  0  0  0  0
  -19.7130   34.4480    8.0620 C   0  0  0  0  0  0  0  0  0  0  0  0
  -20.4670   35.3390    7.2920 C   0  0  0  0  0  0  0  0  0  0  0  0
  -20.5120   35.1680    5.9170 C   0  0  0  0  0  0  0  0  0  0  0  0
  -21.1980   35.9270    4.8620 C   0  0  0  0  0  0  0  0  0  0  0  0
  -22.0190   36.9860    4.8840 C   0  0  0  0  0  0  0  0  0  0  0  0
  -22.4980   37.6850    6.0810 C   0  0  0  0  0  0  0  0  0  0  0  0
  -23.6440   37.1620    6.7240 C   0  0  0  0  0  0  0  0  0  0  0  0
  -24.1580   37.7600    7.8770 C   0  0  0  0  0  0  0  0  0  0  0  0
  -23.5090   38.8750    8.3580 C   0  0  0  0  0  0  0  0  0  0  0  0
  -22.3920   39.3990    7.7400 C   0  0  0  0  0  0  0  0  0  0  0  0
  -21.8530   38.8290    6.5970 C   0  0  0  0  0  0  0  0  0  0  0  0
  -20.6350   39.4050    5.9620 C   0  0  0  0  0  0  0  0  0  0  0  0
  -19.5160   38.9790    6.3860 O   0  0  0  0  0  0  0  0  0  0  0  0
  -20.8230   40.2870    5.0660 O   0  0  0  0  0  0  0  0  0  0  0  0
  -21.9380   40.5090    8.3900 O   0  0  0  0  0  0  0  0  0  0  0  0
  -22.8660   40.6020    9.4780 C   0  0  0  0  0  0  0  0  0  0  0  0
  -23.8800   39.5770    9.4640 O   0  0  0  0  0  0  0  0  0  0  0  0
  -20.3259   33.1731    3.4501 H   0  0  0  0  0  0  0  0  0  0  0  0
  -18.9377   34.2288    3.3012 H   0  0  0  0  0  0  0  0  0  0  0  0
  -18.4783   32.4122    5.5942 H   0  0  0  0  0  0  0  0  0  0  0  0
  -18.4289   32.6993    8.0818 H   0  0  0  0  0  0  0  0  0  0  0  0
  -19.6726   34.5733    9.1541 H   0  0  0  0  0  0  0  0  0  0  0  0
  -21.0163   36.1634    7.7702 H   0  0  0  0  0  0  0  0  0  0  0  0
  -22.3665   37.3670    3.9123 H   0  0  0  0  0  0  0  0  0  0  0  0
  -24.1381   36.2707    6.3098 H   0  0  0  0  0  0  0  0  0  0  0  0
  -25.0477   37.3554    8.3817 H   0  0  0  0  0  0  0  0  0  0  0  0
  -22.3049   40.5226   10.4208 H   0  0  0  0  0  0  0  0  0  0  0  0
  -23.3834   41.5675    9.3776 H   0  0  0  0  0  0  0  0  0  0  0  0
  1  2  2  0
  2  3  1  0
  3  4  1  0
  4  5  2  0
  5  6  1  0
  6  7  2  0
  7  8  1  0
  8  9  2  0
  9 10  1  0
 10 11  2  0
 11 12  1  0
 12 13  2  0
 13 14  1  0
 14 15  2  0
 15 16  1  0
 16 17  2  0
 17 18  1  0
 18 19  2  0
 18 20  1  0
 16 21  1  0
 21 22  1  0
 22 23  1  0
 10  2  1  0
 17 12  1  0
  9  4  1  0
 23 15  1  0
  3 24  1  0
  3 25  1  0
  5 26  1  0
  6 27  1  0
  7 28  1  0
  8 29  1  0
 11 30  1  0
 13 31  1  0
 14 32  1  0
 22 33  1  0
 22 34  1  0
M  CHG  1  20  -1
M  END
>  <meeko>  (3) 
{"is_sidechain": [false], "free_energy": -6.644, "intermolecular_energy": -7.324, "internal_energy": -1.023}

$$$$
3zt2_ligand
     RDKit          3D

 34 37  0  0  0  0  0  0  0  0999 V2000
  -23.1390   41.5790    4.4240 O   0  0  0  0  0  0  0  0  0  0  0  0
  -23.8550   41.0510    5.2620 C   0  0  0  0  0  0  0  0  0  0  0  0
  -25.3170   41.3850    5.4880 C   0  0  0  0  0  0  0  0  0  0  0  0
  -25.6690   40.5590    6.6970 C   0  0  0  0  0  0  0  0  0  0  0  0
  -26.9060   40.5230    7.3280 C   0  0  0  0  0  0  0  0  0  0  0  0
  -27.0700   39.6690    8.4190 C   0  0  0  0  0  0  0  0  0  0  0  0
  -26.0110   38.8620    8.8540 C   0  0  0  0  0  0  0  0  0  0  0  0
  -24.7670   38.9050    8.2150 C   0  0  0  0  0  0  0  0  0  0  0  0
  -24.5930   39.7640    7.1410 C   0  0  0  0  0  0  0  0  0  0  0  0
  -23.4330   40.0270    6.2800 C   0  0  0  0  0  0  0  0  0  0  0  0
  -22.1750   39.5620    6.2740 C   0  0  0  0  0  0  0  0  0  0  0  0
  -21.5970   38.6160    7.2350 C   0  0  0  0  0  0  0  0  0  0  0  0
  -21.4310   39.0630    8.5670 C   0  0  0  0  0  0  0  0  0  0  0  0
  -20.9000   38.2220    9.5470 C   0  0  0  0  0  0  0  0  0  0  0  0
  -20.5440   36.9470    9.1650 C   0  0  0  0  0  0  0  0  0  0  0  0
  -20.6980   36.4980    7.8700 C   0  0  0  0  0  0  0  0  0  0  0  0
  -21.2240   37.3040    6.8740 C   0  0  0  0  0  0  0  0  0  0  0  0
  -21.3960   36.7860    5.4870 C   0  0  0  0  0  0  0  0  0  0  0  0
  -22.4870   36.1870    5.2340 O   0  0  0  0  0  0  0  0  0  0  0  0
  -20.4270   36.9710    4.6870 O   0  0  0  0  0  0  0  0  0  0  0  0
  -20.2620   35.2130    7.7340 O   0  0  0  0  0  0  0  0  0  0  0  0
  -19.8500   34.9080    9.0720 C   0  0  0  0  0  0  0  0  0  0  0  0
  -20.0110   36.0060    9.9930 O   0  0  0  0  0  0  0  0  0  0  0  0
  -25.4510   42.4581    5.6894 H   0  0  0  0  0  0  0  0  0  0  0  0
  -25.9513   41.1694    4.6155 H   0  0  0  0  0  0  0  0  0  0  0  0
  -27.7364   41.1527    6.9759 H   0  0  0  0  0  0  0  0  0  0  0  0
  -28.0374   39.6292    8.9410 H   0  0  0  0  0  0  0  0  0  0  0  0
  -26.1592   38.1858    9.7089 H   0  0  0  0  0  0  0  0  0  0  0  0
  -23.9398   38.2670    8.5596 H   0  0  0  0  0  0  0  0  0  0  0  0
  -21.5141   39.9242    5.4728 H   0  0  0  0  0  0  0  0  0  0  0  0
  -21.7247   40.0887    8.8347 H   0  0  0  0  0  0  0  0  0  0  0  0
  -20.7708   38.5643   10.5844 H   0  0  0  0  0  0  0  0  0  0  0  0
  -20.4490   34.0597    9.4349 H   0  0  0  0  0  0  0  0  0  0  0  0
  -18.7753   34.6767    9.0325 H   0  0  0  0  0  0  0  0  0  0  0  0
  1  2  2  0
  2  3  1  0
  3  4  1  0
  4  5  2  0
  5  6  1  0
  6  7  2  0
  7  8  1  0
  8  9  2  0
  9 10  1  0
 10 11  2  0
 11 12  1  0
 12 13  2  0
 13 14  1  0
 14 15  2  0
 15 16  1  0
 16 17  2  0
 17 18  1  0
 18 19  2  0
 18 20  1  0
 16 21  1  0
 21 22  1  0
 22 23  1  0
 10  2  1  0
 17 12  1  0
  9  4  1  0
 23 15  1  0
  3 24  1  0
  3 25  1  0
  5 26  1  0
  6 27  1  0
  7 28  1  0
  8 29  1  0
 11 30  1  0
 13 31  1  0
 14 32  1  0
 22 33  1  0
 22 34  1  0
M  CHG  1  20  -1
M  END
>  <meeko>  (4) 
{"is_sidechain": [false], "free_energy": -6.424, "intermolecular_energy": -7.367, "internal_energy": -0.734}

$$$$
3zt2_ligand
     RDKit          3D

 34 37  0  0  0  0  0  0  0  0999 V2000
  -24.4730   41.0640    8.4160 O   0  0  0  0  0  0  0  0  0  0  0  0
  -23.6280   41.3990    7.5990 C   0  0  0  0  0  0  0  0  0  0  0  0
  -23.1410   42.8200    7.3880 C   0  0  0  0  0  0  0  0  0  0  0  0
  -22.2240   42.6900    6.2010 C   0  0  0  0  0  0  0  0  0  0  0  0
  -21.5300   43.7250    5.5880 C   0  0  0  0  0  0  0  0  0  0  0  0
  -20.6900   43.4200    4.5170 C   0  0  0  0  0  0  0  0  0  0  0  0
  -20.5470   42.0950    4.0820 C   0  0  0  0  0  0  0  0  0  0  0  0
  -21.2500   41.0580    4.7030 C   0  0  0  0  0  0  0  0  0  0  0  0
  -22.0990   41.3570    5.7570 C   0  0  0  0  0  0  0  0  0  0  0  0
  -22.9520   40.5050    6.5960 C   0  0  0  0  0  0  0  0  0  0  0  0
  -23.2150   39.1900    6.5920 C   0  0  0  0  0  0  0  0  0  0  0  0
  -22.6890   38.2040    5.6430 C   0  0  0  0  0  0  0  0  0  0  0  0
  -23.1250   38.2970    4.3000 C   0  0  0  0  0  0  0  0  0  0  0  0
  -22.6630   37.4060    3.3300 C   0  0  0  0  0  0  0  0  0  0  0  0
  -21.7710   36.4360    3.7310 C   0  0  0  0  0  0  0  0  0  0  0  0
  -21.3380   36.3310    5.0360 C   0  0  0  0  0  0  0  0  0  0  0  0
  -21.7730   37.2000    6.0240 C   0  0  0  0  0  0  0  0  0  0  0  0
  -21.2740   37.0740    7.4220 C   0  0  0  0  0  0  0  0  0  0  0  0
  -20.2000   37.6920    7.7020 O   0  0  0  0  0  0  0  0  0  0  0  0
  -21.9570   36.3420    8.2060 O   0  0  0  0  0  0  0  0  0  0  0  0
  -20.4740   35.2870    5.1910 O   0  0  0  0  0  0  0  0  0  0  0  0
  -20.3980   34.7780    3.8540 C   0  0  0  0  0  0  0  0  0  0  0  0
  -21.2290   35.4910    2.9140 O   0  0  0  0  0  0  0  0  0  0  0  0
  -23.9796   43.4969    7.1677 H   0  0  0  0  0  0  0  0  0  0  0  0
  -22.6464   43.2452    8.2738 H   0  0  0  0  0  0  0  0  0  0  0  0
  -21.6402   44.7616    5.9390 H   0  0  0  0  0  0  0  0  0  0  0  0
  -20.1363   44.2243    4.0105 H   0  0  0  0  0  0  0  0  0  0  0  0
  -19.8737   41.8684    3.2421 H   0  0  0  0  0  0  0  0  0  0  0  0
  -21.1309   40.0197    4.3599 H   0  0  0  0  0  0  0  0  0  0  0  0
  -23.8899   38.8153    7.3757 H   0  0  0  0  0  0  0  0  0  0  0  0
  -23.8393   39.0839    4.0160 H   0  0  0  0  0  0  0  0  0  0  0  0
  -22.9986   37.4758    2.2848 H   0  0  0  0  0  0  0  0  0  0  0  0
  -19.3536   34.8458    3.5154 H   0  0  0  0  0  0  0  0  0  0  0  0
  -20.7630   33.7407    3.8836 H   0  0  0  0  0  0  0  0  0  0  0  0
  1  2  2  0
  2  3  1  0
  3  4  1  0
  4  5  2  0
  5  6  1  0
  6  7  2  0
  7  8  1  0
  8  9  2  0
  9 10  1  0
 10 11  2  0
 11 12  1  0
 12 13  2  0
 13 14  1  0
 14 15  2  0
 15 16  1  0
 16 17  2  0
 17 18  1  0
 18 19  2  0
 18 20  1  0
 16 21  1  0
 21 22  1  0
 22 23  1  0
 10  2  1  0
 17 12  1  0
  9  4  1  0
 23 15  1  0
  3 24  1  0
  3 25  1  0
  5 26  1  0
  6 27  1  0
  7 28  1  0
  8 29  1  0
 11 30  1  0
 13 31  1  0
 14 32  1  0
 22 33  1  0
 22 34  1  0
M  CHG  1  20  -1
M  END
>  <meeko>  (5) 
{"is_sidechain": [false], "free_energy": -6.389, "intermolecular_energy": -7.326, "internal_energy": -0.737}

$$$$
3zt2_ligand
     RDKit          3D

 34 37  0  0  0  0  0  0  0  0999 V2000
  -22.5440   43.0100    7.2220 O   0  0  0  0  0  0  0  0  0  0  0  0
  -23.2900   42.0580    7.3990 C   0  0  0  0  0  0  0  0  0  0  0  0
  -24.3640   41.9860    8.4680 C   0  0  0  0  0  0  0  0  0  0  0  0
  -24.8820   40.5780    8.3310 C   0  0  0  0  0  0  0  0  0  0  0  0
  -25.8760   39.9950    9.1060 C   0  0  0  0  0  0  0  0  0  0  0  0
  -26.2620   38.6860    8.8180 C   0  0  0  0  0  0  0  0  0  0  0  0
  -25.6630   37.9860    7.7620 C   0  0  0  0  0  0  0  0  0  0  0  0
  -24.6610   38.5790    6.9860 C   0  0  0  0  0  0  0  0  0  0  0  0
  -24.2620   39.8730    7.2790 C   0  0  0  0  0  0  0  0  0  0  0  0
  -23.2600   40.7500    6.6570 C   0  0  0  0  0  0  0  0  0  0  0  0
  -22.3920   40.5750    5.6500 C   0  0  0  0  0  0  0  0  0  0  0  0
  -22.1980   39.3440    4.8780 C   0  0  0  0  0  0  0  0  0  0  0  0
  -22.8730   39.2400    3.6390 C   0  0  0  0  0  0  0  0  0  0  0  0
  -22.7310   38.1070    2.8350 C   0  0  0  0  0  0  0  0  0  0  0  0
  -21.9160   37.0980    3.2970 C   0  0  0  0  0  0  0  0  0  0  0  0
  -21.2540   37.1830    4.5040 C   0  0  0  0  0  0  0  0  0  0  0  0
  -21.3680   38.2940    5.3250 C   0  0  0  0  0  0  0  0  0  0  0  0
  -20.6260   38.3660    6.6150 C   0  0  0  0  0  0  0  0  0  0  0  0
  -19.5200   38.9910    6.6020 O   0  0  0  0  0  0  0  0  0  0  0  0
  -21.1560   37.7770    7.6090 O   0  0  0  0  0  0  0  0  0  0  0  0
  -20.5230   36.0590    4.7500 O   0  0  0  0  0  0  0  0  0  0  0  0
  -20.7780   35.2870    3.5700 C   0  0  0  0  0  0  0  0  0  0  0  0
  -21.6740   35.9300    2.6400 O   0  0  0  0  0  0  0  0  0  0  0  0
  -23.9387   42.1556    9.4682 H   0  0  0  0  0  0  0  0  0  0  0  0
  -25.1465   42.7500    8.3495 H   0  0  0  0  0  0  0  0  0  0  0  0
  -26.3481   40.5528    9.9282 H   0  0  0  0  0  0  0  0  0  0  0  0
  -27.0413   38.2001    9.4234 H   0  0  0  0  0  0  0  0  0  0  0  0
  -25.9845   36.9576    7.5404 H   0  0  0  0  0  0  0  0  0  0  0  0
  -24.1971   38.0261    6.1559 H   0  0  0  0  0  0  0  0  0  0  0  0
  -21.7659   41.4373    5.3772 H   0  0  0  0  0  0  0  0  0  0  0  0
  -23.5197   40.0643    3.3038 H   0  0  0  0  0  0  0  0  0  0  0  0
  -23.2507   38.0238    1.8691 H   0  0  0  0  0  0  0  0  0  0  0  0
  -19.8204   35.1047    3.0604 H   0  0  0  0  0  0  0  0  0  0  0  0
  -21.2645   34.3551    3.8938 H   0  0  0  0  0  0  0  0  0  0  0  0
  1  2  2  0
  2  3  1  0
  3  4  1  0
  4  5  2  0
  5  6  1  0
  6  7  2  0
  7  8  1  0
  8  9  2  0
  9 10  1  0
 10 11  2  0
 11 12  1  0
 12 13  2  0
 13 14  1  0
 14 15  2  0
 15 16  1  0
 16 17  2  0
 17 18  1  0
 18 19  2  0
 18 20  1  0
 16 21  1  0
 21 22  1  0
 22 23  1  0
 10  2  1  0
 17 12  1  0
  9  4  1  0
 23 15  1  0
  3 24  1  0
  3 25  1  0
  5 26  1  0
  6 27  1  0
  7 28  1  0
  8 29  1  0
 11 30  1  0
 13 31  1  0
 14 32  1  0
 22 33  1  0
 22 34  1  0
M  CHG  1  20  -1
M  END
>  <meeko>  (6) 
{"is_sidechain": [false], "free_energy": -6.271, "intermolecular_energy": -6.943, "internal_energy": -0.987}

$$$$
3zt2_ligand
     RDKit          3D

 34 37  0  0  0  0  0  0  0  0999 V2000
  -25.7470   41.2570    6.2380 O   0  0  0  0  0  0  0  0  0  0  0  0
  -24.5530   41.3330    5.9830 C   0  0  0  0  0  0  0  0  0  0  0  0
  -23.9540   42.1960    4.8890 C   0  0  0  0  0  0  0  0  0  0  0  0
  -22.4970   41.8190    4.9230 C   0  0  0  0  0  0  0  0  0  0  0  0
  -21.5040   42.3200    4.0900 C   0  0  0  0  0  0  0  0  0  0  0  0
  -20.1930   41.8880    4.2840 C   0  0  0  0  0  0  0  0  0  0  0  0
  -19.8890   40.9770    5.3040 C   0  0  0  0  0  0  0  0  0  0  0  0
  -20.8940   40.4750    6.1380 C   0  0  0  0  0  0  0  0  0  0  0  0
  -22.2010   40.8880    5.9390 C   0  0  0  0  0  0  0  0  0  0  0  0
  -23.4490   40.5500    6.6380 C   0  0  0  0  0  0  0  0  0  0  0  0
  -23.7320   39.7180    7.6500 C   0  0  0  0  0  0  0  0  0  0  0  0
  -22.7820   38.8430    8.3450 C   0  0  0  0  0  0  0  0  0  0  0  0
  -22.2690   39.2940    9.5840 C   0  0  0  0  0  0  0  0  0  0  0  0
  -21.3700   38.5160   10.3160 C   0  0  0  0  0  0  0  0  0  0  0  0
  -21.0010   37.3000    9.7840 C   0  0  0  0  0  0  0  0  0  0  0  0
  -21.4900   36.8480    8.5760 C   0  0  0  0  0  0  0  0  0  0  0  0
  -22.3860   37.5920    7.8250 C   0  0  0  0  0  0  0  0  0  0  0  0
  -22.9120   37.0700    6.5320 C   0  0  0  0  0  0  0  0  0  0  0  0
  -24.0030   36.4220    6.5810 O   0  0  0  0  0  0  0  0  0  0  0  0
  -22.2110   37.3020    5.4980 O   0  0  0  0  0  0  0  0  0  0  0  0
  -20.9690   35.6300    8.2530 O   0  0  0  0  0  0  0  0  0  0  0  0
  -20.1350   35.3660    9.3880 C   0  0  0  0  0  0  0  0  0  0  0  0
  -20.1350   36.4260   10.3660 O   0  0  0  0  0  0  0  0  0  0  0  0
  -24.4006   41.9621    3.9113 H   0  0  0  0  0  0  0  0  0  0  0  0
  -24.1280   43.2716    5.0400 H   0  0  0  0  0  0  0  0  0  0  0  0
  -21.7470   43.0411    3.2956 H   0  0  0  0  0  0  0  0  0  0  0  0
  -19.3915   42.2650    3.6317 H   0  0  0  0  0  0  0  0  0  0  0  0
  -18.8482   40.6527    5.4509 H   0  0  0  0  0  0  0  0  0  0  0  0
  -20.6497   39.7628    6.9399 H   0  0  0  0  0  0  0  0  0  0  0  0
  -24.7770   39.6886    7.9921 H   0  0  0  0  0  0  0  0  0  0  0  0
  -22.5832   40.2724    9.9765 H   0  0  0  0  0  0  0  0  0  0  0  0
  -20.9713   38.8611   11.2814 H   0  0  0  0  0  0  0  0  0  0  0  0
  -20.4905   34.4453    9.8737 H   0  0  0  0  0  0  0  0  0  0  0  0
  -19.1044   35.2724    9.0151 H   0  0  0  0  0  0  0  0  0  0  0  0
  1  2  2  0
  2  3  1  0
  3  4  1  0
  4  5  2  0
  5  6  1  0
  6  7  2  0
  7  8  1  0
  8  9  2  0
  9 10  1  0
 10 11  2  0
 11 12  1  0
 12 13  2  0
 13 14  1  0
 14 15  2  0
 15 16  1  0
 16 17  2  0
 17 18  1  0
 18 19  2  0
 18 20  1  0
 16 21  1  0
 21 22  1  0
 22 23  1  0
 10  2  1  0
 17 12  1  0
  9  4  1  0
 23 15  1  0
  3 24  1  0
  3 25  1  0
  5 26  1  0
  6 27  1  0
  7 28  1  0
  8 29  1  0
 11 30  1  0
 13 31  1  0
 14 32  1  0
 22 33  1  0
 22 34  1  0
M  CHG  1  20  -1
M  END
>  <meeko>  (7) 
{"is_sidechain": [false], "free_energy": -6.268, "intermolecular_energy": -6.945, "internal_energy": -0.981}

$$$$
3zt2_ligand
     RDKit          3D

 34 37  0  0  0  0  0  0  0  0999 V2000
  -20.6570   35.7730    6.3340 O   0  0  0  0  0  0  0  0  0  0  0  0
  -20.9260   36.5850    7.2070 C   0  0  0  0  0  0  0  0  0  0  0  0
  -20.7940   36.3320    8.6970 C   0  0  0  0  0  0  0  0  0  0  0  0
  -21.3700   37.5840    9.3040 C   0  0  0  0  0  0  0  0  0  0  0  0
  -21.5020   37.8470   10.6610 C   0  0  0  0  0  0  0  0  0  0  0  0
  -22.0250   39.0800   11.0510 C   0  0  0  0  0  0  0  0  0  0  0  0
  -22.3960   40.0300   10.0900 C   0  0  0  0  0  0  0  0  0  0  0  0
  -22.2620   39.7570    8.7250 C   0  0  0  0  0  0  0  0  0  0  0  0
  -21.7590   38.5280    8.3310 C   0  0  0  0  0  0  0  0  0  0  0  0
  -21.5010   37.9600    7.0010 C   0  0  0  0  0  0  0  0  0  0  0  0
  -21.7020   38.4180    5.7570 C   0  0  0  0  0  0  0  0  0  0  0  0
  -22.3110   39.7020    5.3950 C   0  0  0  0  0  0  0  0  0  0  0  0
  -23.7130   39.7280    5.2140 C   0  0  0  0  0  0  0  0  0  0  0  0
  -24.3740   40.9120    4.8820 C   0  0  0  0  0  0  0  0  0  0  0  0
  -23.6080   42.0470    4.7340 C   0  0  0  0  0  0  0  0  0  0  0  0
  -22.2400   42.0380    4.9040 C   0  0  0  0  0  0  0  0  0  0  0  0
  -21.5520   40.8820    5.2380 C   0  0  0  0  0  0  0  0  0  0  0  0
  -20.0750   40.9050    5.4340 C   0  0  0  0  0  0  0  0  0  0  0  0
  -19.3600   40.7260    4.4000 O   0  0  0  0  0  0  0  0  0  0  0  0
  -19.6620   41.0810    6.6230 O   0  0  0  0  0  0  0  0  0  0  0  0
  -21.7030   43.2730    4.6910 O   0  0  0  0  0  0  0  0  0  0  0  0
  -22.8730   44.0470    4.3990 C   0  0  0  0  0  0  0  0  0  0  0  0
  -24.0930   43.2780    4.4100 O   0  0  0  0  0  0  0  0  0  0  0  0
  -21.3691   35.4446    9.0001 H   0  0  0  0  0  0  0  0  0  0  0  0
  -19.7596   36.1324    9.0134 H   0  0  0  0  0  0  0  0  0  0  0  0
  -21.2012   37.1006   11.4109 H   0  0  0  0  0  0  0  0  0  0  0  0
  -22.1470   39.3081   12.1202 H   0  0  0  0  0  0  0  0  0  0  0  0
  -22.7973   41.0019   10.4131 H   0  0  0  0  0  0  0  0  0  0  0  0
  -22.5519   40.5075    7.9749 H   0  0  0  0  0  0  0  0  0  0  0  0
  -21.3795   37.7691    4.9294 H   0  0  0  0  0  0  0  0  0  0  0  0
  -24.2920   38.8008    5.3367 H   0  0  0  0  0  0  0  0  0  0  0  0
  -25.4650   40.9374    4.7439 H   0  0  0  0  0  0  0  0  0  0  0  0
  -22.9584   44.8450    5.1512 H   0  0  0  0  0  0  0  0  0  0  0  0
  -22.7511   44.4430    3.3800 H   0  0  0  0  0  0  0  0  0  0  0  0
  1  2  2  0
  2  3  1  0
  3  4  1  0
  4  5  2  0
  5  6  1  0
  6  7  2  0
  7  8  1  0
  8  9  2  0
  9 10  1  0
 10 11  2  0
 11 12  1  0
 12 13  2  0
 13 14  1  0
 14 15  2  0
 15 16  1  0
 16 17  2  0
 17 18  1  0
 18 19  2  0
 18 20  1  0
 16 21  1  0
 21 22  1  0
 22 23  1  0
 10  2  1  0
 17 12  1  0
  9  4  1  0
 23 15  1  0
  3 24  1  0
  3 25  1  0
  5 26  1  0
  6 27  1  0
  7 28  1  0
  8 29  1  0
 11 30  1  0
 13 31  1  0
 14 32  1  0
 22 33  1  0
 22 34  1  0
M  CHG  1  20  -1
M  END
>  <meeko>  (8) 
{"is_sidechain": [false], "free_energy": -6.177, "intermolecular_energy": -6.789, "internal_energy": -1.037}

$$$$
3zt2_ligand
     RDKit          3D

 34 37  0  0  0  0  0  0  0  0999 V2000
  -20.1840   37.0650    7.5510 O   0  0  0  0  0  0  0  0  0  0  0  0
  -21.3310   37.4490    7.7280 C   0  0  0  0  0  0  0  0  0  0  0  0
  -22.2640   36.9260    8.8030 C   0  0  0  0  0  0  0  0  0  0  0  0
  -23.5610   37.6260    8.4950 C   0  0  0  0  0  0  0  0  0  0  0  0
  -24.7560   37.4720    9.1860 C   0  0  0  0  0  0  0  0  0  0  0  0
  -25.8570   38.2300    8.7860 C   0  0  0  0  0  0  0  0  0  0  0  0
  -25.7480   39.1310    7.7190 C   0  0  0  0  0  0  0  0  0  0  0  0
  -24.5420   39.2790    7.0260 C   0  0  0  0  0  0  0  0  0  0  0  0
  -23.4500   38.5160    7.4080 C   0  0  0  0  0  0  0  0  0  0  0  0
  -22.0770   38.4510    6.8900 C   0  0  0  0  0  0  0  0  0  0  0  0
  -21.4530   39.0640    5.8740 C   0  0  0  0  0  0  0  0  0  0  0  0
  -22.0580   40.0120    4.9310 C   0  0  0  0  0  0  0  0  0  0  0  0
  -21.9020   41.3900    5.2060 C   0  0  0  0  0  0  0  0  0  0  0  0
  -22.4350   42.3590    4.3530 C   0  0  0  0  0  0  0  0  0  0  0  0
  -23.1180   41.9190    3.2410 C   0  0  0  0  0  0  0  0  0  0  0  0
  -23.2800   40.5780    2.9600 C   0  0  0  0  0  0  0  0  0  0  0  0
  -22.7610   39.5910    3.7830 C   0  0  0  0  0  0  0  0  0  0  0  0
  -22.9360   38.1500    3.4450 C   0  0  0  0  0  0  0  0  0  0  0  0
  -23.9460   37.5660    3.9460 O   0  0  0  0  0  0  0  0  0  0  0  0
  -22.0460   37.6280    2.7020 O   0  0  0  0  0  0  0  0  0  0  0  0
  -24.0010   40.3920    1.8180 O   0  0  0  0  0  0  0  0  0  0  0  0
  -24.2450   41.7440    1.4100 C   0  0  0  0  0  0  0  0  0  0  0  0
  -23.7000   42.7280    2.3130 O   0  0  0  0  0  0  0  0  0  0  0  0
  -22.3772   35.8342    8.7314 H   0  0  0  0  0  0  0  0  0  0  0  0
  -21.9000   37.1166    9.8234 H   0  0  0  0  0  0  0  0  0  0  0  0
  -24.8326   36.7691   10.0286 H   0  0  0  0  0  0  0  0  0  0  0  0
  -26.8168   38.1193    9.3119 H   0  0  0  0  0  0  0  0  0  0  0  0
  -26.6218   39.7297    7.4223 H   0  0  0  0  0  0  0  0  0  0  0  0
  -24.4616   39.9901    6.1906 H   0  0  0  0  0  0  0  0  0  0  0  0
  -20.3863   38.8347    5.7339 H   0  0  0  0  0  0  0  0  0  0  0  0
  -21.3524   41.7038    6.1057 H   0  0  0  0  0  0  0  0  0  0  0  0
  -22.3139   43.4323    4.5613 H   0  0  0  0  0  0  0  0  0  0  0  0
  -23.7936   41.8946    0.4183 H   0  0  0  0  0  0  0  0  0  0  0  0
  -25.3358   41.8855    1.3996 H   0  0  0  0  0  0  0  0  0  0  0  0
  1  2  2  0
  2  3  1  0
  3  4  1  0
  4  5  2  0
  5  6  1  0
  6  7  2  0
  7  8  1  0
  8  9  2  0
  9 10  1  0
 10 11  2  0
 11 12  1  0
 12 13  2  0
 13 14  1  0
 14 15  2  0
 15 16  1  0
 16 17  2  0
 17 18  1  0
 18 19  2  0
 18 20  1  0
 16 21  1  0
 21 22  1  0
 22 23  1  0
 10  2  1  0
 17 12  1  0
  9  4  1  0
 23 15  1  0
  3 24  1  0
  3 25  1  0
  5 26  1  0
  6 27  1  0
  7 28  1  0
  8 29  1  0
 11 30  1  0
 13 31  1  0
 14 32  1  0
 22 33  1  0
 22 34  1  0
M  CHG  1  20  -1
M  END
>  <meeko>  (9) 
{"is_sidechain": [false], "free_energy": -6.137, "intermolecular_energy": -6.765, "internal_energy": -1.015}

$$$$
