1bzc_ligand
     RDKit          3D

 43 44  0  0  0  0  0  0  0  0999 V2000
  -17.7990   48.7240   20.3830 N   0  0  0  0  0  0  0  0  0  0  0  0
  -17.2750   49.9950   20.3200 C   0  0  0  0  0  0  0  0  0  0  0  0
  -16.1090   50.1170   19.9520 O   0  0  0  0  0  0  0  0  0  0  0  0
  -18.2020   51.1320   20.8200 C   0  0  2  0  0  0  0  0  0  0  0  0
  -19.2410   50.6960   21.8730 C   0  0  0  0  0  0  0  0  0  0  0  0
  -20.7130   50.7240   21.4640 C   0  0  0  0  0  0  0  0  0  0  0  0
  -21.4130   49.4110   21.1140 C   0  0  0  0  0  0  0  0  0  0  0  0
  -20.6800   48.5020   20.6400 O   0  0  0  0  0  0  0  0  0  0  0  0
  -22.6520   49.4140   21.3580 O   0  0  0  0  0  0  0  0  0  0  0  0
  -18.8360   51.8440   19.7230 N   0  0  0  0  0  0  0  0  0  0  0  0
  -18.5190   53.1510   19.4270 C   0  0  0  0  0  0  0  0  0  0  0  0
  -17.7220   53.7960   20.1120 O   0  0  0  0  0  0  0  0  0  0  0  0
  -19.1930   53.8130   18.2640 C   0  0  0  0  0  0  0  0  0  0  0  0
  -20.1660   53.0730   17.5760 C   0  0  0  0  0  0  0  0  0  0  0  0
  -20.8060   53.5980   16.4490 C   0  0  0  0  0  0  0  0  0  0  0  0
  -20.4880   54.8780   15.9790 C   0  0  0  0  0  0  0  0  0  0  0  0
  -21.1170   55.4070   14.8340 C   0  0  0  0  0  0  0  0  0  0  0  0
  -20.8000   56.6830   14.3540 C   0  0  0  0  0  0  0  0  0  0  0  0
  -21.4640   57.2870   13.1310 C   0  0  0  0  0  0  0  0  0  0  0  0
  -20.6530   57.2700   12.0240 F   0  0  0  0  0  0  0  0  0  0  0  0
  -22.6070   56.6190   12.7650 F   0  0  0  0  0  0  0  0  0  0  0  0
  -22.0930   59.1720   13.1400 P   0  0  0  0  0  0  0  0  0  0  0  0
  -21.4520   59.8000   14.3880 O   0  0  0  0  0  0  0  0  0  0  0  0
  -23.6220   59.0770   13.2430 O   0  0  0  0  0  0  0  0  0  0  0  0
  -21.6040   59.7940   11.8230 O   0  0  0  0  0  0  0  0  0  0  0  0
  -19.8410   57.4340   15.0510 C   0  0  0  0  0  0  0  0  0  0  0  0
  -19.2060   56.9220   16.1890 C   0  0  0  0  0  0  0  0  0  0  0  0
  -19.5160   55.6400   16.6670 C   0  0  0  0  0  0  0  0  0  0  0  0
  -18.8760   55.0990   17.8050 C   0  0  0  0  0  0  0  0  0  0  0  0
  -18.7950   48.6090   20.2680 H   0  0  0  0  0  0  0  0  0  0  0  0
  -17.2100   48.0410   19.9240 H   0  0  0  0  0  0  0  0  0  0  0  0
  -17.5266   51.8267   21.3408 H   0  0  0  0  0  0  0  0  0  0  0  0
  -18.9999   49.6636   22.1663 H   0  0  0  0  0  0  0  0  0  0  0  0
  -19.1583   51.4440   22.6753 H   0  0  0  0  0  0  0  0  0  0  0  0
  -21.2705   51.1731   22.2992 H   0  0  0  0  0  0  0  0  0  0  0  0
  -20.7113   51.2814   20.5157 H   0  0  0  0  0  0  0  0  0  0  0  0
  -19.4220   51.2630   19.1100 H   0  0  0  0  0  0  0  0  0  0  0  0
  -20.4295   52.0648   17.9283 H   0  0  0  0  0  0  0  0  0  0  0  0
  -21.5668   52.9995   15.9265 H   0  0  0  0  0  0  0  0  0  0  0  0
  -21.8721   54.8051   14.3071 H   0  0  0  0  0  0  0  0  0  0  0  0
  -19.5835   58.4431   14.6969 H   0  0  0  0  0  0  0  0  0  0  0  0
  -18.4558   57.5316   16.7140 H   0  0  0  0  0  0  0  0  0  0  0  0
  -18.1196   55.6945   18.3372 H   0  0  0  0  0  0  0  0  0  0  0  0
  1  2  1  0
  2  3  2  0
  2  4  1  0
  4  5  1  0
  5  6  1  0
  6  7  1  0
  7  8  2  0
  7  9  1  0
  4 10  1  0
 10 11  1  0
 11 12  2  0
 11 13  1  0
 13 14  2  0
 14 15  1  0
 15 16  2  0
 16 17  1  0
 17 18  2  0
 18 19  1  0
 19 20  1  0
 19 21  1  0
 19 22  1  0
 22 23  2  0
 22 24  1  0
 22 25  1  0
 18 26  1  0
 26 27  2  0
 27 28  1  0
 28 29  2  0
 29 13  1  0
 28 16  1  0
  1 30  1  0
  1 31  1  0
  4 32  1  1
  5 33  1  0
  5 34  1  0
  6 35  1  0
  6 36  1  0
 10 37  1  0
 14 38  1  0
 15 39  1  0
 17 40  1  0
 26 41  1  0
 27 42  1  0
 29 43  1  0
M  CHG  3   9  -1  24  -1  25  -1
M  END
>  <meeko>  (1) 
{"is_sidechain": [false], "free_energy": -8.764, "intermolecular_energy": -12.863, "internal_energy": -0.855}

$$$$
1bzc_ligand
     RDKit          3D

 43 44  0  0  0  0  0  0  0  0999 V2000
  -18.2690   48.8900   20.1840 N   0  0  0  0  0  0  0  0  0  0  0  0
  -17.5080   50.0360   20.1850 C   0  0  0  0  0  0  0  0  0  0  0  0
  -16.3550   49.9600   19.7670 O   0  0  0  0  0  0  0  0  0  0  0  0
  -18.1750   51.2880   20.8110 C   0  0  2  0  0  0  0  0  0  0  0  0
  -19.2650   50.9770   21.8570 C   0  0  0  0  0  0  0  0  0  0  0  0
  -20.6950   51.4130   21.5360 C   0  0  0  0  0  0  0  0  0  0  0  0
  -21.6430   50.4160   20.8700 C   0  0  0  0  0  0  0  0  0  0  0  0
  -22.7080   50.8950   20.3970 O   0  0  0  0  0  0  0  0  0  0  0  0
  -21.2200   49.2260   20.8810 O   0  0  0  0  0  0  0  0  0  0  0  0
  -18.6660   52.2100   19.8010 N   0  0  0  0  0  0  0  0  0  0  0  0
  -18.1670   53.4870   19.6810 C   0  0  0  0  0  0  0  0  0  0  0  0
  -17.3170   53.9270   20.4600 O   0  0  0  0  0  0  0  0  0  0  0  0
  -18.7020   54.3740   18.5980 C   0  0  0  0  0  0  0  0  0  0  0  0
  -18.4150   55.7440   18.6860 C   0  0  0  0  0  0  0  0  0  0  0  0
  -18.9180   56.6470   17.7430 C   0  0  0  0  0  0  0  0  0  0  0  0
  -19.7240   56.2030   16.6880 C   0  0  0  0  0  0  0  0  0  0  0  0
  -20.2480   57.1090   15.7450 C   0  0  0  0  0  0  0  0  0  0  0  0
  -21.0590   56.6730   14.6910 C   0  0  0  0  0  0  0  0  0  0  0  0
  -21.6330   57.6190   13.6530 C   0  0  0  0  0  0  0  0  0  0  0  0
  -22.6700   57.0640   12.9440 F   0  0  0  0  0  0  0  0  0  0  0  0
  -22.1350   58.7710   14.2070 F   0  0  0  0  0  0  0  0  0  0  0  0
  -20.4930   58.3450   12.1960 P   0  0  0  0  0  0  0  0  0  0  0  0
  -21.2980   59.5110   11.6030 O   0  0  0  0  0  0  0  0  0  0  0  0
  -20.3230   57.1800   11.2100 O   0  0  0  0  0  0  0  0  0  0  0  0
  -19.1780   58.7840   12.8580 O   0  0  0  0  0  0  0  0  0  0  0  0
  -21.3330   55.3000   14.5890 C   0  0  0  0  0  0  0  0  0  0  0  0
  -20.8210   54.3880   15.5190 C   0  0  0  0  0  0  0  0  0  0  0  0
  -20.0140   54.8230   16.5810 C   0  0  0  0  0  0  0  0  0  0  0  0
  -19.5000   53.9200   17.5390 C   0  0  0  0  0  0  0  0  0  0  0  0
  -19.2710   48.9790   20.1120 H   0  0  0  0  0  0  0  0  0  0  0  0
  -17.8430   48.1450   19.6490 H   0  0  0  0  0  0  0  0  0  0  0  0
  -17.3641   51.7823   21.3661 H   0  0  0  0  0  0  0  0  0  0  0  0
  -19.2781   49.8871   22.0054 H   0  0  0  0  0  0  0  0  0  0  0  0
  -18.9829   51.5683   22.7406 H   0  0  0  0  0  0  0  0  0  0  0  0
  -21.1605   51.7150   22.4858 H   0  0  0  0  0  0  0  0  0  0  0  0
  -20.5665   52.2003   20.7786 H   0  0  0  0  0  0  0  0  0  0  0  0
  -19.3010   51.7950   19.1070 H   0  0  0  0  0  0  0  0  0  0  0  0
  -17.7852   56.1140   19.5085 H   0  0  0  0  0  0  0  0  0  0  0  0
  -18.6777   57.7168   17.8315 H   0  0  0  0  0  0  0  0  0  0  0  0
  -20.0152   58.1800   15.8389 H   0  0  0  0  0  0  0  0  0  0  0  0
  -21.9613   54.9344   13.7634 H   0  0  0  0  0  0  0  0  0  0  0  0
  -21.0540   53.3179   15.4161 H   0  0  0  0  0  0  0  0  0  0  0  0
  -19.7291   52.8476   17.4524 H   0  0  0  0  0  0  0  0  0  0  0  0
  1  2  1  0
  2  3  2  0
  2  4  1  0
  4  5  1  0
  5  6  1  0
  6  7  1  0
  7  8  2  0
  7  9  1  0
  4 10  1  0
 10 11  1  0
 11 12  2  0
 11 13  1  0
 13 14  2  0
 14 15  1  0
 15 16  2  0
 16 17  1  0
 17 18  2  0
 18 19  1  0
 19 20  1  0
 19 21  1  0
 19 22  1  0
 22 23  2  0
 22 24  1  0
 22 25  1  0
 18 26  1  0
 26 27  2  0
 27 28  1  0
 28 29  2  0
 29 13  1  0
 28 16  1  0
  1 30  1  0
  1 31  1  0
  4 32  1  1
  5 33  1  0
  5 34  1  0
  6 35  1  0
  6 36  1  0
 10 37  1  0
 14 38  1  0
 15 39  1  0
 17 40  1  0
 26 41  1  0
 27 42  1  0
 29 43  1  0
M  CHG  3   9  -1  24  -1  25  -1
M  END
>  <meeko>  (2) 
{"is_sidechain": [false], "free_energy": -8.672, "intermolecular_energy": -12.312, "internal_energy": -1.27}

$$$$
1bzc_ligand
     RDKit          3D

 43 44  0  0  0  0  0  0  0  0999 V2000
  -14.8100   52.2570   20.7470 N   0  0  0  0  0  0  0  0  0  0  0  0
  -15.7960   51.3090   20.8960 C   0  0  0  0  0  0  0  0  0  0  0  0
  -15.5260   50.1480   20.5940 O   0  0  0  0  0  0  0  0  0  0  0  0
  -17.1810   51.8410   21.3440 C   0  0  2  0  0  0  0  0  0  0  0  0
  -18.0430   50.8170   22.1090 C   0  0  0  0  0  0  0  0  0  0  0  0
  -18.9400   49.8940   21.2840 C   0  0  0  0  0  0  0  0  0  0  0  0
  -18.5050   48.4470   21.0560 C   0  0  0  0  0  0  0  0  0  0  0  0
  -18.1990   48.1390   19.8730 O   0  0  0  0  0  0  0  0  0  0  0  0
  -18.5080   47.7430   22.1050 O   0  0  0  0  0  0  0  0  0  0  0  0
  -17.9230   52.4330   20.2430 N   0  0  0  0  0  0  0  0  0  0  0  0
  -17.8780   53.7840   19.9820 C   0  0  0  0  0  0  0  0  0  0  0  0
  -17.2490   54.5630   20.7010 O   0  0  0  0  0  0  0  0  0  0  0  0
  -18.6470   54.3200   18.8120 C   0  0  0  0  0  0  0  0  0  0  0  0
  -19.4610   53.4200   18.1090 C   0  0  0  0  0  0  0  0  0  0  0  0
  -20.1730   53.8270   16.9760 C   0  0  0  0  0  0  0  0  0  0  0  0
  -20.0880   55.1470   16.5150 C   0  0  0  0  0  0  0  0  0  0  0  0
  -20.7890   55.5600   15.3650 C   0  0  0  0  0  0  0  0  0  0  0  0
  -20.7040   56.8750   14.8950 C   0  0  0  0  0  0  0  0  0  0  0  0
  -21.4520   57.3570   13.6660 C   0  0  0  0  0  0  0  0  0  0  0  0
  -22.0670   56.3360   12.9850 F   0  0  0  0  0  0  0  0  0  0  0  0
  -22.4470   58.2540   13.9700 F   0  0  0  0  0  0  0  0  0  0  0  0
  -20.5010   58.3030   12.2010 P   0  0  0  0  0  0  0  0  0  0  0  0
  -21.4480   59.4370   11.7780 O   0  0  0  0  0  0  0  0  0  0  0  0
  -20.3150   57.2460   11.1030 O   0  0  0  0  0  0  0  0  0  0  0  0
  -19.1780   58.8040   12.8000 O   0  0  0  0  0  0  0  0  0  0  0  0
  -19.9050   57.7840   15.6080 C   0  0  0  0  0  0  0  0  0  0  0  0
  -19.2020   57.3880   16.7510 C   0  0  0  0  0  0  0  0  0  0  0  0
  -19.2790   56.0680   17.2200 C   0  0  0  0  0  0  0  0  0  0  0  0
  -18.5640   55.6450   18.3630 C   0  0  0  0  0  0  0  0  0  0  0  0
  -14.8350   53.0730   21.3400 H   0  0  0  0  0  0  0  0  0  0  0  0
  -13.9000   51.8450   20.5860 H   0  0  0  0  0  0  0  0  0  0  0  0
  -16.9487   52.6336   22.0706 H   0  0  0  0  0  0  0  0  0  0  0  0
  -17.3600   50.1799   22.6900 H   0  0  0  0  0  0  0  0  0  0  0  0
  -18.7391   51.4257   22.7047 H   0  0  0  0  0  0  0  0  0  0  0  0
  -19.9178   49.8611   21.7869 H   0  0  0  0  0  0  0  0  0  0  0  0
  -18.9193   50.3371   20.2774 H   0  0  0  0  0  0  0  0  0  0  0  0
  -18.3600   51.7580   19.6030 H   0  0  0  0  0  0  0  0  0  0  0  0
  -19.5407   52.3785   18.4538 H   0  0  0  0  0  0  0  0  0  0  0  0
  -20.8060   53.1033   16.4416 H   0  0  0  0  0  0  0  0  0  0  0  0
  -21.4156   54.8342   14.8259 H   0  0  0  0  0  0  0  0  0  0  0  0
  -19.8307   58.8254   15.2617 H   0  0  0  0  0  0  0  0  0  0  0  0
  -18.5815   58.1203   17.2883 H   0  0  0  0  0  0  0  0  0  0  0  0
  -17.9345   56.3645   18.9071 H   0  0  0  0  0  0  0  0  0  0  0  0
  1  2  1  0
  2  3  2  0
  2  4  1  0
  4  5  1  0
  5  6  1  0
  6  7  1  0
  7  8  2  0
  7  9  1  0
  4 10  1  0
 10 11  1  0
 11 12  2  0
 11 13  1  0
 13 14  2  0
 14 15  1  0
 15 16  2  0
 16 17  1  0
 17 18  2  0
 18 19  1  0
 19 20  1  0
 19 21  1  0
 19 22  1  0
 22 23  2  0
 22 24  1  0
 22 25  1  0
 18 26  1  0
 26 27  2  0
 27 28  1  0
 28 29  2  0
 29 13  1  0
 28 16  1  0
  1 30  1  0
  1 31  1  0
  4 32  1  1
  5 33  1  0
  5 34  1  0
  6 35  1  0
  6 36  1  0
 10 37  1  0
 14 38  1  0
 15 39  1  0
 17 40  1  0
 26 41  1  0
 27 42  1  0
 29 43  1  0
M  CHG  3   9  -1  24  -1  25  -1
M  END
>  <meeko>  (3) 
{"is_sidechain": [false], "free_energy": -8.539, "intermolecular_energy": -12.603, "internal_energy": -0.783}

$$$$
1bzc_ligand
     RDKit          3D

 43 44  0  0  0  0  0  0  0  0999 V2000
  -17.0330   53.5580   22.3780 N   0  0  0  0  0  0  0  0  0  0  0  0
  -17.0020   52.1990   22.1660 C   0  0  0  0  0  0  0  0  0  0  0  0
  -17.0720   51.4630   23.1470 O   0  0  0  0  0  0  0  0  0  0  0  0
  -16.7830   51.7510   20.6980 C   0  0  2  0  0  0  0  0  0  0  0  0
  -15.3420   51.3110   20.3700 C   0  0  0  0  0  0  0  0  0  0  0  0
  -14.2180   51.8780   21.2370 C   0  0  0  0  0  0  0  0  0  0  0  0
  -13.6550   53.2620   20.9110 C   0  0  0  0  0  0  0  0  0  0  0  0
  -12.4000   53.3510   20.8580 O   0  0  0  0  0  0  0  0  0  0  0  0
  -14.5420   54.1430   20.7300 O   0  0  0  0  0  0  0  0  0  0  0  0
  -17.2570   52.7430   19.7460 N   0  0  0  0  0  0  0  0  0  0  0  0
  -18.5560   52.7470   19.2910 C   0  0  0  0  0  0  0  0  0  0  0  0
  -19.3650   51.8790   19.6280 O   0  0  0  0  0  0  0  0  0  0  0  0
  -18.9820   53.8170   18.3310 C   0  0  0  0  0  0  0  0  0  0  0  0
  -18.5640   55.1280   18.5990 C   0  0  0  0  0  0  0  0  0  0  0  0
  -18.9580   56.1920   17.7810 C   0  0  0  0  0  0  0  0  0  0  0  0
  -19.7850   55.9710   16.6730 C   0  0  0  0  0  0  0  0  0  0  0  0
  -20.2000   57.0400   15.8550 C   0  0  0  0  0  0  0  0  0  0  0  0
  -21.0320   56.8290   14.7490 C   0  0  0  0  0  0  0  0  0  0  0  0
  -21.4910   57.9540   13.8410 C   0  0  0  0  0  0  0  0  0  0  0  0
  -22.7850   57.7950   13.4100 F   0  0  0  0  0  0  0  0  0  0  0  0
  -21.4530   59.1810   14.4580 F   0  0  0  0  0  0  0  0  0  0  0  0
  -20.5440   58.3390   12.1370 P   0  0  0  0  0  0  0  0  0  0  0  0
  -20.4540   56.9850   11.4170 O   0  0  0  0  0  0  0  0  0  0  0  0
  -19.1700   58.8770   12.5620 O   0  0  0  0  0  0  0  0  0  0  0  0
  -21.4030   59.3720   11.3930 O   0  0  0  0  0  0  0  0  0  0  0  0
  -21.4380   55.5150   14.4660 C   0  0  0  0  0  0  0  0  0  0  0  0
  -21.0350   54.4430   15.2710 C   0  0  0  0  0  0  0  0  0  0  0  0
  -20.2080   54.6530   16.3840 C   0  0  0  0  0  0  0  0  0  0  0  0
  -19.8020   53.5860   17.2180 C   0  0  0  0  0  0  0  0  0  0  0  0
  -17.3890   54.1510   21.6440 H   0  0  0  0  0  0  0  0  0  0  0  0
  -17.3100   53.7940   23.3220 H   0  0  0  0  0  0  0  0  0  0  0  0
  -17.3997   50.8462   20.5930 H   0  0  0  0  0  0  0  0  0  0  0  0
  -15.3041   50.2150   20.4562 H   0  0  0  0  0  0  0  0  0  0  0  0
  -15.1487   51.7099   19.3633 H   0  0  0  0  0  0  0  0  0  0  0  0
  -14.5967   51.9192   22.2689 H   0  0  0  0  0  0  0  0  0  0  0  0
  -13.3730   51.1992   21.0496 H   0  0  0  0  0  0  0  0  0  0  0  0
  -16.5990   53.5080   19.5530 H   0  0  0  0  0  0  0  0  0  0  0  0
  -17.9160   55.3230   19.4662 H   0  0  0  0  0  0  0  0  0  0  0  0
  -18.6150   57.2117   18.0103 H   0  0  0  0  0  0  0  0  0  0  0  0
  -19.8638   58.0607   16.0898 H   0  0  0  0  0  0  0  0  0  0  0  0
  -22.0841   55.3246   13.5964 H   0  0  0  0  0  0  0  0  0  0  0  0
  -21.3709   53.4242   15.0278 H   0  0  0  0  0  0  0  0  0  0  0  0
  -20.1337   52.5621   16.9906 H   0  0  0  0  0  0  0  0  0  0  0  0
  1  2  1  0
  2  3  2  0
  2  4  1  0
  4  5  1  0
  5  6  1  0
  6  7  1  0
  7  8  2  0
  7  9  1  0
  4 10  1  0
 10 11  1  0
 11 12  2  0
 11 13  1  0
 13 14  2  0
 14 15  1  0
 15 16  2  0
 16 17  1  0
 17 18  2  0
 18 19  1  0
 19 20  1  0
 19 21  1  0
 19 22  1  0
 22 23  2  0
 22 24  1  0
 22 25  1  0
 18 26  1  0
 26 27  2  0
 27 28  1  0
 28 29  2  0
 29 13  1  0
 28 16  1  0
  1 30  1  0
  1 31  1  0
  4 32  1  6
  5 33  1  0
  5 34  1  0
  6 35  1  0
  6 36  1  0
 10 37  1  0
 14 38  1  0
 15 39  1  0
 17 40  1  0
 26 41  1  0
 27 42  1  0
 29 43  1  0
M  CHG  3   9  -1  24  -1  25  -1
M  END
>  <meeko>  (4) 
{"is_sidechain": [false], "free_energy": -8.469, "intermolecular_energy": -12.116, "internal_energy": -1.168}

$$$$
1bzc_ligand
     RDKit          3D

 43 44  0  0  0  0  0  0  0  0999 V2000
  -16.7350   53.1390   23.9530 N   0  0  0  0  0  0  0  0  0  0  0  0
  -17.2630   53.7750   22.8530 C   0  0  0  0  0  0  0  0  0  0  0  0
  -17.9720   54.7600   23.0450 O   0  0  0  0  0  0  0  0  0  0  0  0
  -16.9730   53.1060   21.4850 C   0  0  2  0  0  0  0  0  0  0  0  0
  -15.4750   52.9330   21.1610 C   0  0  0  0  0  0  0  0  0  0  0  0
  -14.9090   51.5130   21.1850 C   0  0  0  0  0  0  0  0  0  0  0  0
  -13.6730   51.1920   20.3450 C   0  0  0  0  0  0  0  0  0  0  0  0
  -12.7230   52.0160   20.4190 O   0  0  0  0  0  0  0  0  0  0  0  0
  -13.7720   50.1210   19.6830 O   0  0  0  0  0  0  0  0  0  0  0  0
  -17.6720   53.7650   20.3940 N   0  0  0  0  0  0  0  0  0  0  0  0
  -18.2750   53.0510   19.3830 C   0  0  0  0  0  0  0  0  0  0  0  0
  -18.2050   51.8220   19.3270 O   0  0  0  0  0  0  0  0  0  0  0  0
  -19.0020   53.7980   18.3060 C   0  0  0  0  0  0  0  0  0  0  0  0
  -19.9250   53.0780   17.5330 C   0  0  0  0  0  0  0  0  0  0  0  0
  -20.6090   53.6870   16.4750 C   0  0  0  0  0  0  0  0  0  0  0  0
  -20.3860   55.0330   16.1620 C   0  0  0  0  0  0  0  0  0  0  0  0
  -21.0580   55.6480   15.0880 C   0  0  0  0  0  0  0  0  0  0  0  0
  -20.8360   56.9910   14.7630 C   0  0  0  0  0  0  0  0  0  0  0  0
  -21.5490   57.6880   13.6200 C   0  0  0  0  0  0  0  0  0  0  0  0
  -22.5220   56.9080   13.0480 F   0  0  0  0  0  0  0  0  0  0  0  0
  -22.1810   58.8420   14.0160 F   0  0  0  0  0  0  0  0  0  0  0  0
  -20.5440   58.3150   12.0240 P   0  0  0  0  0  0  0  0  0  0  0  0
  -19.2270   58.8790   12.5790 O   0  0  0  0  0  0  0  0  0  0  0  0
  -21.4350   59.3970   11.3970 O   0  0  0  0  0  0  0  0  0  0  0  0
  -20.3520   57.0830   11.1270 O   0  0  0  0  0  0  0  0  0  0  0  0
  -19.9270   57.7210   15.5470 C   0  0  0  0  0  0  0  0  0  0  0  0
  -19.2500   57.1230   16.6160 C   0  0  0  0  0  0  0  0  0  0  0  0
  -19.4650   55.7740   16.9380 C   0  0  0  0  0  0  0  0  0  0  0  0
  -18.7800   55.1480   18.0040 C   0  0  0  0  0  0  0  0  0  0  0  0
  -15.8680   52.6350   23.8460 H   0  0  0  0  0  0  0  0  0  0  0  0
  -16.8380   53.6840   24.8000 H   0  0  0  0  0  0  0  0  0  0  0  0
  -17.3731   52.0866   21.5880 H   0  0  0  0  0  0  0  0  0  0  0  0
  -15.3068   53.3382   20.1523 H   0  0  0  0  0  0  0  0  0  0  0  0
  -14.9495   53.4588   21.9718 H   0  0  0  0  0  0  0  0  0  0  0  0
  -14.6557   51.2849   22.2309 H   0  0  0  0  0  0  0  0  0  0  0  0
  -15.7034   50.9054   20.7270 H   0  0  0  0  0  0  0  0  0  0  0  0
  -17.8000   54.7790   20.5110 H   0  0  0  0  0  0  0  0  0  0  0  0
  -20.1139   52.0188   17.7620 H   0  0  0  0  0  0  0  0  0  0  0  0
  -21.3289   53.1023   15.8835 H   0  0  0  0  0  0  0  0  0  0  0  0
  -21.7722   55.0606   14.4922 H   0  0  0  0  0  0  0  0  0  0  0  0
  -19.7442   58.7810   15.3166 H   0  0  0  0  0  0  0  0  0  0  0  0
  -18.5409   57.7174   17.2109 H   0  0  0  0  0  0  0  0  0  0  0  0
  -18.0635   55.7280   18.6042 H   0  0  0  0  0  0  0  0  0  0  0  0
  1  2  1  0
  2  3  2  0
  2  4  1  0
  4  5  1  0
  5  6  1  0
  6  7  1  0
  7  8  2  0
  7  9  1  0
  4 10  1  0
 10 11  1  0
 11 12  2  0
 11 13  1  0
 13 14  2  0
 14 15  1  0
 15 16  2  0
 16 17  1  0
 17 18  2  0
 18 19  1  0
 19 20  1  0
 19 21  1  0
 19 22  1  0
 22 23  2  0
 22 24  1  0
 22 25  1  0
 18 26  1  0
 26 27  2  0
 27 28  1  0
 28 29  2  0
 29 13  1  0
 28 16  1  0
  1 30  1  0
  1 31  1  0
  4 32  1  1
  5 33  1  0
  5 34  1  0
  6 35  1  0
  6 36  1  0
 10 37  1  0
 14 38  1  0
 15 39  1  0
 17 40  1  0
 26 41  1  0
 27 42  1  0
 29 43  1  0
M  CHG  3   9  -1  24  -1  25  -1
M  END
>  <meeko>  (5) 
{"is_sidechain": [false], "free_energy": -8.452, "intermolecular_energy": -12.58, "internal_energy": -0.68}

$$$$
1bzc_ligand
     RDKit          3D

 43 44  0  0  0  0  0  0  0  0999 V2000
  -20.9530   49.7830   20.7380 N   0  0  0  0  0  0  0  0  0  0  0  0
  -19.7270   49.8340   21.3600 C   0  0  0  0  0  0  0  0  0  0  0  0
  -19.3750   48.8560   22.0150 O   0  0  0  0  0  0  0  0  0  0  0  0
  -18.9640   51.1780   21.2360 C   0  0  2  0  0  0  0  0  0  0  0  0
  -18.7860   51.9380   22.5660 C   0  0  0  0  0  0  0  0  0  0  0  0
  -17.4120   52.5450   22.8510 C   0  0  0  0  0  0  0  0  0  0  0  0
  -16.2060   51.6170   22.9970 C   0  0  0  0  0  0  0  0  0  0  0  0
  -15.3080   51.7320   22.1210 O   0  0  0  0  0  0  0  0  0  0  0  0
  -16.2720   50.8500   23.9990 O   0  0  0  0  0  0  0  0  0  0  0  0
  -19.5330   52.0390   20.2120 N   0  0  0  0  0  0  0  0  0  0  0  0
  -18.7480   52.6550   19.2650 C   0  0  0  0  0  0  0  0  0  0  0  0
  -17.5190   52.5490   19.2720 O   0  0  0  0  0  0  0  0  0  0  0  0
  -19.4070   53.5070   18.2220 C   0  0  0  0  0  0  0  0  0  0  0  0
  -20.4820   52.9470   17.5170 C   0  0  0  0  0  0  0  0  0  0  0  0
  -21.1200   53.6570   16.4940 C   0  0  0  0  0  0  0  0  0  0  0  0
  -20.6970   54.9460   16.1490 C   0  0  0  0  0  0  0  0  0  0  0  0
  -21.3240   55.6600   15.1090 C   0  0  0  0  0  0  0  0  0  0  0  0
  -20.9040   56.9460   14.7530 C   0  0  0  0  0  0  0  0  0  0  0  0
  -21.5610   57.7470   13.6450 C   0  0  0  0  0  0  0  0  0  0  0  0
  -22.6150   57.0850   13.0650 F   0  0  0  0  0  0  0  0  0  0  0  0
  -22.0720   58.9430   14.0880 F   0  0  0  0  0  0  0  0  0  0  0  0
  -20.5230   58.3270   12.0530 P   0  0  0  0  0  0  0  0  0  0  0  0
  -21.4000   59.3880   11.3700 O   0  0  0  0  0  0  0  0  0  0  0  0
  -20.3600   57.0570   11.2050 O   0  0  0  0  0  0  0  0  0  0  0  0
  -19.1940   58.8830   12.5860 O   0  0  0  0  0  0  0  0  0  0  0  0
  -19.8400   57.5180   15.4700 C   0  0  0  0  0  0  0  0  0  0  0  0
  -19.2070   56.8210   16.5050 C   0  0  0  0  0  0  0  0  0  0  0  0
  -19.6210   55.5280   16.8570 C   0  0  0  0  0  0  0  0  0  0  0  0
  -18.9840   54.8010   17.8890 C   0  0  0  0  0  0  0  0  0  0  0  0
  -21.0910   50.3310   19.9020 H   0  0  0  0  0  0  0  0  0  0  0  0
  -21.3450   48.8500   20.7350 H   0  0  0  0  0  0  0  0  0  0  0  0
  -17.9500   50.8899   20.9217 H   0  0  0  0  0  0  0  0  0  0  0  0
  -19.5182   52.7588   22.5775 H   0  0  0  0  0  0  0  0  0  0  0  0
  -18.9240   51.1753   23.3465 H   0  0  0  0  0  0  0  0  0  0  0  0
  -17.1880   53.2367   22.0255 H   0  0  0  0  0  0  0  0  0  0  0  0
  -17.5235   52.9908   23.8504 H   0  0  0  0  0  0  0  0  0  0  0  0
  -20.5600   52.0370   20.1670 H   0  0  0  0  0  0  0  0  0  0  0  0
  -20.8288   51.9347   17.7719 H   0  0  0  0  0  0  0  0  0  0  0  0
  -21.9622   53.1978   15.9556 H   0  0  0  0  0  0  0  0  0  0  0  0
  -22.1609   55.1969   14.5658 H   0  0  0  0  0  0  0  0  0  0  0  0
  -19.4985   58.5316   15.2133 H   0  0  0  0  0  0  0  0  0  0  0  0
  -18.3752   57.2925   17.0488 H   0  0  0  0  0  0  0  0  0  0  0  0
  -18.1462   55.2566   18.4372 H   0  0  0  0  0  0  0  0  0  0  0  0
  1  2  1  0
  2  3  2  0
  2  4  1  0
  4  5  1  0
  5  6  1  0
  6  7  1  0
  7  8  2  0
  7  9  1  0
  4 10  1  0
 10 11  1  0
 11 12  2  0
 11 13  1  0
 13 14  2  0
 14 15  1  0
 15 16  2  0
 16 17  1  0
 17 18  2  0
 18 19  1  0
 19 20  1  0
 19 21  1  0
 19 22  1  0
 22 23  2  0
 22 24  1  0
 22 25  1  0
 18 26  1  0
 26 27  2  0
 27 28  1  0
 28 29  2  0
 29 13  1  0
 28 16  1  0
  1 30  1  0
  1 31  1  0
  4 32  1  6
  5 33  1  0
  5 34  1  0
  6 35  1  0
  6 36  1  0
 10 37  1  0
 14 38  1  0
 15 39  1  0
 17 40  1  0
 26 41  1  0
 27 42  1  0
 29 43  1  0
M  CHG  3   9  -1  24  -1  25  -1
M  END
>  <meeko>  (6) 
{"is_sidechain": [false], "free_energy": -8.286, "intermolecular_energy": -12.222, "internal_energy": -0.794}

$$$$
1bzc_ligand
     RDKit          3D

 43 44  0  0  0  0  0  0  0  0999 V2000
  -17.6220   52.9500   22.3470 N   0  0  0  0  0  0  0  0  0  0  0  0
  -18.7170   52.1230   22.2520 C   0  0  0  0  0  0  0  0  0  0  0  0
  -19.4550   52.0320   23.2310 O   0  0  0  0  0  0  0  0  0  0  0  0
  -18.8410   51.3170   20.9330 C   0  0  2  0  0  0  0  0  0  0  0  0
  -17.6720   50.3490   20.6620 C   0  0  0  0  0  0  0  0  0  0  0  0
  -16.5940   50.8050   19.6780 C   0  0  0  0  0  0  0  0  0  0  0  0
  -15.1820   51.0760   20.1970 C   0  0  0  0  0  0  0  0  0  0  0  0
  -15.0660   52.0220   21.0200 O   0  0  0  0  0  0  0  0  0  0  0  0
  -14.3080   50.2960   19.7250 O   0  0  0  0  0  0  0  0  0  0  0  0
  -19.0870   52.1770   19.7870 N   0  0  0  0  0  0  0  0  0  0  0  0
  -20.3630   52.4970   19.3820 C   0  0  0  0  0  0  0  0  0  0  0  0
  -21.3580   52.0270   19.9390 O   0  0  0  0  0  0  0  0  0  0  0  0
  -20.5410   53.4120   18.2080 C   0  0  0  0  0  0  0  0  0  0  0  0
  -21.4970   53.0500   17.2470 C   0  0  0  0  0  0  0  0  0  0  0  0
  -21.6890   53.8220   16.0970 C   0  0  0  0  0  0  0  0  0  0  0  0
  -20.9280   54.9760   15.8760 C   0  0  0  0  0  0  0  0  0  0  0  0
  -21.1050   55.7490   14.7110 C   0  0  0  0  0  0  0  0  0  0  0  0
  -20.3430   56.9000   14.4800 C   0  0  0  0  0  0  0  0  0  0  0  0
  -20.5130   57.7610   13.2420 C   0  0  0  0  0  0  0  0  0  0  0  0
  -19.4210   58.5540   12.9930 F   0  0  0  0  0  0  0  0  0  0  0  0
  -20.7010   57.0170   12.1020 F   0  0  0  0  0  0  0  0  0  0  0  0
  -22.0010   59.0710   13.1090 P   0  0  0  0  0  0  0  0  0  0  0  0
  -21.7970   59.7700   11.7560 O   0  0  0  0  0  0  0  0  0  0  0  0
  -21.8010   60.0180   14.3010 O   0  0  0  0  0  0  0  0  0  0  0  0
  -23.3000   58.2540   13.1860 O   0  0  0  0  0  0  0  0  0  0  0  0
  -19.3980   57.2760   15.4480 C   0  0  0  0  0  0  0  0  0  0  0  0
  -19.2100   56.5170   16.6090 C   0  0  0  0  0  0  0  0  0  0  0  0
  -19.9660   55.3580   16.8390 C   0  0  0  0  0  0  0  0  0  0  0  0
  -19.7810   54.5700   17.9980 C   0  0  0  0  0  0  0  0  0  0  0  0
  -17.2580   53.3640   21.5020 H   0  0  0  0  0  0  0  0  0  0  0  0
  -17.6600   53.5470   23.1630 H   0  0  0  0  0  0  0  0  0  0  0  0
  -19.7242   50.6787   21.0829 H   0  0  0  0  0  0  0  0  0  0  0  0
  -17.1776   50.1511   21.6245 H   0  0  0  0  0  0  0  0  0  0  0  0
  -18.1366   49.4738   20.1843 H   0  0  0  0  0  0  0  0  0  0  0  0
  -16.5097   50.0241   18.9079 H   0  0  0  0  0  0  0  0  0  0  0  0
  -16.9448   51.7919   19.3419 H   0  0  0  0  0  0  0  0  0  0  0  0
  -18.2510   52.6310   19.3990 H   0  0  0  0  0  0  0  0  0  0  0  0
  -22.1043   52.1458   17.4004 H   0  0  0  0  0  0  0  0  0  0  0  0
  -22.4459   53.5194   15.3584 H   0  0  0  0  0  0  0  0  0  0  0  0
  -21.8566   55.4418   13.9689 H   0  0  0  0  0  0  0  0  0  0  0  0
  -18.7950   58.1826   15.2913 H   0  0  0  0  0  0  0  0  0  0  0  0
  -18.4607   56.8331   17.3497 H   0  0  0  0  0  0  0  0  0  0  0  0
  -19.0308   54.8699   18.7445 H   0  0  0  0  0  0  0  0  0  0  0  0
  1  2  1  0
  2  3  2  0
  2  4  1  0
  4  5  1  0
  5  6  1  0
  6  7  1  0
  7  8  2  0
  7  9  1  0
  4 10  1  0
 10 11  1  0
 11 12  2  0
 11 13  1  0
 13 14  2  0
 14 15  1  0
 15 16  2  0
 16 17  1  0
 17 18  2  0
 18 19  1  0
 19 20  1  0
 19 21  1  0
 19 22  1  0
 22 23  2  0
 22 24  1  0
 22 25  1  0
 18 26  1  0
 26 27  2  0
 27 28  1  0
 28 29  2  0
 29 13  1  0
 28 16  1  0
  1 30  1  0
  1 31  1  0
  4 32  1  1
  5 33  1  0
  5 34  1  0
  6 35  1  0
  6 36  1  0
 10 37  1  0
 14 38  1  0
 15 39  1  0
 17 40  1  0
 26 41  1  0
 27 42  1  0
 29 43  1  0
M  CHG  3   9  -1  24  -1  25  -1
M  END
>  <meeko>  (7) 
{"is_sidechain": [false], "free_energy": -8.277, "intermolecular_energy": -11.821, "internal_energy": -1.181}

$$$$
1bzc_ligand
     RDKit          3D

 43 44  0  0  0  0  0  0  0  0999 V2000
  -20.8790   50.0240   20.7960 N   0  0  0  0  0  0  0  0  0  0  0  0
  -20.2590   50.7240   21.8050 C   0  0  0  0  0  0  0  0  0  0  0  0
  -20.7760   50.7020   22.9200 O   0  0  0  0  0  0  0  0  0  0  0  0
  -19.0140   51.5470   21.3880 C   0  0  2  0  0  0  0  0  0  0  0  0
  -18.2020   52.1230   22.5670 C   0  0  0  0  0  0  0  0  0  0  0  0
  -16.6950   52.2870   22.3700 C   0  0  0  0  0  0  0  0  0  0  0  0
  -16.1630   53.5830   21.7590 C   0  0  0  0  0  0  0  0  0  0  0  0
  -14.9400   53.5920   21.4570 O   0  0  0  0  0  0  0  0  0  0  0  0
  -17.0400   54.4840   21.6340 O   0  0  0  0  0  0  0  0  0  0  0  0
  -19.3400   52.5820   20.4210 N   0  0  0  0  0  0  0  0  0  0  0  0
  -18.7130   52.6550   19.1970 C   0  0  0  0  0  0  0  0  0  0  0  0
  -17.8080   51.8770   18.8850 O   0  0  0  0  0  0  0  0  0  0  0  0
  -19.1210   53.7330   18.2390 C   0  0  0  0  0  0  0  0  0  0  0  0
  -18.6750   55.0350   18.5070 C   0  0  0  0  0  0  0  0  0  0  0  0
  -19.0510   56.1070   17.6910 C   0  0  0  0  0  0  0  0  0  0  0  0
  -19.8860   55.9040   16.5850 C   0  0  0  0  0  0  0  0  0  0  0  0
  -20.2820   56.9820   15.7690 C   0  0  0  0  0  0  0  0  0  0  0  0
  -21.1220   56.7880   14.6660 C   0  0  0  0  0  0  0  0  0  0  0  0
  -21.5610   57.9230   13.7600 C   0  0  0  0  0  0  0  0  0  0  0  0
  -22.8380   57.7590   13.2850 F   0  0  0  0  0  0  0  0  0  0  0  0
  -21.5540   59.1410   14.3960 F   0  0  0  0  0  0  0  0  0  0  0  0
  -20.5620   58.3420   12.0940 P   0  0  0  0  0  0  0  0  0  0  0  0
  -20.4450   57.0010   11.3520 O   0  0  0  0  0  0  0  0  0  0  0  0
  -19.2040   58.8760   12.5710 O   0  0  0  0  0  0  0  0  0  0  0  0
  -21.4010   59.3850   11.3420 O   0  0  0  0  0  0  0  0  0  0  0  0
  -21.5550   55.4830   14.3830 C   0  0  0  0  0  0  0  0  0  0  0  0
  -21.1710   54.4030   15.1870 C   0  0  0  0  0  0  0  0  0  0  0  0
  -20.3360   54.5950   16.2970 C   0  0  0  0  0  0  0  0  0  0  0  0
  -19.9490   53.5200   17.1290 C   0  0  0  0  0  0  0  0  0  0  0  0
  -20.3150   49.6780   20.0340 H   0  0  0  0  0  0  0  0  0  0  0  0
  -21.5990   49.4030   21.1430 H   0  0  0  0  0  0  0  0  0  0  0  0
  -18.3518   50.8152   20.9023 H   0  0  0  0  0  0  0  0  0  0  0  0
  -18.6146   53.1163   22.7977 H   0  0  0  0  0  0  0  0  0  0  0  0
  -18.3012   51.3759   23.3683 H   0  0  0  0  0  0  0  0  0  0  0  0
  -16.2274   52.1821   23.3601 H   0  0  0  0  0  0  0  0  0  0  0  0
  -16.4423   51.5205   21.6226 H   0  0  0  0  0  0  0  0  0  0  0  0
  -20.1580   53.1570   20.6610 H   0  0  0  0  0  0  0  0  0  0  0  0
  -18.0197   55.2161   19.3718 H   0  0  0  0  0  0  0  0  0  0  0  0
  -18.6873   57.1195   17.9202 H   0  0  0  0  0  0  0  0  0  0  0  0
  -19.9243   57.9956   16.0030 H   0  0  0  0  0  0  0  0  0  0  0  0
  -22.2070   55.3059   13.5149 H   0  0  0  0  0  0  0  0  0  0  0  0
  -21.5288   53.3914   14.9449 H   0  0  0  0  0  0  0  0  0  0  0  0
  -20.3023   52.5033   16.9022 H   0  0  0  0  0  0  0  0  0  0  0  0
  1  2  1  0
  2  3  2  0
  2  4  1  0
  4  5  1  0
  5  6  1  0
  6  7  1  0
  7  8  2  0
  7  9  1  0
  4 10  1  0
 10 11  1  0
 11 12  2  0
 11 13  1  0
 13 14  2  0
 14 15  1  0
 15 16  2  0
 16 17  1  0
 17 18  2  0
 18 19  1  0
 19 20  1  0
 19 21  1  0
 19 22  1  0
 22 23  2  0
 22 24  1  0
 22 25  1  0
 18 26  1  0
 26 27  2  0
 27 28  1  0
 28 29  2  0
 29 13  1  0
 28 16  1  0
  1 30  1  0
  1 31  1  0
  4 32  1  6
  5 33  1  0
  5 34  1  0
  6 35  1  0
  6 36  1  0
 10 37  1  0
 14 38  1  0
 15 39  1  0
 17 40  1  0
 26 41  1  0
 27 42  1  0
 29 43  1  0
M  CHG  3   9  -1  24  -1  25  -1
M  END
>  <meeko>  (8) 
{"is_sidechain": [false], "free_energy": -8.242, "intermolecular_energy": -11.675, "internal_energy": -1.276}

$$$$
1bzc_ligand
     RDKit          3D

 43 44  0  0  0  0  0  0  0  0999 V2000
  -16.8320   53.1860   22.9030 N   0  0  0  0  0  0  0  0  0  0  0  0
  -16.7560   51.8390   22.6340 C   0  0  0  0  0  0  0  0  0  0  0  0
  -16.0390   51.1490   23.3550 O   0  0  0  0  0  0  0  0  0  0  0  0
  -17.5230   51.3590   21.3750 C   0  0  2  0  0  0  0  0  0  0  0  0
  -16.9350   50.0970   20.7110 C   0  0  0  0  0  0  0  0  0  0  0  0
  -17.9180   49.0160   20.2590 C   0  0  0  0  0  0  0  0  0  0  0  0
  -18.8480   48.3800   21.2920 C   0  0  0  0  0  0  0  0  0  0  0  0
  -18.4710   48.4460   22.4920 O   0  0  0  0  0  0  0  0  0  0  0  0
  -19.8900   47.8700   20.7930 O   0  0  0  0  0  0  0  0  0  0  0  0
  -17.7060   52.4250   20.4050 N   0  0  0  0  0  0  0  0  0  0  0  0
  -18.9200   52.6490   19.7950 C   0  0  0  0  0  0  0  0  0  0  0  0
  -19.8940   51.9220   20.0020 O   0  0  0  0  0  0  0  0  0  0  0  0
  -19.0420   53.7850   18.8250 C   0  0  0  0  0  0  0  0  0  0  0  0
  -18.4740   55.0130   19.1940 C   0  0  0  0  0  0  0  0  0  0  0  0
  -18.5870   56.1370   18.3690 C   0  0  0  0  0  0  0  0  0  0  0  0
  -19.2740   56.0620   17.1510 C   0  0  0  0  0  0  0  0  0  0  0  0
  -19.4060   57.1930   16.3230 C   0  0  0  0  0  0  0  0  0  0  0  0
  -20.0970   57.1280   15.1070 C   0  0  0  0  0  0  0  0  0  0  0  0
  -20.2510   58.3240   14.1870 C   0  0  0  0  0  0  0  0  0  0  0  0
  -20.9180   59.3670   14.7780 F   0  0  0  0  0  0  0  0  0  0  0  0
  -19.0440   58.8370   13.7800 F   0  0  0  0  0  0  0  0  0  0  0  0
  -21.2140   58.1590   12.4560 P   0  0  0  0  0  0  0  0  0  0  0  0
  -22.5540   57.4930   12.8070 O   0  0  0  0  0  0  0  0  0  0  0  0
  -20.3170   57.2660   11.5880 O   0  0  0  0  0  0  0  0  0  0  0  0
  -21.3660   59.5880   11.9120 O   0  0  0  0  0  0  0  0  0  0  0  0
  -20.6510   55.8960   14.7250 C   0  0  0  0  0  0  0  0  0  0  0  0
  -20.5290   54.7640   15.5380 C   0  0  0  0  0  0  0  0  0  0  0  0
  -19.8450   54.8280   16.7610 C   0  0  0  0  0  0  0  0  0  0  0  0
  -19.7240   53.7000   17.6030 C   0  0  0  0  0  0  0  0  0  0  0  0
  -17.6710   53.6820   22.6400 H   0  0  0  0  0  0  0  0  0  0  0  0
  -16.4300   53.4240   23.8000 H   0  0  0  0  0  0  0  0  0  0  0  0
  -18.5126   51.0619   21.7525 H   0  0  0  0  0  0  0  0  0  0  0  0
  -16.3722   50.4228   19.8238 H   0  0  0  0  0  0  0  0  0  0  0  0
  -16.3342   49.6190   21.4987 H   0  0  0  0  0  0  0  0  0  0  0  0
  -18.5565   49.4649   19.4839 H   0  0  0  0  0  0  0  0  0  0  0  0
  -17.2693   48.1860   19.9423 H   0  0  0  0  0  0  0  0  0  0  0  0
  -16.9140   53.0740   20.3190 H   0  0  0  0  0  0  0  0  0  0  0  0
  -17.9310   55.0936   20.1473 H   0  0  0  0  0  0  0  0  0  0  0  0
  -18.1319   57.0889   18.6800 H   0  0  0  0  0  0  0  0  0  0  0  0
  -18.9573   58.1468   16.6377 H   0  0  0  0  0  0  0  0  0  0  0  0
  -21.1906   55.8193   13.7695 H   0  0  0  0  0  0  0  0  0  0  0  0
  -20.9750   53.8120   15.2142 H   0  0  0  0  0  0  0  0  0  0  0  0
  -20.1706   52.7428   17.2959 H   0  0  0  0  0  0  0  0  0  0  0  0
  1  2  1  0
  2  3  2  0
  2  4  1  0
  4  5  1  0
  5  6  1  0
  6  7  1  0
  7  8  2  0
  7  9  1  0
  4 10  1  0
 10 11  1  0
 11 12  2  0
 11 13  1  0
 13 14  2  0
 14 15  1  0
 15 16  2  0
 16 17  1  0
 17 18  2  0
 18 19  1  0
 19 20  1  0
 19 21  1  0
 19 22  1  0
 22 23  2  0
 22 24  1  0
 22 25  1  0
 18 26  1  0
 26 27  2  0
 27 28  1  0
 28 29  2  0
 29 13  1  0
 28 16  1  0
  1 30  1  0
  1 31  1  0
  4 32  1  1
  5 33  1  0
  5 34  1  0
  6 35  1  0
  6 36  1  0
 10 37  1  0
 14 38  1  0
 15 39  1  0
 17 40  1  0
 26 41  1  0
 27 42  1  0
 29 43  1  0
M  CHG  3   9  -1  24  -1  25  -1
M  END
>  <meeko>  (9) 
{"is_sidechain": [false], "free_energy": -8.062, "intermolecular_energy": -12.064, "internal_energy": -0.622}

$$$$
