4eor_ligand
     RDKit          3D

 50 53  0  0  0  0  0  0  0  0999 V2000
   -1.5830  -26.5910   24.3100 N   0  0  0  0  0  0  0  0  0  0  0  0
   -2.6210  -27.5670   25.2080 S   0  0  0  0  0  0  0  0  0  0  0  0
   -2.0700  -27.5940   26.5440 O   0  0  0  0  0  0  0  0  0  0  0  0
   -2.8760  -28.7660   24.4470 O   0  0  0  0  0  0  0  0  0  0  0  0
   -4.0980  -26.5890   25.2260 C   0  0  0  0  0  0  0  0  0  0  0  0
   -4.6550  -26.1650   24.0210 C   0  0  0  0  0  0  0  0  0  0  0  0
   -5.8220  -25.3940   24.0390 C   0  0  0  0  0  0  0  0  0  0  0  0
   -6.4540  -25.0440   25.2450 C   0  0  0  0  0  0  0  0  0  0  0  0
   -7.6090  -24.2570   25.1850 N   0  0  0  0  0  0  0  0  0  0  0  0
   -8.0550  -23.2390   24.3440 C   0  0  0  0  0  0  0  0  0  0  0  0
   -7.0540  -22.5610   23.7390 N   0  0  0  0  0  0  0  0  0  0  0  0
   -7.3510  -21.5390   22.8910 C   0  0  0  0  0  0  0  0  0  0  0  0
   -6.3410  -20.8360   22.2640 O   0  0  0  0  0  0  0  0  0  0  0  0
   -6.0160  -21.3320   20.9670 C   0  0  0  0  0  0  0  0  0  0  0  0
   -4.6030  -21.9380   20.9770 C   0  0  0  0  0  0  0  0  0  0  0  0
   -3.7160  -21.2790   22.0470 C   0  0  0  0  0  0  0  0  0  0  0  0
   -2.3130  -21.8830   22.0620 C   0  0  0  0  0  0  0  0  0  0  0  0
   -2.3540  -23.3970   22.2460 C   0  0  0  0  0  0  0  0  0  0  0  0
   -3.2420  -24.0650   21.2000 C   0  0  0  0  0  0  0  0  0  0  0  0
   -4.6450  -23.4610   21.1850 C   0  0  0  0  0  0  0  0  0  0  0  0
   -8.6850  -21.2080   22.6630 C   0  0  0  0  0  0  0  0  0  0  0  0
   -9.3250  -20.2610   21.8900 N   0  0  0  0  0  0  0  0  0  0  0  0
  -10.6090  -20.4600   22.1020 C   0  0  0  0  0  0  0  0  0  0  0  0
  -10.8260  -21.4900   22.9750 N   0  0  0  0  0  0  0  0  0  0  0  0
   -9.6060  -21.9780   23.3440 C   0  0  0  0  0  0  0  0  0  0  0  0
   -9.3670  -22.9890   24.1860 N   0  0  0  0  0  0  0  0  0  0  0  0
   -5.8740  -25.4920   26.4380 C   0  0  0  0  0  0  0  0  0  0  0  0
   -4.7070  -26.2650   26.4370 C   0  0  0  0  0  0  0  0  0  0  0  0
   -2.0560  -25.8090   23.8580 H   0  0  0  0  0  0  0  0  0  0  0  0
   -0.8220  -26.2780   24.9150 H   0  0  0  0  0  0  0  0  0  0  0  0
   -4.1816  -26.4340   23.0652 H   0  0  0  0  0  0  0  0  0  0  0  0
   -6.2554  -25.0535   23.0870 H   0  0  0  0  0  0  0  0  0  0  0  0
   -8.2850  -24.3790   25.9260 H   0  0  0  0  0  0  0  0  0  0  0  0
   -6.7428  -22.1062   20.6800 H   0  0  0  0  0  0  0  0  0  0  0  0
   -6.0496  -20.5038   20.2438 H   0  0  0  0  0  0  0  0  0  0  0  0
   -4.1605  -21.7371   19.9902 H   0  0  0  0  0  0  0  0  0  0  0  0
   -3.6393  -20.2025   21.8340 H   0  0  0  0  0  0  0  0  0  0  0  0
   -4.1764  -21.4521   23.0309 H   0  0  0  0  0  0  0  0  0  0  0  0
   -1.8153  -21.6529   21.1084 H   0  0  0  0  0  0  0  0  0  0  0  0
   -1.7611  -21.4488   22.9087 H   0  0  0  0  0  0  0  0  0  0  0  0
   -1.3329  -23.7957   22.1548 H   0  0  0  0  0  0  0  0  0  0  0  0
   -2.7717  -23.6120   23.2406 H   0  0  0  0  0  0  0  0  0  0  0  0
   -2.7859  -23.9331   20.2077 H   0  0  0  0  0  0  0  0  0  0  0  0
   -3.3294  -25.1318   21.4535 H   0  0  0  0  0  0  0  0  0  0  0  0
   -5.2215  -23.9173   20.3668 H   0  0  0  0  0  0  0  0  0  0  0  0
   -5.1170  -23.6627   22.1579 H   0  0  0  0  0  0  0  0  0  0  0  0
  -11.4102  -19.8694   21.6337 H   0  0  0  0  0  0  0  0  0  0  0  0
  -11.7170  -21.8360   23.2970 H   0  0  0  0  0  0  0  0  0  0  0  0
   -6.3456  -25.2309   27.3968 H   0  0  0  0  0  0  0  0  0  0  0  0
   -4.2735  -26.6144   27.3857 H   0  0  0  0  0  0  0  0  0  0  0  0
  1  2  1  0
  2  3  2  0
  2  4  2  0
  2  5  1  0
  5  6  2  0
  6  7  1  0
  7  8  2  0
  8  9  1  0
  9 10  1  0
 10 11  2  0
 11 12  1  0
 12 13  1  0
 13 14  1  0
 14 15  1  0
 15 16  1  0
 16 17  1  0
 17 18  1  0
 18 19  1  0
 19 20  1  0
 12 21  2  0
 21 22  1  0
 22 23  2  0
 23 24  1  0
 24 25  1  0
 25 26  2  0
  8 27  1  0
 27 28  2  0
 28  5  1  0
 26 10  1  0
 20 15  1  0
 25 21  1  0
  1 29  1  0
  1 30  1  0
  6 31  1  0
  7 32  1  0
  9 33  1  0
 14 34  1  0
 14 35  1  0
 15 36  1  0
 16 37  1  0
 16 38  1  0
 17 39  1  0
 17 40  1  0
 18 41  1  0
 18 42  1  0
 19 43  1  0
 19 44  1  0
 20 45  1  0
 20 46  1  0
 23 47  1  0
 24 48  1  0
 27 49  1  0
 28 50  1  0
M  END
>  <meeko>  (1) 
{"is_sidechain": [false], "free_energy": -9.111, "intermolecular_energy": -12.572, "internal_energy": -1.13}

$$$$
4eor_ligand
     RDKit          3D

 50 53  0  0  0  0  0  0  0  0999 V2000
   -3.8990  -28.4690   28.2840 N   0  0  0  0  0  0  0  0  0  0  0  0
   -4.0840  -26.7950   28.3300 S   0  0  0  0  0  0  0  0  0  0  0  0
   -2.8480  -26.2830   28.8760 O   0  0  0  0  0  0  0  0  0  0  0  0
   -5.3720  -26.5060   28.9130 O   0  0  0  0  0  0  0  0  0  0  0  0
   -4.1470  -26.3990   26.6050 C   0  0  0  0  0  0  0  0  0  0  0  0
   -2.9680  -26.3790   25.8620 C   0  0  0  0  0  0  0  0  0  0  0  0
   -3.0220  -26.0680   24.5000 C   0  0  0  0  0  0  0  0  0  0  0  0
   -4.2400  -25.7840   23.8570 C   0  0  0  0  0  0  0  0  0  0  0  0
   -4.2140  -25.4650   22.4950 N   0  0  0  0  0  0  0  0  0  0  0  0
   -3.8650  -24.3300   21.7640 C   0  0  0  0  0  0  0  0  0  0  0  0
   -4.8880  -23.4620   21.5940 N   0  0  0  0  0  0  0  0  0  0  0  0
   -4.6850  -22.3130   20.8960 C   0  0  0  0  0  0  0  0  0  0  0  0
   -5.7180  -21.4150   20.7130 O   0  0  0  0  0  0  0  0  0  0  0  0
   -6.2940  -20.9470   21.9310 C   0  0  0  0  0  0  0  0  0  0  0  0
   -7.5960  -20.1840   21.6360 C   0  0  0  0  0  0  0  0  0  0  0  0
   -7.7240  -19.8480   20.1410 C   0  0  0  0  0  0  0  0  0  0  0  0
   -9.0200  -19.0950   19.8440 C   0  0  0  0  0  0  0  0  0  0  0  0
  -10.2420  -19.8640   20.3360 C   0  0  0  0  0  0  0  0  0  0  0  0
  -10.1240  -20.2170   21.8150 C   0  0  0  0  0  0  0  0  0  0  0  0
   -8.8290  -20.9700   22.1120 C   0  0  0  0  0  0  0  0  0  0  0  0
   -3.4240  -22.0510   20.3660 C   0  0  0  0  0  0  0  0  0  0  0  0
   -2.8830  -21.0170   19.6290 N   0  0  0  0  0  0  0  0  0  0  0  0
   -1.6260  -21.3580   19.4360 C   0  0  0  0  0  0  0  0  0  0  0  0
   -1.3320  -22.5620   20.0130 N   0  0  0  0  0  0  0  0  0  0  0  0
   -2.4710  -23.0190   20.6100 C   0  0  0  0  0  0  0  0  0  0  0  0
   -2.6190  -24.1630   21.2870 N   0  0  0  0  0  0  0  0  0  0  0  0
   -5.4070  -25.8200   24.6300 C   0  0  0  0  0  0  0  0  0  0  0  0
   -5.3700  -26.1310   25.9940 C   0  0  0  0  0  0  0  0  0  0  0  0
   -4.6300  -28.9690   28.7890 H   0  0  0  0  0  0  0  0  0  0  0  0
   -3.8380  -28.7650   27.3090 H   0  0  0  0  0  0  0  0  0  0  0  0
   -2.0047  -26.6056   26.3423 H   0  0  0  0  0  0  0  0  0  0  0  0
   -2.0893  -26.0449   23.9173 H   0  0  0  0  0  0  0  0  0  0  0  0
   -4.5630  -26.1640   21.8540 H   0  0  0  0  0  0  0  0  0  0  0  0
   -6.5140  -21.8048   22.5835 H   0  0  0  0  0  0  0  0  0  0  0  0
   -5.5841  -20.2715   22.4308 H   0  0  0  0  0  0  0  0  0  0  0  0
   -7.5501  -19.2403   22.1993 H   0  0  0  0  0  0  0  0  0  0  0  0
   -6.8705  -19.2222   19.8412 H   0  0  0  0  0  0  0  0  0  0  0  0
   -7.7363  -20.7915   19.5756 H   0  0  0  0  0  0  0  0  0  0  0  0
   -8.9877  -18.1170   20.3464 H   0  0  0  0  0  0  0  0  0  0  0  0
   -9.1055  -18.9743   18.7540 H   0  0  0  0  0  0  0  0  0  0  0  0
  -11.1381  -19.2436   20.1873 H   0  0  0  0  0  0  0  0  0  0  0  0
  -10.3135  -20.8003   19.7630 H   0  0  0  0  0  0  0  0  0  0  0  0
  -10.1410  -19.2893   22.4058 H   0  0  0  0  0  0  0  0  0  0  0  0
  -10.9694  -20.8683   22.0816 H   0  0  0  0  0  0  0  0  0  0  0  0
   -8.7515  -21.1330   23.1971 H   0  0  0  0  0  0  0  0  0  0  0  0
   -8.8562  -21.9280   21.5721 H   0  0  0  0  0  0  0  0  0  0  0  0
   -0.9003  -20.7480   18.8781 H   0  0  0  0  0  0  0  0  0  0  0  0
   -0.4430  -23.0380   20.0070 H   0  0  0  0  0  0  0  0  0  0  0  0
   -6.3741  -25.5990   24.1547 H   0  0  0  0  0  0  0  0  0  0  0  0
   -6.3005  -26.1636   26.5798 H   0  0  0  0  0  0  0  0  0  0  0  0
  1  2  1  0
  2  3  2  0
  2  4  2  0
  2  5  1  0
  5  6  2  0
  6  7  1  0
  7  8  2  0
  8  9  1  0
  9 10  1  0
 10 11  2  0
 11 12  1  0
 12 13  1  0
 13 14  1  0
 14 15  1  0
 15 16  1  0
 16 17  1  0
 17 18  1  0
 18 19  1  0
 19 20  1  0
 12 21  2  0
 21 22  1  0
 22 23  2  0
 23 24  1  0
 24 25  1  0
 25 26  2  0
  8 27  1  0
 27 28  2  0
 28  5  1  0
 26 10  1  0
 20 15  1  0
 25 21  1  0
  1 29  1  0
  1 30  1  0
  6 31  1  0
  7 32  1  0
  9 33  1  0
 14 34  1  0
 14 35  1  0
 15 36  1  0
 16 37  1  0
 16 38  1  0
 17 39  1  0
 17 40  1  0
 18 41  1  0
 18 42  1  0
 19 43  1  0
 19 44  1  0
 20 45  1  0
 20 46  1  0
 23 47  1  0
 24 48  1  0
 27 49  1  0
 28 50  1  0
M  END
>  <meeko>  (2) 
{"is_sidechain": [false], "free_energy": -8.779, "intermolecular_energy": -12.521, "internal_energy": -0.724}

$$$$
4eor_ligand
     RDKit          3D

 50 53  0  0  0  0  0  0  0  0999 V2000
   -7.8040  -19.3450   19.9570 N   0  0  0  0  0  0  0  0  0  0  0  0
   -8.9920  -19.2160   21.1450 S   0  0  0  0  0  0  0  0  0  0  0  0
  -10.2430  -19.4840   20.4720 O   0  0  0  0  0  0  0  0  0  0  0  0
   -8.7510  -18.0020   21.8860 O   0  0  0  0  0  0  0  0  0  0  0  0
   -8.6030  -20.5960   22.1850 C   0  0  0  0  0  0  0  0  0  0  0  0
   -7.2690  -20.9150   22.4320 C   0  0  0  0  0  0  0  0  0  0  0  0
   -6.9650  -22.0040   23.2550 C   0  0  0  0  0  0  0  0  0  0  0  0
   -7.9750  -22.7810   23.8490 C   0  0  0  0  0  0  0  0  0  0  0  0
   -7.5950  -23.8650   24.6470 N   0  0  0  0  0  0  0  0  0  0  0  0
   -6.4930  -24.7180   24.6770 C   0  0  0  0  0  0  0  0  0  0  0  0
   -5.7470  -24.6760   23.5500 N   0  0  0  0  0  0  0  0  0  0  0  0
   -4.6420  -25.4610   23.4450 C   0  0  0  0  0  0  0  0  0  0  0  0
   -3.8690  -25.4310   22.3020 O   0  0  0  0  0  0  0  0  0  0  0  0
   -2.9210  -24.3660   22.2780 C   0  0  0  0  0  0  0  0  0  0  0  0
   -3.6200  -23.0520   21.8930 C   0  0  0  0  0  0  0  0  0  0  0  0
   -2.7630  -21.8300   22.2650 C   0  0  0  0  0  0  0  0  0  0  0  0
   -3.4520  -20.5220   21.8790 C   0  0  0  0  0  0  0  0  0  0  0  0
   -3.8220  -20.4980   20.3990 C   0  0  0  0  0  0  0  0  0  0  0  0
   -4.6600  -21.7110   20.0100 C   0  0  0  0  0  0  0  0  0  0  0  0
   -3.9710  -23.0190   20.3970 C   0  0  0  0  0  0  0  0  0  0  0  0
   -4.2980  -26.2980   24.5050 C   0  0  0  0  0  0  0  0  0  0  0  0
   -3.2770  -27.1980   24.7310 N   0  0  0  0  0  0  0  0  0  0  0  0
   -3.5040  -27.6760   25.9360 C   0  0  0  0  0  0  0  0  0  0  0  0
   -4.6240  -27.1270   26.4970 N   0  0  0  0  0  0  0  0  0  0  0  0
   -5.1430  -26.2450   25.5950 C   0  0  0  0  0  0  0  0  0  0  0  0
   -6.2400  -25.4940   25.7460 N   0  0  0  0  0  0  0  0  0  0  0  0
   -9.3050  -22.4300   23.5870 C   0  0  0  0  0  0  0  0  0  0  0  0
   -9.6250  -21.3430   22.7670 C   0  0  0  0  0  0  0  0  0  0  0  0
   -8.0700  -18.9100   19.0740 H   0  0  0  0  0  0  0  0  0  0  0  0
   -6.9310  -18.9620   20.3230 H   0  0  0  0  0  0  0  0  0  0  0  0
   -6.4627  -20.3158   21.9838 H   0  0  0  0  0  0  0  0  0  0  0  0
   -5.9113  -22.2586   23.4419 H   0  0  0  0  0  0  0  0  0  0  0  0
   -8.2570  -24.1730   25.3460 H   0  0  0  0  0  0  0  0  0  0  0  0
   -2.4670  -24.2593   23.2742 H   0  0  0  0  0  0  0  0  0  0  0  0
   -2.1409  -24.5921   21.5362 H   0  0  0  0  0  0  0  0  0  0  0  0
   -4.5566  -23.0056   22.4681 H   0  0  0  0  0  0  0  0  0  0  0  0
   -2.5875  -21.8342   23.3509 H   0  0  0  0  0  0  0  0  0  0  0  0
   -1.8134  -21.8947   21.7136 H   0  0  0  0  0  0  0  0  0  0  0  0
   -4.3679  -20.4107   22.4779 H   0  0  0  0  0  0  0  0  0  0  0  0
   -2.7533  -19.6947   22.0726 H   0  0  0  0  0  0  0  0  0  0  0  0
   -4.3978  -19.5844   20.1898 H   0  0  0  0  0  0  0  0  0  0  0  0
   -2.8922  -20.5196   19.8116 H   0  0  0  0  0  0  0  0  0  0  0  0
   -5.6310  -21.6535   20.5237 H   0  0  0  0  0  0  0  0  0  0  0  0
   -4.7918  -21.7019   18.9180 H   0  0  0  0  0  0  0  0  0  0  0  0
   -4.6447  -23.8583   20.1697 H   0  0  0  0  0  0  0  0  0  0  0  0
   -3.0365  -23.0990   19.8223 H   0  0  0  0  0  0  0  0  0  0  0  0
   -2.8700  -28.4259   26.4317 H   0  0  0  0  0  0  0  0  0  0  0  0
   -5.0080  -27.3260   27.4080 H   0  0  0  0  0  0  0  0  0  0  0  0
  -10.1160  -23.0222   24.0360 H   0  0  0  0  0  0  0  0  0  0  0  0
  -10.6770  -21.0795   22.5828 H   0  0  0  0  0  0  0  0  0  0  0  0
  1  2  1  0
  2  3  2  0
  2  4  2  0
  2  5  1  0
  5  6  2  0
  6  7  1  0
  7  8  2  0
  8  9  1  0
  9 10  1  0
 10 11  2  0
 11 12  1  0
 12 13  1  0
 13 14  1  0
 14 15  1  0
 15 16  1  0
 16 17  1  0
 17 18  1  0
 18 19  1  0
 19 20  1  0
 12 21  2  0
 21 22  1  0
 22 23  2  0
 23 24  1  0
 24 25  1  0
 25 26  2  0
  8 27  1  0
 27 28  2  0
 28  5  1  0
 26 10  1  0
 20 15  1  0
 25 21  1  0
  1 29  1  0
  1 30  1  0
  6 31  1  0
  7 32  1  0
  9 33  1  0
 14 34  1  0
 14 35  1  0
 15 36  1  0
 16 37  1  0
 16 38  1  0
 17 39  1  0
 17 40  1  0
 18 41  1  0
 18 42  1  0
 19 43  1  0
 19 44  1  0
 20 45  1  0
 20 46  1  0
 23 47  1  0
 24 48  1  0
 27 49  1  0
 28 50  1  0
M  END
>  <meeko>  (3) 
{"is_sidechain": [false], "free_energy": -8.671, "intermolecular_energy": -12.189, "internal_energy": -0.906}

$$$$
4eor_ligand
     RDKit          3D

 50 53  0  0  0  0  0  0  0  0999 V2000
   -8.6610  -18.7780   18.9130 N   0  0  0  0  0  0  0  0  0  0  0  0
   -8.7680  -19.2190   20.5350 S   0  0  0  0  0  0  0  0  0  0  0  0
  -10.0700  -19.8270   20.6870 O   0  0  0  0  0  0  0  0  0  0  0  0
   -8.3360  -18.0950   21.3310 O   0  0  0  0  0  0  0  0  0  0  0  0
   -7.5360  -20.4870   20.6390 C   0  0  0  0  0  0  0  0  0  0  0  0
   -6.9640  -20.9850   19.4700 C   0  0  0  0  0  0  0  0  0  0  0  0
   -5.9900  -21.9850   19.5550 C   0  0  0  0  0  0  0  0  0  0  0  0
   -5.5650  -22.4950   20.7950 C   0  0  0  0  0  0  0  0  0  0  0  0
   -4.5990  -23.5060   20.8010 N   0  0  0  0  0  0  0  0  0  0  0  0
   -3.7830  -24.0730   21.7800 C   0  0  0  0  0  0  0  0  0  0  0  0
   -4.3920  -25.0500   22.4890 N   0  0  0  0  0  0  0  0  0  0  0  0
   -3.7100  -25.6880   23.4780 C   0  0  0  0  0  0  0  0  0  0  0  0
   -4.3160  -26.6880   24.2120 O   0  0  0  0  0  0  0  0  0  0  0  0
   -5.2710  -26.2090   25.1560 C   0  0  0  0  0  0  0  0  0  0  0  0
   -4.5870  -25.9510   26.5090 C   0  0  0  0  0  0  0  0  0  0  0  0
   -5.6000  -25.4920   27.5720 C   0  0  0  0  0  0  0  0  0  0  0  0
   -4.9240  -25.2400   28.9190 C   0  0  0  0  0  0  0  0  0  0  0  0
   -4.1490  -26.4640   29.3960 C   0  0  0  0  0  0  0  0  0  0  0  0
   -3.1500  -26.9400   28.3470 C   0  0  0  0  0  0  0  0  0  0  0  0
   -3.8250  -27.1920   27.0000 C   0  0  0  0  0  0  0  0  0  0  0  0
   -2.3920  -25.3200   23.7440 C   0  0  0  0  0  0  0  0  0  0  0  0
   -1.4360  -25.7410   24.6440 N   0  0  0  0  0  0  0  0  0  0  0  0
   -0.3790  -24.9980   24.3930 C   0  0  0  0  0  0  0  0  0  0  0  0
   -0.6110  -24.1160   23.3730 N   0  0  0  0  0  0  0  0  0  0  0  0
   -1.8930  -24.3090   22.9480 C   0  0  0  0  0  0  0  0  0  0  0  0
   -2.5210  -23.6510   21.9670 N   0  0  0  0  0  0  0  0  0  0  0  0
   -6.1530  -21.9670   21.9510 C   0  0  0  0  0  0  0  0  0  0  0  0
   -7.1280  -20.9660   21.8820 C   0  0  0  0  0  0  0  0  0  0  0  0
   -9.3500  -19.2450   18.3230 H   0  0  0  0  0  0  0  0  0  0  0  0
   -8.7270  -17.7610   18.8440 H   0  0  0  0  0  0  0  0  0  0  0  0
   -7.2756  -20.5953   18.4897 H   0  0  0  0  0  0  0  0  0  0  0  0
   -5.5458  -22.3820   18.6303 H   0  0  0  0  0  0  0  0  0  0  0  0
   -4.3640  -23.9200   19.9100 H   0  0  0  0  0  0  0  0  0  0  0  0
   -5.7113  -25.2715   24.7855 H   0  0  0  0  0  0  0  0  0  0  0  0
   -6.0598  -26.9643   25.2876 H   0  0  0  0  0  0  0  0  0  0  0  0
   -3.8598  -25.1406   26.3526 H   0  0  0  0  0  0  0  0  0  0  0  0
   -6.0774  -24.5611   27.2322 H   0  0  0  0  0  0  0  0  0  0  0  0
   -6.3460  -26.2895   27.7044 H   0  0  0  0  0  0  0  0  0  0  0  0
   -4.2279  -24.3944   28.8164 H   0  0  0  0  0  0  0  0  0  0  0  0
   -5.7059  -25.0176   29.6601 H   0  0  0  0  0  0  0  0  0  0  0  0
   -3.6044  -26.2054   30.3161 H   0  0  0  0  0  0  0  0  0  0  0  0
   -4.8678  -27.2761   29.5799 H   0  0  0  0  0  0  0  0  0  0  0  0
   -2.3737  -26.1713   28.2188 H   0  0  0  0  0  0  0  0  0  0  0  0
   -2.7119  -27.8873   28.6945 H   0  0  0  0  0  0  0  0  0  0  0  0
   -3.0560  -27.4553   26.2589 H   0  0  0  0  0  0  0  0  0  0  0  0
   -4.5470  -28.0125   27.1247 H   0  0  0  0  0  0  0  0  0  0  0  0
    0.5741  -25.0765   24.9366 H   0  0  0  0  0  0  0  0  0  0  0  0
    0.0370  -23.4420   22.9940 H   0  0  0  0  0  0  0  0  0  0  0  0
   -5.8415  -22.3476   22.9349 H   0  0  0  0  0  0  0  0  0  0  0  0
   -7.5698  -20.5596   22.8037 H   0  0  0  0  0  0  0  0  0  0  0  0
  1  2  1  0
  2  3  2  0
  2  4  2  0
  2  5  1  0
  5  6  2  0
  6  7  1  0
  7  8  2  0
  8  9  1  0
  9 10  1  0
 10 11  2  0
 11 12  1  0
 12 13  1  0
 13 14  1  0
 14 15  1  0
 15 16  1  0
 16 17  1  0
 17 18  1  0
 18 19  1  0
 19 20  1  0
 12 21  2  0
 21 22  1  0
 22 23  2  0
 23 24  1  0
 24 25  1  0
 25 26  2  0
  8 27  1  0
 27 28  2  0
 28  5  1  0
 26 10  1  0
 20 15  1  0
 25 21  1  0
  1 29  1  0
  1 30  1  0
  6 31  1  0
  7 32  1  0
  9 33  1  0
 14 34  1  0
 14 35  1  0
 15 36  1  0
 16 37  1  0
 16 38  1  0
 17 39  1  0
 17 40  1  0
 18 41  1  0
 18 42  1  0
 19 43  1  0
 19 44  1  0
 20 45  1  0
 20 46  1  0
 23 47  1  0
 24 48  1  0
 27 49  1  0
 28 50  1  0
M  END
>  <meeko>  (4) 
{"is_sidechain": [false], "free_energy": -8.394, "intermolecular_energy": -11.893, "internal_energy": -0.82}

$$$$
4eor_ligand
     RDKit          3D

 50 53  0  0  0  0  0  0  0  0999 V2000
   -1.0450  -25.0750   22.7710 N   0  0  0  0  0  0  0  0  0  0  0  0
   -0.2190  -24.0750   21.6950 S   0  0  0  0  0  0  0  0  0  0  0  0
    0.1470  -24.9210   20.5830 O   0  0  0  0  0  0  0  0  0  0  0  0
    0.7490  -23.3150   22.4480 O   0  0  0  0  0  0  0  0  0  0  0  0
   -1.5090  -22.9790   21.1710 C   0  0  0  0  0  0  0  0  0  0  0  0
   -1.8580  -21.8960   21.9750 C   0  0  0  0  0  0  0  0  0  0  0  0
   -2.8750  -21.0320   21.5580 C   0  0  0  0  0  0  0  0  0  0  0  0
   -3.5490  -21.2240   20.3380 C   0  0  0  0  0  0  0  0  0  0  0  0
   -4.5670  -20.3280   19.9950 N   0  0  0  0  0  0  0  0  0  0  0  0
   -5.9460  -20.2920   20.1960 C   0  0  0  0  0  0  0  0  0  0  0  0
   -6.3500  -20.9710   21.2930 N   0  0  0  0  0  0  0  0  0  0  0  0
   -7.6730  -21.0180   21.6060 C   0  0  0  0  0  0  0  0  0  0  0  0
   -8.1020  -21.7060   22.7230 O   0  0  0  0  0  0  0  0  0  0  0  0
   -7.0480  -22.0770   23.6090 C   0  0  0  0  0  0  0  0  0  0  0  0
   -6.6270  -23.5310   23.3420 C   0  0  0  0  0  0  0  0  0  0  0  0
   -5.1520  -23.6200   22.9150 C   0  0  0  0  0  0  0  0  0  0  0  0
   -4.7300  -25.0650   22.6550 C   0  0  0  0  0  0  0  0  0  0  0  0
   -5.0020  -25.9570   23.8620 C   0  0  0  0  0  0  0  0  0  0  0  0
   -6.4580  -25.8690   24.3070 C   0  0  0  0  0  0  0  0  0  0  0  0
   -6.8810  -24.4240   24.5680 C   0  0  0  0  0  0  0  0  0  0  0  0
   -8.5910  -20.3640   20.7860 C   0  0  0  0  0  0  0  0  0  0  0  0
   -9.9610  -20.2110   20.8040 N   0  0  0  0  0  0  0  0  0  0  0  0
  -10.2360  -19.4760   19.7470 C   0  0  0  0  0  0  0  0  0  0  0  0
   -9.1070  -19.1500   19.0480 N   0  0  0  0  0  0  0  0  0  0  0  0
   -8.0460  -19.7110   19.6980 C   0  0  0  0  0  0  0  0  0  0  0  0
   -6.7580  -19.6360   19.3470 N   0  0  0  0  0  0  0  0  0  0  0  0
   -3.1700  -22.3170   19.5500 C   0  0  0  0  0  0  0  0  0  0  0  0
   -2.1530  -23.1900   19.9540 C   0  0  0  0  0  0  0  0  0  0  0  0
   -0.4990  -25.3130   23.5990 H   0  0  0  0  0  0  0  0  0  0  0  0
   -1.9320  -24.6320   23.0150 H   0  0  0  0  0  0  0  0  0  0  0  0
   -1.3383  -21.7224   22.9288 H   0  0  0  0  0  0  0  0  0  0  0  0
   -3.1546  -20.1825   22.1985 H   0  0  0  0  0  0  0  0  0  0  0  0
   -4.3050  -19.5330   19.4290 H   0  0  0  0  0  0  0  0  0  0  0  0
   -6.1861  -21.4125   23.4488 H   0  0  0  0  0  0  0  0  0  0  0  0
   -7.3994  -21.9868   24.6474 H   0  0  0  0  0  0  0  0  0  0  0  0
   -7.2490  -23.8988   22.5126 H   0  0  0  0  0  0  0  0  0  0  0  0
   -5.0107  -23.0353   21.9941 H   0  0  0  0  0  0  0  0  0  0  0  0
   -4.5320  -23.2212   23.7314 H   0  0  0  0  0  0  0  0  0  0  0  0
   -5.2926  -25.4511   21.7922 H   0  0  0  0  0  0  0  0  0  0  0  0
   -3.6481  -25.0763   22.4566 H   0  0  0  0  0  0  0  0  0  0  0  0
   -4.7725  -26.9991   23.5949 H   0  0  0  0  0  0  0  0  0  0  0  0
   -4.3667  -25.6159   24.6926 H   0  0  0  0  0  0  0  0  0  0  0  0
   -7.0982  -26.2913   23.5185 H   0  0  0  0  0  0  0  0  0  0  0  0
   -6.5654  -26.4333   25.2451 H   0  0  0  0  0  0  0  0  0  0  0  0
   -7.9542  -24.4038   24.8085 H   0  0  0  0  0  0  0  0  0  0  0  0
   -6.2839  -24.0362   25.4065 H   0  0  0  0  0  0  0  0  0  0  0  0
  -11.2508  -19.1623   19.4609 H   0  0  0  0  0  0  0  0  0  0  0  0
   -9.0510  -18.5980   18.2060 H   0  0  0  0  0  0  0  0  0  0  0  0
   -3.6823  -22.4937   18.5928 H   0  0  0  0  0  0  0  0  0  0  0  0
   -1.8643  -24.0372   19.3145 H   0  0  0  0  0  0  0  0  0  0  0  0
  1  2  1  0
  2  3  2  0
  2  4  2  0
  2  5  1  0
  5  6  2  0
  6  7  1  0
  7  8  2  0
  8  9  1  0
  9 10  1  0
 10 11  2  0
 11 12  1  0
 12 13  1  0
 13 14  1  0
 14 15  1  0
 15 16  1  0
 16 17  1  0
 17 18  1  0
 18 19  1  0
 19 20  1  0
 12 21  2  0
 21 22  1  0
 22 23  2  0
 23 24  1  0
 24 25  1  0
 25 26  2  0
  8 27  1  0
 27 28  2  0
 28  5  1  0
 26 10  1  0
 20 15  1  0
 25 21  1  0
  1 29  1  0
  1 30  1  0
  6 31  1  0
  7 32  1  0
  9 33  1  0
 14 34  1  0
 14 35  1  0
 15 36  1  0
 16 37  1  0
 16 38  1  0
 17 39  1  0
 17 40  1  0
 18 41  1  0
 18 42  1  0
 19 43  1  0
 19 44  1  0
 20 45  1  0
 20 46  1  0
 23 47  1  0
 24 48  1  0
 27 49  1  0
 28 50  1  0
M  END
>  <meeko>  (5) 
{"is_sidechain": [false], "free_energy": -8.286, "intermolecular_energy": -11.367, "internal_energy": -1.198}

$$$$
4eor_ligand
     RDKit          3D

 50 53  0  0  0  0  0  0  0  0999 V2000
   -3.4800  -20.7830   18.0780 N   0  0  0  0  0  0  0  0  0  0  0  0
   -4.2930  -20.5110   19.5280 S   0  0  0  0  0  0  0  0  0  0  0  0
   -5.6820  -20.8020   19.2540 O   0  0  0  0  0  0  0  0  0  0  0  0
   -3.8530  -19.2410   20.0530 O   0  0  0  0  0  0  0  0  0  0  0  0
   -3.6350  -21.8000   20.5490 C   0  0  0  0  0  0  0  0  0  0  0  0
   -2.8070  -21.4720   21.6200 C   0  0  0  0  0  0  0  0  0  0  0  0
   -2.2910  -22.4920   22.4260 C   0  0  0  0  0  0  0  0  0  0  0  0
   -2.5960  -23.8440   22.1870 C   0  0  0  0  0  0  0  0  0  0  0  0
   -2.0300  -24.8100   23.0240 N   0  0  0  0  0  0  0  0  0  0  0  0
   -2.4940  -25.5640   24.1020 C   0  0  0  0  0  0  0  0  0  0  0  0
   -3.8420  -25.6140   24.1840 N   0  0  0  0  0  0  0  0  0  0  0  0
   -4.4290  -26.3150   25.1910 C   0  0  0  0  0  0  0  0  0  0  0  0
   -5.8050  -26.3780   25.2890 O   0  0  0  0  0  0  0  0  0  0  0  0
   -6.4850  -25.8920   24.1350 C   0  0  0  0  0  0  0  0  0  0  0  0
   -6.8130  -24.3990   24.3090 C   0  0  0  0  0  0  0  0  0  0  0  0
   -6.2440  -23.5600   23.1520 C   0  0  0  0  0  0  0  0  0  0  0  0
   -6.5730  -22.0770   23.3200 C   0  0  0  0  0  0  0  0  0  0  0  0
   -8.0730  -21.8480   23.4750 C   0  0  0  0  0  0  0  0  0  0  0  0
   -8.6550  -22.6840   24.6100 C   0  0  0  0  0  0  0  0  0  0  0  0
   -8.3260  -24.1670   24.4420 C   0  0  0  0  0  0  0  0  0  0  0  0
   -3.6260  -26.9690   26.1240 C   0  0  0  0  0  0  0  0  0  0  0  0
   -3.8770  -27.7450   27.2360 N   0  0  0  0  0  0  0  0  0  0  0  0
   -2.6890  -28.0730   27.6980 C   0  0  0  0  0  0  0  0  0  0  0  0
   -1.6840  -27.5440   26.9350 N   0  0  0  0  0  0  0  0  0  0  0  0
   -2.2670  -26.8350   25.9260 C   0  0  0  0  0  0  0  0  0  0  0  0
   -1.6420  -26.1580   24.9560 N   0  0  0  0  0  0  0  0  0  0  0  0
   -3.4370  -24.1400   21.1070 C   0  0  0  0  0  0  0  0  0  0  0  0
   -3.9620  -23.1300   20.2930 C   0  0  0  0  0  0  0  0  0  0  0  0
   -2.5940  -21.2740   18.1990 H   0  0  0  0  0  0  0  0  0  0  0  0
   -4.1040  -21.2780   17.4390 H   0  0  0  0  0  0  0  0  0  0  0  0
   -2.5612  -20.4206   21.8299 H   0  0  0  0  0  0  0  0  0  0  0  0
   -1.6312  -22.2307   23.2665 H   0  0  0  0  0  0  0  0  0  0  0  0
   -1.0480  -25.0110   22.8930 H   0  0  0  0  0  0  0  0  0  0  0  0
   -5.8433  -26.0236   23.2513 H   0  0  0  0  0  0  0  0  0  0  0  0
   -7.4208  -26.4548   24.0029 H   0  0  0  0  0  0  0  0  0  0  0  0
   -6.3317  -24.0706   25.2420 H   0  0  0  0  0  0  0  0  0  0  0  0
   -5.1512  -23.6828   23.1253 H   0  0  0  0  0  0  0  0  0  0  0  0
   -6.7008  -23.9105   22.2147 H   0  0  0  0  0  0  0  0  0  0  0  0
   -6.0596  -21.6968   24.2154 H   0  0  0  0  0  0  0  0  0  0  0  0
   -6.2355  -21.5457   22.4179 H   0  0  0  0  0  0  0  0  0  0  0  0
   -8.2513  -20.7837   23.6880 H   0  0  0  0  0  0  0  0  0  0  0  0
   -8.5653  -22.1495   22.5387 H   0  0  0  0  0  0  0  0  0  0  0  0
   -8.2364  -22.3313   25.5641 H   0  0  0  0  0  0  0  0  0  0  0  0
   -9.7490  -22.5703   24.5952 H   0  0  0  0  0  0  0  0  0  0  0  0
   -8.6956  -24.7164   25.3204 H   0  0  0  0  0  0  0  0  0  0  0  0
   -8.8112  -24.5251   23.5220 H   0  0  0  0  0  0  0  0  0  0  0  0
   -2.5242  -28.6965   28.5891 H   0  0  0  0  0  0  0  0  0  0  0  0
   -0.6920  -27.6500   27.0790 H   0  0  0  0  0  0  0  0  0  0  0  0
   -3.6904  -25.1890   20.8940 H   0  0  0  0  0  0  0  0  0  0  0  0
   -4.6289  -23.3846   19.4560 H   0  0  0  0  0  0  0  0  0  0  0  0
  1  2  1  0
  2  3  2  0
  2  4  2  0
  2  5  1  0
  5  6  2  0
  6  7  1  0
  7  8  2  0
  8  9  1  0
  9 10  1  0
 10 11  2  0
 11 12  1  0
 12 13  1  0
 13 14  1  0
 14 15  1  0
 15 16  1  0
 16 17  1  0
 17 18  1  0
 18 19  1  0
 19 20  1  0
 12 21  2  0
 21 22  1  0
 22 23  2  0
 23 24  1  0
 24 25  1  0
 25 26  2  0
  8 27  1  0
 27 28  2  0
 28  5  1  0
 26 10  1  0
 20 15  1  0
 25 21  1  0
  1 29  1  0
  1 30  1  0
  6 31  1  0
  7 32  1  0
  9 33  1  0
 14 34  1  0
 14 35  1  0
 15 36  1  0
 16 37  1  0
 16 38  1  0
 17 39  1  0
 17 40  1  0
 18 41  1  0
 18 42  1  0
 19 43  1  0
 19 44  1  0
 20 45  1  0
 20 46  1  0
 23 47  1  0
 24 48  1  0
 27 49  1  0
 28 50  1  0
M  END
>  <meeko>  (6) 
{"is_sidechain": [false], "free_energy": -8.18, "intermolecular_energy": -11.399, "internal_energy": -1.018}

$$$$
4eor_ligand
     RDKit          3D

 50 53  0  0  0  0  0  0  0  0999 V2000
   -8.7190  -18.6570   18.9620 N   0  0  0  0  0  0  0  0  0  0  0  0
   -8.9460  -19.2320   20.5290 S   0  0  0  0  0  0  0  0  0  0  0  0
  -10.2410  -19.8730   20.5230 O   0  0  0  0  0  0  0  0  0  0  0  0
   -8.6060  -18.1720   21.4470 O   0  0  0  0  0  0  0  0  0  0  0  0
   -7.6960  -20.4840   20.6290 C   0  0  0  0  0  0  0  0  0  0  0  0
   -7.0540  -20.9070   19.4660 C   0  0  0  0  0  0  0  0  0  0  0  0
   -6.0670  -21.8940   19.5490 C   0  0  0  0  0  0  0  0  0  0  0  0
   -5.6970  -22.4640   20.7810 C   0  0  0  0  0  0  0  0  0  0  0  0
   -4.7130  -23.4580   20.7840 N   0  0  0  0  0  0  0  0  0  0  0  0
   -3.4660  -23.5970   21.3920 C   0  0  0  0  0  0  0  0  0  0  0  0
   -3.4750  -24.4270   22.4590 N   0  0  0  0  0  0  0  0  0  0  0  0
   -2.3230  -24.6510   23.1460 C   0  0  0  0  0  0  0  0  0  0  0  0
   -2.3150  -25.4960   24.2380 O   0  0  0  0  0  0  0  0  0  0  0  0
   -3.3760  -26.4480   24.2360 C   0  0  0  0  0  0  0  0  0  0  0  0
   -4.0190  -26.5200   25.6310 C   0  0  0  0  0  0  0  0  0  0  0  0
   -3.0550  -26.0230   26.7210 C   0  0  0  0  0  0  0  0  0  0  0  0
   -3.6930  -26.0880   28.1070 C   0  0  0  0  0  0  0  0  0  0  0  0
   -5.0110  -25.3220   28.1550 C   0  0  0  0  0  0  0  0  0  0  0  0
   -5.9740  -25.7940   27.0710 C   0  0  0  0  0  0  0  0  0  0  0  0
   -5.3360  -25.7290   25.6850 C   0  0  0  0  0  0  0  0  0  0  0  0
   -1.1520  -24.0180   22.7380 C   0  0  0  0  0  0  0  0  0  0  0  0
    0.1520  -24.0170   23.1890 N   0  0  0  0  0  0  0  0  0  0  0  0
    0.7960  -23.2110   22.3710 C   0  0  0  0  0  0  0  0  0  0  0  0
   -0.0330  -22.6910   21.4150 N   0  0  0  0  0  0  0  0  0  0  0  0
   -1.2810  -23.1960   21.6360 C   0  0  0  0  0  0  0  0  0  0  0  0
   -2.3870  -22.9420   20.9280 N   0  0  0  0  0  0  0  0  0  0  0  0
   -6.3550  -22.0110   21.9310 C   0  0  0  0  0  0  0  0  0  0  0  0
   -7.3450  -21.0240   21.8640 C   0  0  0  0  0  0  0  0  0  0  0  0
   -9.2710  -19.1580   18.2660 H   0  0  0  0  0  0  0  0  0  0  0  0
   -8.9110  -17.6530   18.9500 H   0  0  0  0  0  0  0  0  0  0  0  0
   -7.3212  -20.4688   18.4931 H   0  0  0  0  0  0  0  0  0  0  0  0
   -5.5679  -22.2329   18.6292 H   0  0  0  0  0  0  0  0  0  0  0  0
   -4.8690  -24.2580   20.1870 H   0  0  0  0  0  0  0  0  0  0  0  0
   -4.1354  -26.1459   23.4998 H   0  0  0  0  0  0  0  0  0  0  0  0
   -2.9738  -27.4371   23.9718 H   0  0  0  0  0  0  0  0  0  0  0  0
   -4.2444  -27.5788   25.8263 H   0  0  0  0  0  0  0  0  0  0  0  0
   -2.1526  -26.6520   26.7134 H   0  0  0  0  0  0  0  0  0  0  0  0
   -2.8040  -24.9738   26.5063 H   0  0  0  0  0  0  0  0  0  0  0  0
   -3.8824  -27.1407   28.3638 H   0  0  0  0  0  0  0  0  0  0  0  0
   -3.0005  -25.6266   28.8264 H   0  0  0  0  0  0  0  0  0  0  0  0
   -5.4778  -25.4760   29.1390 H   0  0  0  0  0  0  0  0  0  0  0  0
   -4.7964  -24.2567   27.9846 H   0  0  0  0  0  0  0  0  0  0  0  0
   -6.2662  -26.8335   27.2811 H   0  0  0  0  0  0  0  0  0  0  0  0
   -6.8512  -25.1303   27.0774 H   0  0  0  0  0  0  0  0  0  0  0  0
   -6.0365  -26.1512   24.9494 H   0  0  0  0  0  0  0  0  0  0  0  0
   -5.1146  -24.6759   25.4570 H   0  0  0  0  0  0  0  0  0  0  0  0
    1.8695  -22.9835   22.4470 H   0  0  0  0  0  0  0  0  0  0  0  0
    0.2180  -22.0520   20.6760 H   0  0  0  0  0  0  0  0  0  0  0  0
   -6.0881  -22.4401   22.9081 H   0  0  0  0  0  0  0  0  0  0  0  0
   -7.8430  -20.6768   22.7813 H   0  0  0  0  0  0  0  0  0  0  0  0
  1  2  1  0
  2  3  2  0
  2  4  2  0
  2  5  1  0
  5  6  2  0
  6  7  1  0
  7  8  2  0
  8  9  1  0
  9 10  1  0
 10 11  2  0
 11 12  1  0
 12 13  1  0
 13 14  1  0
 14 15  1  0
 15 16  1  0
 16 17  1  0
 17 18  1  0
 18 19  1  0
 19 20  1  0
 12 21  2  0
 21 22  1  0
 22 23  2  0
 23 24  1  0
 24 25  1  0
 25 26  2  0
  8 27  1  0
 27 28  2  0
 28  5  1  0
 26 10  1  0
 20 15  1  0
 25 21  1  0
  1 29  1  0
  1 30  1  0
  6 31  1  0
  7 32  1  0
  9 33  1  0
 14 34  1  0
 14 35  1  0
 15 36  1  0
 16 37  1  0
 16 38  1  0
 17 39  1  0
 17 40  1  0
 18 41  1  0
 18 42  1  0
 19 43  1  0
 19 44  1  0
 20 45  1  0
 20 46  1  0
 23 47  1  0
 24 48  1  0
 27 49  1  0
 28 50  1  0
M  END
>  <meeko>  (7) 
{"is_sidechain": [false], "free_energy": -8.141, "intermolecular_energy": -11.531, "internal_energy": -0.833}

$$$$
4eor_ligand
     RDKit          3D

 50 53  0  0  0  0  0  0  0  0999 V2000
    0.6540  -21.4110   20.4540 N   0  0  0  0  0  0  0  0  0  0  0  0
   -0.3410  -22.4760   19.6090 S   0  0  0  0  0  0  0  0  0  0  0  0
   -0.0970  -23.7770   20.1880 O   0  0  0  0  0  0  0  0  0  0  0  0
   -0.1830  -22.2090   18.1990 O   0  0  0  0  0  0  0  0  0  0  0  0
   -1.9500  -21.9270   20.1080 C   0  0  0  0  0  0  0  0  0  0  0  0
   -2.0730  -21.0580   21.1900 C   0  0  0  0  0  0  0  0  0  0  0  0
   -3.3450  -20.6260   21.5800 C   0  0  0  0  0  0  0  0  0  0  0  0
   -4.5040  -21.0390   20.8990 C   0  0  0  0  0  0  0  0  0  0  0  0
   -5.7430  -20.5780   21.3570 N   0  0  0  0  0  0  0  0  0  0  0  0
   -6.8040  -21.1560   22.0520 C   0  0  0  0  0  0  0  0  0  0  0  0
   -6.4200  -22.1110   22.9280 N   0  0  0  0  0  0  0  0  0  0  0  0
   -7.3570  -22.7580   23.6720 C   0  0  0  0  0  0  0  0  0  0  0  0
   -6.9820  -23.7350   24.5720 O   0  0  0  0  0  0  0  0  0  0  0  0
   -7.0290  -25.0560   24.0370 C   0  0  0  0  0  0  0  0  0  0  0  0
   -5.9560  -25.9310   24.7060 C   0  0  0  0  0  0  0  0  0  0  0  0
   -4.6300  -25.8870   23.9290 C   0  0  0  0  0  0  0  0  0  0  0  0
   -3.5590  -26.7510   24.5940 C   0  0  0  0  0  0  0  0  0  0  0  0
   -3.3490  -26.3600   26.0540 C   0  0  0  0  0  0  0  0  0  0  0  0
   -4.6580  -26.3850   26.8360 C   0  0  0  0  0  0  0  0  0  0  0  0
   -5.7280  -25.5220   26.1700 C   0  0  0  0  0  0  0  0  0  0  0  0
   -8.7010  -22.4240   23.5150 C   0  0  0  0  0  0  0  0  0  0  0  0
   -9.8770  -22.8630   24.0880 N   0  0  0  0  0  0  0  0  0  0  0  0
  -10.8220  -22.1490   23.5150 C   0  0  0  0  0  0  0  0  0  0  0  0
  -10.3110  -21.2710   22.6000 N   0  0  0  0  0  0  0  0  0  0  0  0
   -8.9560  -21.4350   22.5870 C   0  0  0  0  0  0  0  0  0  0  0  0
   -8.0740  -20.7710   21.8320 N   0  0  0  0  0  0  0  0  0  0  0  0
   -4.3450  -21.9060   19.8110 C   0  0  0  0  0  0  0  0  0  0  0  0
   -3.0790  -22.3470   19.4080 C   0  0  0  0  0  0  0  0  0  0  0  0
    1.0790  -21.8280   21.2810 H   0  0  0  0  0  0  0  0  0  0  0  0
    1.3550  -21.0370   19.8120 H   0  0  0  0  0  0  0  0  0  0  0  0
   -1.1792  -20.7152   21.7319 H   0  0  0  0  0  0  0  0  0  0  0  0
   -3.4410  -19.9469   22.4400 H   0  0  0  0  0  0  0  0  0  0  0  0
   -5.9970  -19.6310   21.1130 H   0  0  0  0  0  0  0  0  0  0  0  0
   -8.0222  -25.4901   24.2243 H   0  0  0  0  0  0  0  0  0  0  0  0
   -6.8389  -25.0148   22.9543 H   0  0  0  0  0  0  0  0  0  0  0  0
   -6.3307  -26.9651   24.6916 H   0  0  0  0  0  0  0  0  0  0  0  0
   -4.8026  -26.2560   22.9072 H   0  0  0  0  0  0  0  0  0  0  0  0
   -4.2733  -24.8465   23.9160 H   0  0  0  0  0  0  0  0  0  0  0  0
   -3.8710  -27.8048   24.5479 H   0  0  0  0  0  0  0  0  0  0  0  0
   -2.6112  -26.5983   24.0570 H   0  0  0  0  0  0  0  0  0  0  0  0
   -2.6442  -27.0675   26.5151 H   0  0  0  0  0  0  0  0  0  0  0  0
   -2.9513  -25.3348   26.0817 H   0  0  0  0  0  0  0  0  0  0  0  0
   -5.0202  -27.4221   26.8925 H   0  0  0  0  0  0  0  0  0  0  0  0
   -4.4661  -25.9803   27.8407 H   0  0  0  0  0  0  0  0  0  0  0  0
   -6.6722  -25.6344   26.7230 H   0  0  0  0  0  0  0  0  0  0  0  0
   -5.3851  -24.4769   26.1853 H   0  0  0  0  0  0  0  0  0  0  0  0
  -11.8934  -22.2466   23.7443 H   0  0  0  0  0  0  0  0  0  0  0  0
  -10.8260  -20.6160   22.0310 H   0  0  0  0  0  0  0  0  0  0  0  0
   -5.2342  -22.2480   19.2611 H   0  0  0  0  0  0  0  0  0  0  0  0
   -2.9763  -23.0206   18.5445 H   0  0  0  0  0  0  0  0  0  0  0  0
  1  2  1  0
  2  3  2  0
  2  4  2  0
  2  5  1  0
  5  6  2  0
  6  7  1  0
  7  8  2  0
  8  9  1  0
  9 10  1  0
 10 11  2  0
 11 12  1  0
 12 13  1  0
 13 14  1  0
 14 15  1  0
 15 16  1  0
 16 17  1  0
 17 18  1  0
 18 19  1  0
 19 20  1  0
 12 21  2  0
 21 22  1  0
 22 23  2  0
 23 24  1  0
 24 25  1  0
 25 26  2  0
  8 27  1  0
 27 28  2  0
 28  5  1  0
 26 10  1  0
 20 15  1  0
 25 21  1  0
  1 29  1  0
  1 30  1  0
  6 31  1  0
  7 32  1  0
  9 33  1  0
 14 34  1  0
 14 35  1  0
 15 36  1  0
 16 37  1  0
 16 38  1  0
 17 39  1  0
 17 40  1  0
 18 41  1  0
 18 42  1  0
 19 43  1  0
 19 44  1  0
 20 45  1  0
 20 46  1  0
 23 47  1  0
 24 48  1  0
 27 49  1  0
 28 50  1  0
M  END
>  <meeko>  (8) 
{"is_sidechain": [false], "free_energy": -7.996, "intermolecular_energy": -11.262, "internal_energy": -0.903}

$$$$
4eor_ligand
     RDKit          3D

 50 53  0  0  0  0  0  0  0  0999 V2000
   -9.6340  -20.9580   20.8660 N   0  0  0  0  0  0  0  0  0  0  0  0
   -8.9540  -19.6180   20.1040 S   0  0  0  0  0  0  0  0  0  0  0  0
   -8.8530  -18.6010   21.1260 O   0  0  0  0  0  0  0  0  0  0  0  0
   -9.6590  -19.4070   18.8630 O   0  0  0  0  0  0  0  0  0  0  0  0
   -7.3270  -20.2100   19.7330 C   0  0  0  0  0  0  0  0  0  0  0  0
   -7.1740  -21.4290   19.0750 C   0  0  0  0  0  0  0  0  0  0  0  0
   -5.8870  -21.8930   18.7820 C   0  0  0  0  0  0  0  0  0  0  0  0
   -4.7420  -21.1530   19.1270 C   0  0  0  0  0  0  0  0  0  0  0  0
   -3.4880  -21.6890   18.8160 N   0  0  0  0  0  0  0  0  0  0  0  0
   -2.5890  -22.5240   19.4800 C   0  0  0  0  0  0  0  0  0  0  0  0
   -3.0990  -23.0820   20.6020 N   0  0  0  0  0  0  0  0  0  0  0  0
   -2.3270  -23.9170   21.3470 C   0  0  0  0  0  0  0  0  0  0  0  0
   -2.8310  -24.4960   22.4950 O   0  0  0  0  0  0  0  0  0  0  0  0
   -4.1720  -24.9640   22.3600 C   0  0  0  0  0  0  0  0  0  0  0  0
   -5.1160  -24.1010   23.2130 C   0  0  0  0  0  0  0  0  0  0  0  0
   -5.8000  -23.0120   22.3690 C   0  0  0  0  0  0  0  0  0  0  0  0
   -6.7430  -22.1570   23.2130 C   0  0  0  0  0  0  0  0  0  0  0  0
   -7.7760  -23.0110   23.9410 C   0  0  0  0  0  0  0  0  0  0  0  0
   -7.1140  -24.1050   24.7730 C   0  0  0  0  0  0  0  0  0  0  0  0
   -6.1710  -24.9600   23.9290 C   0  0  0  0  0  0  0  0  0  0  0  0
   -1.0210  -24.1820   20.9410 C   0  0  0  0  0  0  0  0  0  0  0  0
    0.0070  -24.9540   21.4420 N   0  0  0  0  0  0  0  0  0  0  0  0
    1.0020  -24.7890   20.5950 C   0  0  0  0  0  0  0  0  0  0  0  0
    0.6630  -23.9440   19.5740 N   0  0  0  0  0  0  0  0  0  0  0  0
   -0.6260  -23.5470   19.7810 C   0  0  0  0  0  0  0  0  0  0  0  0
   -1.3430  -22.7180   19.0140 N   0  0  0  0  0  0  0  0  0  0  0  0
   -4.9300  -19.9290   19.7810 C   0  0  0  0  0  0  0  0  0  0  0  0
   -6.2110  -19.4510   20.0790 C   0  0  0  0  0  0  0  0  0  0  0  0
  -10.3210  -20.7100   21.5780 H   0  0  0  0  0  0  0  0  0  0  0  0
  -10.0280  -21.5750   20.1540 H   0  0  0  0  0  0  0  0  0  0  0  0
   -8.0563  -22.0204   18.7889 H   0  0  0  0  0  0  0  0  0  0  0  0
   -5.7680  -22.8592   18.2698 H   0  0  0  0  0  0  0  0  0  0  0  0
   -3.0690  -21.3980   17.9440 H   0  0  0  0  0  0  0  0  0  0  0  0
   -4.4753  -24.9022   21.3045 H   0  0  0  0  0  0  0  0  0  0  0  0
   -4.2273  -26.0079   22.7024 H   0  0  0  0  0  0  0  0  0  0  0  0
   -4.4971  -23.6075   23.9768 H   0  0  0  0  0  0  0  0  0  0  0  0
   -5.0279  -22.3638   21.9288 H   0  0  0  0  0  0  0  0  0  0  0  0
   -6.3921  -23.5057   21.5844 H   0  0  0  0  0  0  0  0  0  0  0  0
   -6.1521  -21.6011   23.9559 H   0  0  0  0  0  0  0  0  0  0  0  0
   -7.2774  -21.4692   22.5412 H   0  0  0  0  0  0  0  0  0  0  0  0
   -8.3680  -22.3654   24.6063 H   0  0  0  0  0  0  0  0  0  0  0  0
   -8.4174  -23.4920   23.1878 H   0  0  0  0  0  0  0  0  0  0  0  0
   -6.5400  -23.6370   25.5863 H   0  0  0  0  0  0  0  0  0  0  0  0
   -7.9035  -24.7573   25.1744 H   0  0  0  0  0  0  0  0  0  0  0  0
   -5.6597  -25.6805   24.5843 H   0  0  0  0  0  0  0  0  0  0  0  0
   -6.7683  -25.4789   23.1648 H   0  0  0  0  0  0  0  0  0  0  0  0
    1.9853  -25.2716   20.6962 H   0  0  0  0  0  0  0  0  0  0  0  0
    1.2470  -23.6590   18.8030 H   0  0  0  0  0  0  0  0  0  0  0  0
   -4.0522  -19.3307   20.0665 H   0  0  0  0  0  0  0  0  0  0  0  0
   -6.3362  -18.4816   20.5835 H   0  0  0  0  0  0  0  0  0  0  0  0
  1  2  1  0
  2  3  2  0
  2  4  2  0
  2  5  1  0
  5  6  2  0
  6  7  1  0
  7  8  2  0
  8  9  1  0
  9 10  1  0
 10 11  2  0
 11 12  1  0
 12 13  1  0
 13 14  1  0
 14 15  1  0
 15 16  1  0
 16 17  1  0
 17 18  1  0
 18 19  1  0
 19 20  1  0
 12 21  2  0
 21 22  1  0
 22 23  2  0
 23 24  1  0
 24 25  1  0
 25 26  2  0
  8 27  1  0
 27 28  2  0
 28  5  1  0
 26 10  1  0
 20 15  1  0
 25 21  1  0
  1 29  1  0
  1 30  1  0
  6 31  1  0
  7 32  1  0
  9 33  1  0
 14 34  1  0
 14 35  1  0
 15 36  1  0
 16 37  1  0
 16 38  1  0
 17 39  1  0
 17 40  1  0
 18 41  1  0
 18 42  1  0
 19 43  1  0
 19 44  1  0
 20 45  1  0
 20 46  1  0
 23 47  1  0
 24 48  1  0
 27 49  1  0
 28 50  1  0
M  END
>  <meeko>  (9) 
{"is_sidechain": [false], "free_energy": -7.975, "intermolecular_energy": -10.908, "internal_energy": -1.227}

$$$$
