3syr_ligand
     RDKit          3D

 33 34  0  0  0  0  0  0  0  0999 V2000
   12.3630   11.8000   56.6150 O   0  0  0  0  0  0  0  0  0  0  0  0
   12.8280   12.6970   57.3070 C   0  0  0  0  0  0  0  0  0  0  0  0
   13.4230   13.8080   56.7690 N   0  0  0  0  0  0  0  0  0  0  0  0
   13.9700   14.8610   57.4640 C   0  0  0  0  0  0  0  0  0  0  0  0
   14.4900   15.7910   56.8520 O   0  0  0  0  0  0  0  0  0  0  0  0
   13.9020   14.7660   58.8520 N   0  0  0  0  0  0  0  0  0  0  0  0
   14.3950   15.9020   59.6360 C   0  0  2  0  0  0  0  0  0  0  0  0
   15.5680   15.4860   60.3490 O   0  0  0  0  0  0  0  0  0  0  0  0
   16.2150   16.5750   61.0280 C   0  0  2  0  0  0  0  0  0  0  0  0
   17.5140   16.0560   61.6660 C   0  0  0  0  0  0  0  0  0  0  0  0
   18.3690   17.1320   62.0550 O   0  0  0  0  0  0  0  0  0  0  0  0
   15.2770   17.1570   62.0940 C   0  0  1  0  0  0  0  0  0  0  0  0
   15.8650   18.2980   62.7210 O   0  0  0  0  0  0  0  0  0  0  0  0
   13.9430   17.5600   61.4600 C   0  0  2  0  0  0  0  0  0  0  0  0
   13.0220   17.9750   62.4870 O   0  0  0  0  0  0  0  0  0  0  0  0
   13.3340   16.4220   60.6360 C   0  0  1  0  0  0  0  0  0  0  0  0
   12.1490   16.8900   59.9860 O   0  0  0  0  0  0  0  0  0  0  0  0
   13.3070   13.6820   59.4760 C   0  0  0  0  0  0  0  0  0  0  0  0
   12.7880   12.6710   58.7810 C   0  0  0  0  0  0  0  0  0  0  0  0
   12.2080   11.6120   59.3730 F   0  0  0  0  0  0  0  0  0  0  0  0
   13.4680   13.8620   55.7640 H   0  0  0  0  0  0  0  0  0  0  0  0
   14.6261   16.7279   58.9471 H   0  0  0  0  0  0  0  0  0  0  0  0
   16.4574   17.3765   60.3147 H   0  0  0  0  0  0  0  0  0  0  0  0
   17.2626   15.4591   62.5551 H   0  0  0  0  0  0  0  0  0  0  0  0
   18.0446   15.4434   60.9222 H   0  0  0  0  0  0  0  0  0  0  0  0
   17.8100   17.9000   62.2590 H   0  0  0  0  0  0  0  0  0  0  0  0
   15.1049   16.3815   62.8549 H   0  0  0  0  0  0  0  0  0  0  0  0
   15.1360   18.7980   63.1410 H   0  0  0  0  0  0  0  0  0  0  0  0
   14.1362   18.3974   60.7734 H   0  0  0  0  0  0  0  0  0  0  0  0
   12.9550   17.2640   63.1510 H   0  0  0  0  0  0  0  0  0  0  0  0
   13.0421   15.5800   61.2808 H   0  0  0  0  0  0  0  0  0  0  0  0
   12.0700   17.8450   60.1790 H   0  0  0  0  0  0  0  0  0  0  0  0
   13.2618   13.6552   60.5747 H   0  0  0  0  0  0  0  0  0  0  0  0
  1  2  2  0
  2  3  1  0
  3  4  1  0
  4  5  2  0
  4  6  1  0
  6  7  1  0
  7  8  1  0
  8  9  1  0
  9 10  1  0
 10 11  1  0
  9 12  1  0
 12 13  1  0
 12 14  1  0
 14 15  1  0
 14 16  1  0
 16 17  1  0
  6 18  1  0
 18 19  2  0
 19 20  1  0
 19  2  1  0
 16  7  1  0
  3 21  1  0
  7 22  1  6
  9 23  1  6
 10 24  1  0
 10 25  1  0
 11 26  1  0
 12 27  1  1
 13 28  1  0
 14 29  1  6
 15 30  1  0
 16 31  1  1
 17 32  1  0
 18 33  1  0
M  END
>  <meeko>  (1) 
{"is_sidechain": [false], "free_energy": -6.745, "intermolecular_energy": -8.322, "internal_energy": -0.627}

$$$$
3syr_ligand
     RDKit          3D

 33 34  0  0  0  0  0  0  0  0999 V2000
   11.8270   12.3850   59.6520 O   0  0  0  0  0  0  0  0  0  0  0  0
   12.7280   12.8470   58.9630 C   0  0  0  0  0  0  0  0  0  0  0  0
   13.8190   13.4750   59.5040 N   0  0  0  0  0  0  0  0  0  0  0  0
   14.8740   14.0220   58.8120 C   0  0  0  0  0  0  0  0  0  0  0  0
   15.7850   14.5740   59.4250 O   0  0  0  0  0  0  0  0  0  0  0  0
   14.8030   13.9170   57.4250 N   0  0  0  0  0  0  0  0  0  0  0  0
   15.9440   14.4080   56.6470 C   0  0  2  0  0  0  0  0  0  0  0  0
   15.5360   15.5890   55.9410 O   0  0  0  0  0  0  0  0  0  0  0  0
   16.6310   16.2340   55.2690 C   0  0  2  0  0  0  0  0  0  0  0  0
   16.1200   17.5410   54.6390 C   0  0  0  0  0  0  0  0  0  0  0  0
   17.2020   18.3750   54.2230 O   0  0  0  0  0  0  0  0  0  0  0  0
   17.2100   15.3010   54.1980 C   0  0  1  0  0  0  0  0  0  0  0  0
   18.3550   15.8870   53.5770 O   0  0  0  0  0  0  0  0  0  0  0  0
   17.6040   13.9590   54.8230 C   0  0  2  0  0  0  0  0  0  0  0  0
   18.0150   13.0440   53.7900 O   0  0  0  0  0  0  0  0  0  0  0  0
   16.4600   13.3510   55.6410 C   0  0  1  0  0  0  0  0  0  0  0  0
   16.9200   12.1600   56.2830 O   0  0  0  0  0  0  0  0  0  0  0  0
   13.7410   13.2870   56.7990 C   0  0  0  0  0  0  0  0  0  0  0  0
   12.7270   12.7680   57.4910 C   0  0  0  0  0  0  0  0  0  0  0  0
   11.6870   12.1550   56.8970 F   0  0  0  0  0  0  0  0  0  0  0  0
   13.8550   13.5470   60.5080 H   0  0  0  0  0  0  0  0  0  0  0  0
   16.7700   14.6288   57.3391 H   0  0  0  0  0  0  0  0  0  0  0  0
   17.4327   16.4660   55.9856 H   0  0  0  0  0  0  0  0  0  0  0  0
   15.4983   17.2981   53.7646 H   0  0  0  0  0  0  0  0  0  0  0  0
   15.5339   18.0844   55.3948 H   0  0  0  0  0  0  0  0  0  0  0  0
   17.2880   19.0980   54.8670 H   0  0  0  0  0  0  0  0  0  0  0  0
   16.4350   15.1389   53.4343 H   0  0  0  0  0  0  0  0  0  0  0  0
   18.3290   16.8430   53.7800 H   0  0  0  0  0  0  0  0  0  0  0  0
   18.4415   14.1412   55.5125 H   0  0  0  0  0  0  0  0  0  0  0  0
   18.5680   12.3490   54.1920 H   0  0  0  0  0  0  0  0  0  0  0  0
   15.6172   13.0686   54.9929 H   0  0  0  0  0  0  0  0  0  0  0  0
   16.9370   12.3350   57.2430 H   0  0  0  0  0  0  0  0  0  0  0  0
   13.7339   13.2128   55.7015 H   0  0  0  0  0  0  0  0  0  0  0  0
  1  2  2  0
  2  3  1  0
  3  4  1  0
  4  5  2  0
  4  6  1  0
  6  7  1  0
  7  8  1  0
  8  9  1  0
  9 10  1  0
 10 11  1  0
  9 12  1  0
 12 13  1  0
 12 14  1  0
 14 15  1  0
 14 16  1  0
 16 17  1  0
  6 18  1  0
 18 19  2  0
 19 20  1  0
 19  2  1  0
 16  7  1  0
  3 21  1  0
  7 22  1  1
  9 23  1  1
 10 24  1  0
 10 25  1  0
 11 26  1  0
 12 27  1  6
 13 28  1  0
 14 29  1  1
 15 30  1  0
 16 31  1  6
 17 32  1  0
 18 33  1  0
M  END
>  <meeko>  (2) 
{"is_sidechain": [false], "free_energy": -6.744, "intermolecular_energy": -8.338, "internal_energy": -0.609}

$$$$
3syr_ligand
     RDKit          3D

 33 34  0  0  0  0  0  0  0  0999 V2000
   11.2190   12.4310   58.4740 O   0  0  0  0  0  0  0  0  0  0  0  0
   12.3500   12.5500   58.0220 C   0  0  0  0  0  0  0  0  0  0  0  0
   12.8550   11.7020   57.0710 N   0  0  0  0  0  0  0  0  0  0  0  0
   14.1070   11.7590   56.5070 C   0  0  0  0  0  0  0  0  0  0  0  0
   14.4400   10.9190   55.6730 O   0  0  0  0  0  0  0  0  0  0  0  0
   14.9270   12.7890   56.9620 N   0  0  0  0  0  0  0  0  0  0  0  0
   16.2400   12.9430   56.3300 C   0  0  2  0  0  0  0  0  0  0  0  0
   17.1670   13.4160   57.3180 O   0  0  0  0  0  0  0  0  0  0  0  0
   18.5190   13.4520   56.8330 C   0  0  2  0  0  0  0  0  0  0  0  0
   19.4470   13.8620   57.9880 C   0  0  0  0  0  0  0  0  0  0  0  0
   20.8200   13.8050   57.5990 O   0  0  0  0  0  0  0  0  0  0  0  0
   18.6290   14.4430   55.6660 C   0  0  1  0  0  0  0  0  0  0  0  0
   19.9440   14.4300   55.1090 O   0  0  0  0  0  0  0  0  0  0  0  0
   17.6140   14.0890   54.5750 C   0  0  2  0  0  0  0  0  0  0  0  0
   17.6290   15.1010   53.5510 O   0  0  0  0  0  0  0  0  0  0  0  0
   16.1990   13.9310   55.1390 C   0  0  1  0  0  0  0  0  0  0  0  0
   15.3210   13.4980   54.0960 O   0  0  0  0  0  0  0  0  0  0  0  0
   14.4890   13.6970   57.9120 C   0  0  0  0  0  0  0  0  0  0  0  0
   13.2730   13.6180   58.4490 C   0  0  0  0  0  0  0  0  0  0  0  0
   12.8340   14.4920   59.3730 F   0  0  0  0  0  0  0  0  0  0  0  0
   12.2530   10.9590   56.7530 H   0  0  0  0  0  0  0  0  0  0  0  0
   16.5532   11.9660   55.9332 H   0  0  0  0  0  0  0  0  0  0  0  0
   18.8164   12.4589   56.4652 H   0  0  0  0  0  0  0  0  0  0  0  0
   19.2043   14.8902   58.2943 H   0  0  0  0  0  0  0  0  0  0  0  0
   19.2938   13.1600   58.8209 H   0  0  0  0  0  0  0  0  0  0  0  0
   20.9650   12.9640   57.1350 H   0  0  0  0  0  0  0  0  0  0  0  0
   18.4171   15.4499   56.0548 H   0  0  0  0  0  0  0  0  0  0  0  0
   20.0000   15.1900   54.4960 H   0  0  0  0  0  0  0  0  0  0  0  0
   17.9065   13.1201   54.1442 H   0  0  0  0  0  0  0  0  0  0  0  0
   17.9070   14.6910   52.7110 H   0  0  0  0  0  0  0  0  0  0  0  0
   15.8135   14.8903   55.5146 H   0  0  0  0  0  0  0  0  0  0  0  0
   15.8780   13.2380   53.3370 H   0  0  0  0  0  0  0  0  0  0  0  0
   15.1637   14.5049   58.2314 H   0  0  0  0  0  0  0  0  0  0  0  0
  1  2  2  0
  2  3  1  0
  3  4  1  0
  4  5  2  0
  4  6  1  0
  6  7  1  0
  7  8  1  0
  8  9  1  0
  9 10  1  0
 10 11  1  0
  9 12  1  0
 12 13  1  0
 12 14  1  0
 14 15  1  0
 14 16  1  0
 16 17  1  0
  6 18  1  0
 18 19  2  0
 19 20  1  0
 19  2  1  0
 16  7  1  0
  3 21  1  0
  7 22  1  6
  9 23  1  6
 10 24  1  0
 10 25  1  0
 11 26  1  0
 12 27  1  1
 13 28  1  0
 14 29  1  6
 15 30  1  0
 16 31  1  1
 17 32  1  0
 18 33  1  0
M  END
>  <meeko>  (3) 
{"is_sidechain": [false], "free_energy": -6.674, "intermolecular_energy": -8.224, "internal_energy": -0.638}

$$$$
3syr_ligand
     RDKit          3D

 33 34  0  0  0  0  0  0  0  0999 V2000
   12.3780   11.2430   57.8110 O   0  0  0  0  0  0  0  0  0  0  0  0
   12.5240   12.3710   58.2640 C   0  0  0  0  0  0  0  0  0  0  0  0
   11.6540   12.9180   59.1710 N   0  0  0  0  0  0  0  0  0  0  0  0
   11.7380   14.1700   59.7320 C   0  0  0  0  0  0  0  0  0  0  0  0
   10.8740   14.5430   60.5230 O   0  0  0  0  0  0  0  0  0  0  0  0
   12.8220   14.9420   59.3230 N   0  0  0  0  0  0  0  0  0  0  0  0
   13.0030   16.2510   59.9570 C   0  0  2  0  0  0  0  0  0  0  0  0
   13.5230   17.1610   58.9780 O   0  0  0  0  0  0  0  0  0  0  0  0
   13.5900   18.5130   59.4620 C   0  0  2  0  0  0  0  0  0  0  0  0
   14.0490   19.4260   58.3140 C   0  0  0  0  0  0  0  0  0  0  0  0
   13.8130   20.8020   58.6160 O   0  0  0  0  0  0  0  0  0  0  0  0
   14.5600   18.5950   60.6480 C   0  0  1  0  0  0  0  0  0  0  0  0
   14.5740   19.9110   61.2030 O   0  0  0  0  0  0  0  0  0  0  0  0
   14.1530   17.5930   61.7330 C   0  0  2  0  0  0  0  0  0  0  0  0
   15.1450   17.5800   62.7770 O   0  0  0  0  0  0  0  0  0  0  0  0
   13.9650   16.1830   61.1680 C   0  0  1  0  0  0  0  0  0  0  0  0
   13.4860   15.3200   62.2020 O   0  0  0  0  0  0  0  0  0  0  0  0
   13.7550   14.4600   58.4200 C   0  0  0  0  0  0  0  0  0  0  0  0
   13.6500   13.2440   57.8850 C   0  0  0  0  0  0  0  0  0  0  0  0
   14.5470   12.7630   57.0050 F   0  0  0  0  0  0  0  0  0  0  0  0
   10.8720   12.3500   59.4550 H   0  0  0  0  0  0  0  0  0  0  0  0
   12.0282   16.5937   60.3342 H   0  0  0  0  0  0  0  0  0  0  0  0
   12.5995   18.8412   59.8100 H   0  0  0  0  0  0  0  0  0  0  0  0
   15.1257   19.2760   58.1461 H   0  0  0  0  0  0  0  0  0  0  0  0
   13.4735   19.1656   57.4135 H   0  0  0  0  0  0  0  0  0  0  0  0
   14.4900   21.3290   58.1600 H   0  0  0  0  0  0  0  0  0  0  0  0
   15.5680   18.3523   60.2804 H   0  0  0  0  0  0  0  0  0  0  0  0
   15.3140   19.9410   61.8420 H   0  0  0  0  0  0  0  0  0  0  0  0
   13.1845   17.9146   62.1435 H   0  0  0  0  0  0  0  0  0  0  0  0
   15.1940   16.6800   63.1490 H   0  0  0  0  0  0  0  0  0  0  0  0
   14.9201   15.7689   60.8126 H   0  0  0  0  0  0  0  0  0  0  0  0
   14.1230   15.3700   62.9410 H   0  0  0  0  0  0  0  0  0  0  0  0
   14.6053   15.0979   58.1369 H   0  0  0  0  0  0  0  0  0  0  0  0
  1  2  2  0
  2  3  1  0
  3  4  1  0
  4  5  2  0
  4  6  1  0
  6  7  1  0
  7  8  1  0
  8  9  1  0
  9 10  1  0
 10 11  1  0
  9 12  1  0
 12 13  1  0
 12 14  1  0
 14 15  1  0
 14 16  1  0
 16 17  1  0
  6 18  1  0
 18 19  2  0
 19 20  1  0
 19  2  1  0
 16  7  1  0
  3 21  1  0
  7 22  1  1
  9 23  1  1
 10 24  1  0
 10 25  1  0
 11 26  1  0
 12 27  1  6
 13 28  1  0
 14 29  1  1
 15 30  1  0
 16 31  1  6
 17 32  1  0
 18 33  1  0
M  END
>  <meeko>  (4) 
{"is_sidechain": [false], "free_energy": -6.652, "intermolecular_energy": -8.162, "internal_energy": -0.672}

$$$$
3syr_ligand
     RDKit          3D

 33 34  0  0  0  0  0  0  0  0999 V2000
    9.4070   10.0090   58.2980 O   0  0  0  0  0  0  0  0  0  0  0  0
   10.1920   10.9250   58.5080 C   0  0  0  0  0  0  0  0  0  0  0  0
   11.1080   11.3370   57.5770 N   0  0  0  0  0  0  0  0  0  0  0  0
   12.0240   12.3520   57.7230 C   0  0  0  0  0  0  0  0  0  0  0  0
   12.8050   12.6060   56.8090 O   0  0  0  0  0  0  0  0  0  0  0  0
   11.9990   13.0130   58.9490 N   0  0  0  0  0  0  0  0  0  0  0  0
   12.8980   14.1570   59.1230 C   0  0  2  0  0  0  0  0  0  0  0  0
   14.2410   13.6670   59.2370 O   0  0  0  0  0  0  0  0  0  0  0  0
   15.2140   14.7240   59.2560 C   0  0  2  0  0  0  0  0  0  0  0  0
   16.6190   14.1010   59.2670 C   0  0  0  0  0  0  0  0  0  0  0  0
   17.2390   14.2370   60.5460 O   0  0  0  0  0  0  0  0  0  0  0  0
   14.9990   15.6090   60.4910 C   0  0  1  0  0  0  0  0  0  0  0  0
   15.8980   16.7190   60.4850 O   0  0  0  0  0  0  0  0  0  0  0  0
   13.5570   16.1260   60.5270 C   0  0  2  0  0  0  0  0  0  0  0  0
   13.3270   16.8390   61.7560 O   0  0  0  0  0  0  0  0  0  0  0  0
   12.5390   14.9920   60.3760 C   0  0  1  0  0  0  0  0  0  0  0  0
   11.2230   15.5460   60.3110 O   0  0  0  0  0  0  0  0  0  0  0  0
   11.0950   12.6670   59.9400 C   0  0  0  0  0  0  0  0  0  0  0  0
   10.2200   11.6760   59.7770 C   0  0  0  0  0  0  0  0  0  0  0  0
    9.3380   11.3290   60.7310 F   0  0  0  0  0  0  0  0  0  0  0  0
   11.1180   10.8470   56.6960 H   0  0  0  0  0  0  0  0  0  0  0  0
   12.7948   14.8179   58.2498 H   0  0  0  0  0  0  0  0  0  0  0  0
   15.1056   15.3556   58.3619 H   0  0  0  0  0  0  0  0  0  0  0  0
   16.5385   13.0321   59.0201 H   0  0  0  0  0  0  0  0  0  0  0  0
   17.2371   14.6275   58.5248 H   0  0  0  0  0  0  0  0  0  0  0  0
   16.8620   15.0200   60.9810 H   0  0  0  0  0  0  0  0  0  0  0  0
   15.1941   14.9975   61.3843 H   0  0  0  0  0  0  0  0  0  0  0  0
   16.1010   16.9250   61.4200 H   0  0  0  0  0  0  0  0  0  0  0  0
   13.4210   16.8059   59.6730 H   0  0  0  0  0  0  0  0  0  0  0  0
   14.1590   16.8610   62.2650 H   0  0  0  0  0  0  0  0  0  0  0  0
   12.5666   14.3166   61.2438 H   0  0  0  0  0  0  0  0  0  0  0  0
   10.8600   15.5410   61.2180 H   0  0  0  0  0  0  0  0  0  0  0  0
   11.0999   13.2259   60.8874 H   0  0  0  0  0  0  0  0  0  0  0  0
  1  2  2  0
  2  3  1  0
  3  4  1  0
  4  5  2  0
  4  6  1  0
  6  7  1  0
  7  8  1  0
  8  9  1  0
  9 10  1  0
 10 11  1  0
  9 12  1  0
 12 13  1  0
 12 14  1  0
 14 15  1  0
 14 16  1  0
 16 17  1  0
  6 18  1  0
 18 19  2  0
 19 20  1  0
 19  2  1  0
 16  7  1  0
  3 21  1  0
  7 22  1  6
  9 23  1  6
 10 24  1  0
 10 25  1  0
 11 26  1  0
 12 27  1  1
 13 28  1  0
 14 29  1  6
 15 30  1  0
 16 31  1  1
 17 32  1  0
 18 33  1  0
M  END
>  <meeko>  (5) 
{"is_sidechain": [false], "free_energy": -6.424, "intermolecular_energy": -8.469, "internal_energy": -0.084}

$$$$
3syr_ligand
     RDKit          3D

 33 34  0  0  0  0  0  0  0  0999 V2000
   18.5220   14.9210   55.8750 O   0  0  0  0  0  0  0  0  0  0  0  0
   17.4080   14.4980   56.1600 C   0  0  0  0  0  0  0  0  0  0  0  0
   16.3350   15.3270   56.3550 N   0  0  0  0  0  0  0  0  0  0  0  0
   15.0540   14.9440   56.6760 C   0  0  0  0  0  0  0  0  0  0  0  0
   14.1840   15.7970   56.8410 O   0  0  0  0  0  0  0  0  0  0  0  0
   14.8520   13.5720   56.8130 N   0  0  0  0  0  0  0  0  0  0  0  0
   13.4860   13.1080   57.0700 C   0  0  2  0  0  0  0  0  0  0  0  0
   13.2240   13.2260   58.4760 O   0  0  0  0  0  0  0  0  0  0  0  0
   11.8550   12.9400   58.8070 C   0  0  2  0  0  0  0  0  0  0  0  0
   11.6470   13.2000   60.3080 C   0  0  0  0  0  0  0  0  0  0  0  0
   10.2720   13.4470   60.6070 O   0  0  0  0  0  0  0  0  0  0  0  0
   11.5260   11.4830   58.4540 C   0  0  1  0  0  0  0  0  0  0  0  0
   10.1470   11.2010   58.6920 O   0  0  0  0  0  0  0  0  0  0  0  0
   11.8520   11.2100   56.9830 C   0  0  2  0  0  0  0  0  0  0  0  0
   11.6710    9.8100   56.6970 O   0  0  0  0  0  0  0  0  0  0  0  0
   13.2770   11.6410   56.6230 C   0  0  1  0  0  0  0  0  0  0  0  0
   13.4840   11.4590   55.2190 O   0  0  0  0  0  0  0  0  0  0  0  0
   15.8810   12.6660   56.6200 C   0  0  0  0  0  0  0  0  0  0  0  0
   17.1160   13.0610   56.3150 C   0  0  0  0  0  0  0  0  0  0  0  0
   18.1260   12.1930   56.1260 F   0  0  0  0  0  0  0  0  0  0  0  0
   16.4960   16.3160   56.2560 H   0  0  0  0  0  0  0  0  0  0  0  0
   12.7905   13.7292   56.4866 H   0  0  0  0  0  0  0  0  0  0  0  0
   11.1807   13.5900   58.2300 H   0  0  0  0  0  0  0  0  0  0  0  0
   11.9841   12.3192   60.8742 H   0  0  0  0  0  0  0  0  0  0  0  0
   12.2286   14.0901   60.5898 H   0  0  0  0  0  0  0  0  0  0  0  0
   10.1640   14.4020   60.7550 H   0  0  0  0  0  0  0  0  0  0  0  0
   12.1382   10.8314   59.0948 H   0  0  0  0  0  0  0  0  0  0  0  0
   10.0680   10.2300   58.7870 H   0  0  0  0  0  0  0  0  0  0  0  0
   11.1622   11.8072   56.3686 H   0  0  0  0  0  0  0  0  0  0  0  0
   12.3320    9.5400   56.0330 H   0  0  0  0  0  0  0  0  0  0  0  0
   14.0218   11.0237   57.1466 H   0  0  0  0  0  0  0  0  0  0  0  0
   13.6740   10.5120   55.0740 H   0  0  0  0  0  0  0  0  0  0  0  0
   15.6730   11.5906   56.7213 H   0  0  0  0  0  0  0  0  0  0  0  0
  1  2  2  0
  2  3  1  0
  3  4  1  0
  4  5  2  0
  4  6  1  0
  6  7  1  0
  7  8  1  0
  8  9  1  0
  9 10  1  0
 10 11  1  0
  9 12  1  0
 12 13  1  0
 12 14  1  0
 14 15  1  0
 14 16  1  0
 16 17  1  0
  6 18  1  0
 18 19  2  0
 19 20  1  0
 19  2  1  0
 16  7  1  0
  3 21  1  0
  7 22  1  6
  9 23  1  6
 10 24  1  0
 10 25  1  0
 11 26  1  0
 12 27  1  1
 13 28  1  0
 14 29  1  6
 15 30  1  0
 16 31  1  1
 17 32  1  0
 18 33  1  0
M  END
>  <meeko>  (6) 
{"is_sidechain": [false], "free_energy": -6.352, "intermolecular_energy": -8.157, "internal_energy": -0.307}

$$$$
3syr_ligand
     RDKit          3D

 33 34  0  0  0  0  0  0  0  0999 V2000
   18.1570   13.8750   55.0620 O   0  0  0  0  0  0  0  0  0  0  0  0
   17.2440   13.7850   55.8730 C   0  0  0  0  0  0  0  0  0  0  0  0
   17.4580   13.8100   57.2270 N   0  0  0  0  0  0  0  0  0  0  0  0
   16.5000   13.7160   58.2080 C   0  0  0  0  0  0  0  0  0  0  0  0
   16.8330   13.7340   59.3910 O   0  0  0  0  0  0  0  0  0  0  0  0
   15.1880   13.5810   57.7580 N   0  0  0  0  0  0  0  0  0  0  0  0
   14.1220   13.5620   58.7640 C   0  0  2  0  0  0  0  0  0  0  0  0
   13.1050   12.6490   58.3300 O   0  0  0  0  0  0  0  0  0  0  0  0
   12.0880   12.4440   59.3250 C   0  0  2  0  0  0  0  0  0  0  0  0
   11.1100   11.3720   58.8160 C   0  0  0  0  0  0  0  0  0  0  0  0
   10.1850   10.9860   59.8340 O   0  0  0  0  0  0  0  0  0  0  0  0
   11.3560   13.7640   59.6030 C   0  0  1  0  0  0  0  0  0  0  0  0
   10.4010   13.6040   60.6520 O   0  0  0  0  0  0  0  0  0  0  0  0
   12.3610   14.8520   59.9940 C   0  0  2  0  0  0  0  0  0  0  0  0
   11.6830   16.1170   60.1180 O   0  0  0  0  0  0  0  0  0  0  0  0
   13.5050   14.9650   58.9820 C   0  0  1  0  0  0  0  0  0  0  0  0
   14.4600   15.9190   59.4540 O   0  0  0  0  0  0  0  0  0  0  0  0
   14.8840   13.5590   56.4070 C   0  0  0  0  0  0  0  0  0  0  0  0
   15.8310   13.6470   55.4740 C   0  0  0  0  0  0  0  0  0  0  0  0
   15.5510   13.6260   54.1580 F   0  0  0  0  0  0  0  0  0  0  0  0
   18.4110   13.9040   57.5380 H   0  0  0  0  0  0  0  0  0  0  0  0
   14.5529   13.2421   59.7242 H   0  0  0  0  0  0  0  0  0  0  0  0
   12.5416   12.1022   60.2670 H   0  0  0  0  0  0  0  0  0  0  0  0
   10.5512   11.7753   57.9587 H   0  0  0  0  0  0  0  0  0  0  0  0
   11.6904   10.4854   58.5209 H   0  0  0  0  0  0  0  0  0  0  0  0
   10.0800   11.7360   60.4430 H   0  0  0  0  0  0  0  0  0  0  0  0
   10.8290   14.0614   58.6844 H   0  0  0  0  0  0  0  0  0  0  0  0
    9.5570   13.3450   60.2300 H   0  0  0  0  0  0  0  0  0  0  0  0
   12.8034   14.5704   60.9609 H   0  0  0  0  0  0  0  0  0  0  0  0
   11.1730   16.2780   59.3020 H   0  0  0  0  0  0  0  0  0  0  0  0
   13.1392   15.3234   58.0085 H   0  0  0  0  0  0  0  0  0  0  0  0
   14.5350   15.8000   60.4210 H   0  0  0  0  0  0  0  0  0  0  0  0
   13.8329   13.4664   56.0961 H   0  0  0  0  0  0  0  0  0  0  0  0
  1  2  2  0
  2  3  1  0
  3  4  1  0
  4  5  2  0
  4  6  1  0
  6  7  1  0
  7  8  1  0
  8  9  1  0
  9 10  1  0
 10 11  1  0
  9 12  1  0
 12 13  1  0
 12 14  1  0
 14 15  1  0
 14 16  1  0
 16 17  1  0
  6 18  1  0
 18 19  2  0
 19 20  1  0
 19  2  1  0
 16  7  1  0
  3 21  1  0
  7 22  1  1
  9 23  1  1
 10 24  1  0
 10 25  1  0
 11 26  1  0
 12 27  1  6
 13 28  1  0
 14 29  1  1
 15 30  1  0
 16 31  1  6
 17 32  1  0
 18 33  1  0
M  END
>  <meeko>  (7) 
{"is_sidechain": [false], "free_energy": -6.259, "intermolecular_energy": -7.699, "internal_energy": -0.651}

$$$$
3syr_ligand
     RDKit          3D

 33 34  0  0  0  0  0  0  0  0999 V2000
   13.9570   18.2100   61.1540 O   0  0  0  0  0  0  0  0  0  0  0  0
   13.8620   17.2990   60.3420 C   0  0  0  0  0  0  0  0  0  0  0  0
   13.9390   17.5080   58.9900 N   0  0  0  0  0  0  0  0  0  0  0  0
   13.8450   16.5510   58.0080 C   0  0  0  0  0  0  0  0  0  0  0  0
   13.9130   16.8800   56.8260 O   0  0  0  0  0  0  0  0  0  0  0  0
   13.6520   15.2460   58.4550 N   0  0  0  0  0  0  0  0  0  0  0  0
   13.6300   14.1790   57.4510 C   0  0  2  0  0  0  0  0  0  0  0  0
   12.7020   13.1720   57.8780 O   0  0  0  0  0  0  0  0  0  0  0  0
   12.4950   12.1560   56.8830 C   0  0  2  0  0  0  0  0  0  0  0  0
   11.4080   11.1900   57.3840 C   0  0  0  0  0  0  0  0  0  0  0  0
   11.0350   10.2560   56.3700 O   0  0  0  0  0  0  0  0  0  0  0  0
   13.8090   11.4090   56.6180 C   0  0  1  0  0  0  0  0  0  0  0  0
   13.6490   10.4540   55.5690 O   0  0  0  0  0  0  0  0  0  0  0  0
   14.9120   12.4010   56.2350 C   0  0  2  0  0  0  0  0  0  0  0  0
   16.1700   11.7090   56.1240 O   0  0  0  0  0  0  0  0  0  0  0  0
   15.0280   13.5460   57.2460 C   0  0  1  0  0  0  0  0  0  0  0  0
   15.9960   14.4900   56.7800 O   0  0  0  0  0  0  0  0  0  0  0  0
   13.5760   14.9470   59.8050 C   0  0  0  0  0  0  0  0  0  0  0  0
   13.6640   15.8930   60.7390 C   0  0  0  0  0  0  0  0  0  0  0  0
   13.5910   15.6170   62.0540 F   0  0  0  0  0  0  0  0  0  0  0  0
   14.0750   18.4570   58.6800 H   0  0  0  0  0  0  0  0  0  0  0  0
   13.3230   14.6124   56.4877 H   0  0  0  0  0  0  0  0  0  0  0  0
   12.1666   12.6121   55.9374 H   0  0  0  0  0  0  0  0  0  0  0  0
   11.7925   10.6387   58.2548 H   0  0  0  0  0  0  0  0  0  0  0  0
   10.5198   11.7788   57.6567 H   0  0  0  0  0  0  0  0  0  0  0  0
   10.1490    9.9180   56.5850 H   0  0  0  0  0  0  0  0  0  0  0  0
   14.0912   10.8804   57.5405 H   0  0  0  0  0  0  0  0  0  0  0  0
   13.6210    9.5710   55.9900 H   0  0  0  0  0  0  0  0  0  0  0  0
   14.6447   12.8444   55.2645 H   0  0  0  0  0  0  0  0  0  0  0  0
   16.8870   12.3270   56.3560 H   0  0  0  0  0  0  0  0  0  0  0  0
   15.3736   13.1779   58.2233 H   0  0  0  0  0  0  0  0  0  0  0  0
   15.5990   15.3780   56.8620 H   0  0  0  0  0  0  0  0  0  0  0  0
   13.4393   13.9003   60.1145 H   0  0  0  0  0  0  0  0  0  0  0  0
  1  2  2  0
  2  3  1  0
  3  4  1  0
  4  5  2  0
  4  6  1  0
  6  7  1  0
  7  8  1  0
  8  9  1  0
  9 10  1  0
 10 11  1  0
  9 12  1  0
 12 13  1  0
 12 14  1  0
 14 15  1  0
 14 16  1  0
 16 17  1  0
  6 18  1  0
 18 19  2  0
 19 20  1  0
 19  2  1  0
 16  7  1  0
  3 21  1  0
  7 22  1  6
  9 23  1  6
 10 24  1  0
 10 25  1  0
 11 26  1  0
 12 27  1  1
 13 28  1  0
 14 29  1  6
 15 30  1  0
 16 31  1  1
 17 32  1  0
 18 33  1  0
M  END
>  <meeko>  (8) 
{"is_sidechain": [false], "free_energy": -6.241, "intermolecular_energy": -7.676, "internal_energy": -0.652}

$$$$
3syr_ligand
     RDKit          3D

 33 34  0  0  0  0  0  0  0  0999 V2000
   12.3730   10.8510   57.0180 O   0  0  0  0  0  0  0  0  0  0  0  0
   12.7850   11.9140   57.4630 C   0  0  0  0  0  0  0  0  0  0  0  0
   13.7730   12.6360   56.8460 N   0  0  0  0  0  0  0  0  0  0  0  0
   14.2970   13.8340   57.2700 C   0  0  0  0  0  0  0  0  0  0  0  0
   15.1980   14.3680   56.6270 O   0  0  0  0  0  0  0  0  0  0  0  0
   13.7540   14.3460   58.4460 N   0  0  0  0  0  0  0  0  0  0  0  0
   14.2190   15.6620   58.8940 C   0  0  2  0  0  0  0  0  0  0  0  0
   14.1070   15.7210   60.3230 O   0  0  0  0  0  0  0  0  0  0  0  0
   14.6840   16.9170   60.8710 C   0  0  2  0  0  0  0  0  0  0  0  0
   14.6170   16.8380   62.4050 C   0  0  0  0  0  0  0  0  0  0  0  0
   13.5140   17.5860   62.9180 O   0  0  0  0  0  0  0  0  0  0  0  0
   13.9260   18.1470   60.3540 C   0  0  1  0  0  0  0  0  0  0  0  0
   14.5370   19.3530   60.8150 O   0  0  0  0  0  0  0  0  0  0  0  0
   13.9010   18.1470   58.8220 C   0  0  2  0  0  0  0  0  0  0  0  0
   13.0730   19.2250   58.3500 O   0  0  0  0  0  0  0  0  0  0  0  0
   13.4020   16.8130   58.2590 C   0  0  1  0  0  0  0  0  0  0  0  0
   13.5010   16.8370   56.8320 O   0  0  0  0  0  0  0  0  0  0  0  0
   12.7430   13.6850   59.1250 C   0  0  0  0  0  0  0  0  0  0  0  0
   12.2550   12.5220   58.6970 C   0  0  0  0  0  0  0  0  0  0  0  0
   11.2750   11.8690   59.3460 F   0  0  0  0  0  0  0  0  0  0  0  0
   14.1590   12.2520   55.9980 H   0  0  0  0  0  0  0  0  0  0  0  0
   15.2644   15.7899   58.5767 H   0  0  0  0  0  0  0  0  0  0  0  0
   15.7346   17.0092   60.5585 H   0  0  0  0  0  0  0  0  0  0  0  0
   14.5058   15.7854   62.7046 H   0  0  0  0  0  0  0  0  0  0  0  0
   15.5446   17.2646   62.8143 H   0  0  0  0  0  0  0  0  0  0  0  0
   13.8650   18.3920   63.3330 H   0  0  0  0  0  0  0  0  0  0  0  0
   12.8973   18.0984   60.7405 H   0  0  0  0  0  0  0  0  0  0  0  0
   13.9840   20.0930   60.4920 H   0  0  0  0  0  0  0  0  0  0  0  0
   14.9325   18.2890   58.4674 H   0  0  0  0  0  0  0  0  0  0  0  0
   12.5280   19.5480   59.0910 H   0  0  0  0  0  0  0  0  0  0  0  0
   12.3440   16.6477   58.5107 H   0  0  0  0  0  0  0  0  0  0  0  0
   13.7140   15.9290   56.5410 H   0  0  0  0  0  0  0  0  0  0  0  0
   12.3325   14.1328   60.0420 H   0  0  0  0  0  0  0  0  0  0  0  0
  1  2  2  0
  2  3  1  0
  3  4  1  0
  4  5  2  0
  4  6  1  0
  6  7  1  0
  7  8  1  0
  8  9  1  0
  9 10  1  0
 10 11  1  0
  9 12  1  0
 12 13  1  0
 12 14  1  0
 14 15  1  0
 14 16  1  0
 16 17  1  0
  6 18  1  0
 18 19  2  0
 19 20  1  0
 19  2  1  0
 16  7  1  0
  3 21  1  0
  7 22  1  1
  9 23  1  1
 10 24  1  0
 10 25  1  0
 11 26  1  0
 12 27  1  1
 13 28  1  0
 14 29  1  6
 15 30  1  0
 16 31  1  6
 17 32  1  0
 18 33  1  0
M  END
>  <meeko>  (9) 
{"is_sidechain": [false], "free_energy": -6.052, "intermolecular_energy": -7.444, "internal_energy": -0.649}

$$$$
