3coy_ligand
     RDKit          3D

 57 59  0  0  0  0  0  0  0  0999 V2000
   13.6900   10.0030    7.9460 C   0  0  0  0  0  0  0  0  0  0  0  0
   14.2810    8.9560    6.9760 C   0  0  0  0  0  0  0  0  0  0  0  0
   14.0200    7.5640    7.5930 C   0  0  0  0  0  0  0  0  0  0  0  0
   13.5200    9.0530    5.6400 C   0  0  0  0  0  0  0  0  0  0  0  0
   15.8120    9.1900    6.8080 C   0  0  1  0  0  0  0  0  0  0  0  0
   16.5960    7.9720    7.2420 N   0  0  0  0  0  0  0  0  0  0  0  0
   16.2190    9.5930    5.3710 C   0  0  0  0  0  0  0  0  0  0  0  0
   16.5100    8.7280    4.5510 O   0  0  0  0  0  0  0  0  0  0  0  0
   16.3060   10.9630    5.1070 N   0  0  0  0  0  0  0  0  0  0  0  0
   16.4690   11.6030    3.5840 S   0  0  0  0  0  0  0  0  0  0  0  0
   17.8360   11.3170    3.2170 O   0  0  0  0  0  0  0  0  0  0  0  0
   15.9680   12.9540    3.6420 O   0  0  0  0  0  0  0  0  0  0  0  0
   15.4710   10.7290    2.6560 O   0  0  0  0  0  0  0  0  0  0  0  0
   14.3910   11.3950    2.0140 C   0  0  0  0  0  0  0  0  0  0  0  0
   13.2290   10.4260    1.7550 C   0  0  1  0  0  0  0  0  0  0  0  0
   12.8330   10.5260    0.3680 O   0  0  0  0  0  0  0  0  0  0  0  0
   13.3190    9.3750   -0.3460 C   0  0  1  0  0  0  0  0  0  0  0  0
   14.1130    9.7840   -1.5020 N   0  0  0  0  0  0  0  0  0  0  0  0
   15.3230   10.4420   -1.4010 C   0  0  0  0  0  0  0  0  0  0  0  0
   15.7750   10.8450   -2.5720 N   0  0  0  0  0  0  0  0  0  0  0  0
   14.8820   10.3060   -3.4730 C   0  0  0  0  0  0  0  0  0  0  0  0
   14.8220   10.4050   -4.8710 C   0  0  0  0  0  0  0  0  0  0  0  0
   15.7970   11.1020   -5.6120 N   0  0  0  0  0  0  0  0  0  0  0  0
   13.7410    9.9370   -5.5130 N   0  0  0  0  0  0  0  0  0  0  0  0
   12.7900    9.3100   -4.7810 C   0  0  0  0  0  0  0  0  0  0  0  0
   12.7460    9.1650   -3.4460 N   0  0  0  0  0  0  0  0  0  0  0  0
   13.8230    9.6850   -2.8380 C   0  0  0  0  0  0  0  0  0  0  0  0
   14.1350    8.5240    0.6420 C   0  0  2  0  0  0  0  0  0  0  0  0
   13.9800    7.1200    0.4300 O   0  0  0  0  0  0  0  0  0  0  0  0
   13.5710    8.9560    1.9820 C   0  0  2  0  0  0  0  0  0  0  0  0
   12.3670    8.2270    2.2550 O   0  0  0  0  0  0  0  0  0  0  0  0
   13.8698    9.6844    8.9834 H   0  0  0  0  0  0  0  0  0  0  0  0
   14.1718   10.9766    7.7727 H   0  0  0  0  0  0  0  0  0  0  0  0
   12.6075   10.0936    7.7727 H   0  0  0  0  0  0  0  0  0  0  0  0
   14.0344    7.6407    8.6902 H   0  0  0  0  0  0  0  0  0  0  0  0
   13.0371    7.1956    7.2641 H   0  0  0  0  0  0  0  0  0  0  0  0
   14.8026    6.8645    7.2641 H   0  0  0  0  0  0  0  0  0  0  0  0
   12.4467    9.1898    5.8385 H   0  0  0  0  0  0  0  0  0  0  0  0
   13.8985    9.9102    5.0638 H   0  0  0  0  0  0  0  0  0  0  0  0
   13.6714    8.1283    5.0638 H   0  0  0  0  0  0  0  0  0  0  0  0
   16.0580   10.0402    7.4612 H   0  0  0  0  0  0  0  0  0  0  0  0
   16.0530    7.2080    7.6530 H   0  0  0  0  0  0  0  0  0  0  0  0
   17.1280    7.5680    6.4430 H   0  0  0  0  0  0  0  0  0  0  0  0
   17.3380    8.2440    7.9160 H   0  0  0  0  0  0  0  0  0  0  0  0
   16.1090   11.6900    5.7880 H   0  0  0  0  0  0  0  0  0  0  0  0
   14.0398   12.2153    2.6572 H   0  0  0  0  0  0  0  0  0  0  0  0
   14.7433   11.7886    1.0491 H   0  0  0  0  0  0  0  0  0  0  0  0
   12.4436   10.7178    2.4678 H   0  0  0  0  0  0  0  0  0  0  0  0
   12.4836    8.7775   -0.7399 H   0  0  0  0  0  0  0  0  0  0  0  0
   15.8503   10.6108   -0.4505 H   0  0  0  0  0  0  0  0  0  0  0  0
   15.5520   11.0070   -6.6040 H   0  0  0  0  0  0  0  0  0  0  0  0
   15.6920   12.0860   -5.3380 H   0  0  0  0  0  0  0  0  0  0  0  0
   11.9558    8.8676   -5.3453 H   0  0  0  0  0  0  0  0  0  0  0  0
   15.2194    8.6794    0.5425 H   0  0  0  0  0  0  0  0  0  0  0  0
   13.9410    6.6920    1.3080 H   0  0  0  0  0  0  0  0  0  0  0  0
   14.2612    8.7866    2.8216 H   0  0  0  0  0  0  0  0  0  0  0  0
   11.8010    8.2730    1.4600 H   0  0  0  0  0  0  0  0  0  0  0  0
  1  2  1  0
  2  3  1  0
  2  4  1  0
  2  5  1  0
  5  6  1  0
  5  7  1  0
  7  8  2  0
  7  9  1  0
  9 10  1  0
 10 11  2  0
 10 12  2  0
 10 13  1  0
 13 14  1  0
 14 15  1  0
 15 16  1  0
 16 17  1  0
 17 18  1  0
 18 19  1  0
 19 20  2  0
 20 21  1  0
 21 22  2  0
 22 23  1  0
 22 24  1  0
 24 25  2  0
 25 26  1  0
 26 27  2  0
 17 28  1  0
 28 29  1  0
 28 30  1  0
 30 31  1  0
 30 15  1  0
 27 18  1  0
 27 21  1  0
  1 32  1  0
  1 33  1  0
  1 34  1  0
  3 35  1  0
  3 36  1  0
  3 37  1  0
  4 38  1  0
  4 39  1  0
  4 40  1  0
  5 41  1  1
  6 42  1  0
  6 43  1  0
  6 44  1  0
  9 45  1  0
 14 46  1  0
 14 47  1  0
 15 48  1  1
 17 49  1  6
 19 50  1  0
 23 51  1  0
 23 52  1  0
 25 53  1  0
 28 54  1  1
 29 55  1  0
 30 56  1  1
 31 57  1  0
M  CHG  1   6   1
M  END
>  <meeko>  (1) 
{"is_sidechain": [false], "free_energy": -9.728, "intermolecular_energy": -14.846, "internal_energy": -0.809}

$$$$
3coy_ligand
     RDKit          3D

 57 59  0  0  0  0  0  0  0  0999 V2000
   22.1220   12.7170    1.2650 C   0  0  0  0  0  0  0  0  0  0  0  0
   21.0290   11.6360    1.4130 C   0  0  0  0  0  0  0  0  0  0  0  0
   21.4640   10.4260    0.5580 C   0  0  0  0  0  0  0  0  0  0  0  0
   20.9780   11.2020    2.8900 C   0  0  0  0  0  0  0  0  0  0  0  0
   19.6630   12.1880    0.9060 C   0  0  1  0  0  0  0  0  0  0  0  0
   19.5950   12.1610   -0.6040 N   0  0  0  0  0  0  0  0  0  0  0  0
   18.4410   11.4470    1.5010 C   0  0  0  0  0  0  0  0  0  0  0  0
   18.0930   10.3660    1.0340 O   0  0  0  0  0  0  0  0  0  0  0  0
   17.7420   12.1080    2.5130 N   0  0  0  0  0  0  0  0  0  0  0  0
   16.5770   11.3890    3.4540 S   0  0  0  0  0  0  0  0  0  0  0  0
   15.9030   12.4920    4.0980 O   0  0  0  0  0  0  0  0  0  0  0  0
   17.2330   10.3540    4.2150 O   0  0  0  0  0  0  0  0  0  0  0  0
   15.5680   10.6860    2.4020 O   0  0  0  0  0  0  0  0  0  0  0  0
   14.3860   11.3850    2.0310 C   0  0  0  0  0  0  0  0  0  0  0  0
   13.2360   10.4060    1.7570 C   0  0  1  0  0  0  0  0  0  0  0  0
   12.8390   10.5210    0.3710 O   0  0  0  0  0  0  0  0  0  0  0  0
   13.3390    9.3860   -0.3580 C   0  0  1  0  0  0  0  0  0  0  0  0
   14.1290    9.8200   -1.5080 N   0  0  0  0  0  0  0  0  0  0  0  0
   15.3090   10.5290   -1.3970 C   0  0  0  0  0  0  0  0  0  0  0  0
   15.7580   10.9430   -2.5660 N   0  0  0  0  0  0  0  0  0  0  0  0
   14.8990   10.3610   -3.4740 C   0  0  0  0  0  0  0  0  0  0  0  0
   14.8520   10.4480   -4.8720 C   0  0  0  0  0  0  0  0  0  0  0  0
   15.8050   11.1810   -5.6080 N   0  0  0  0  0  0  0  0  0  0  0  0
   13.7990    9.9300   -5.5240 N   0  0  0  0  0  0  0  0  0  0  0  0
   12.8660    9.2680   -4.7990 C   0  0  0  0  0  0  0  0  0  0  0  0
   12.8120    9.1300   -3.4630 N   0  0  0  0  0  0  0  0  0  0  0  0
   13.8590    9.7000   -2.8470 C   0  0  0  0  0  0  0  0  0  0  0  0
   14.1640    8.5310    0.6190 C   0  0  2  0  0  0  0  0  0  0  0  0
   14.0270    7.1280    0.3870 O   0  0  0  0  0  0  0  0  0  0  0  0
   13.5950    8.9380    1.9640 C   0  0  2  0  0  0  0  0  0  0  0  0
   12.3990    8.1910    2.2260 O   0  0  0  0  0  0  0  0  0  0  0  0
   22.4522   13.0435    2.2622 H   0  0  0  0  0  0  0  0  0  0  0  0
   22.9777   12.3001    0.7137 H   0  0  0  0  0  0  0  0  0  0  0  0
   21.7146   13.5773    0.7137 H   0  0  0  0  0  0  0  0  0  0  0  0
   21.7616    9.5983    1.2186 H   0  0  0  0  0  0  0  0  0  0  0  0
   20.6250   10.1050   -0.0768 H   0  0  0  0  0  0  0  0  0  0  0  0
   22.3153   10.7127   -0.0768 H   0  0  0  0  0  0  0  0  0  0  0  0
   21.0819   12.0864    3.5358 H   0  0  0  0  0  0  0  0  0  0  0  0
   20.0158   10.7097    3.0945 H   0  0  0  0  0  0  0  0  0  0  0  0
   21.7998   10.5000    3.0945 H   0  0  0  0  0  0  0  0  0  0  0  0
   19.6112   13.2284    1.2595 H   0  0  0  0  0  0  0  0  0  0  0  0
   19.5680   13.0710   -1.0710 H   0  0  0  0  0  0  0  0  0  0  0  0
   20.4040   11.6410   -1.0030 H   0  0  0  0  0  0  0  0  0  0  0  0
   18.7720   11.6100   -0.9170 H   0  0  0  0  0  0  0  0  0  0  0  0
   17.9930   13.0210    2.8810 H   0  0  0  0  0  0  0  0  0  0  0  0
   14.0961   12.0620    2.8481 H   0  0  0  0  0  0  0  0  0  0  0  0
   14.5882   11.9565    1.1131 H   0  0  0  0  0  0  0  0  0  0  0  0
   12.4466   10.6784    2.4730 H   0  0  0  0  0  0  0  0  0  0  0  0
   12.5110    8.7842   -0.7608 H   0  0  0  0  0  0  0  0  0  0  0  0
   15.8170   10.7262   -0.4415 H   0  0  0  0  0  0  0  0  0  0  0  0
   15.8240   10.7920   -6.5570 H   0  0  0  0  0  0  0  0  0  0  0  0
   15.4360   12.1380   -5.6480 H   0  0  0  0  0  0  0  0  0  0  0  0
   12.0582    8.7872   -5.3701 H   0  0  0  0  0  0  0  0  0  0  0  0
   15.2466    8.7005    0.5227 H   0  0  0  0  0  0  0  0  0  0  0  0
   13.0760    6.9100    0.4540 H   0  0  0  0  0  0  0  0  0  0  0  0
   14.2868    8.7654    2.8016 H   0  0  0  0  0  0  0  0  0  0  0  0
   12.5180    7.2940    1.8570 H   0  0  0  0  0  0  0  0  0  0  0  0
  1  2  1  0
  2  3  1  0
  2  4  1  0
  2  5  1  0
  5  6  1  0
  5  7  1  0
  7  8  2  0
  7  9  1  0
  9 10  1  0
 10 11  2  0
 10 12  2  0
 10 13  1  0
 13 14  1  0
 14 15  1  0
 15 16  1  0
 16 17  1  0
 17 18  1  0
 18 19  1  0
 19 20  2  0
 20 21  1  0
 21 22  2  0
 22 23  1  0
 22 24  1  0
 24 25  2  0
 25 26  1  0
 26 27  2  0
 17 28  1  0
 28 29  1  0
 28 30  1  0
 30 31  1  0
 30 15  1  0
 27 18  1  0
 27 21  1  0
  1 32  1  0
  1 33  1  0
  1 34  1  0
  3 35  1  0
  3 36  1  0
  3 37  1  0
  4 38  1  0
  4 39  1  0
  4 40  1  0
  5 41  1  1
  6 42  1  0
  6 43  1  0
  6 44  1  0
  9 45  1  0
 14 46  1  0
 14 47  1  0
 15 48  1  1
 17 49  1  6
 19 50  1  0
 23 51  1  0
 23 52  1  0
 25 53  1  0
 28 54  1  1
 29 55  1  0
 30 56  1  1
 31 57  1  0
M  CHG  1   6   1
M  END
>  <meeko>  (2) 
{"is_sidechain": [false], "free_energy": -9.077, "intermolecular_energy": -13.82, "internal_energy": -0.842}

$$$$
3coy_ligand
     RDKit          3D

 57 59  0  0  0  0  0  0  0  0999 V2000
   13.4930    8.3340    6.8810 C   0  0  0  0  0  0  0  0  0  0  0  0
   14.6670    9.2820    6.5470 C   0  0  0  0  0  0  0  0  0  0  0  0
   14.2760   10.6880    7.0530 C   0  0  0  0  0  0  0  0  0  0  0  0
   15.9070    8.8050    7.3270 C   0  0  0  0  0  0  0  0  0  0  0  0
   14.9050    9.3120    5.0080 C   0  0  1  0  0  0  0  0  0  0  0  0
   14.0360   10.3570    4.3460 N   0  0  0  0  0  0  0  0  0  0  0  0
   16.3860    9.5370    4.6190 C   0  0  0  0  0  0  0  0  0  0  0  0
   16.8460   10.6740    4.5920 O   0  0  0  0  0  0  0  0  0  0  0  0
   17.1110    8.4050    4.2380 N   0  0  0  0  0  0  0  0  0  0  0  0
   18.7590    8.3860    4.0380 S   0  0  0  0  0  0  0  0  0  0  0  0
   19.0800    6.9940    3.8220 O   0  0  0  0  0  0  0  0  0  0  0  0
   19.3230    9.1300    5.1380 O   0  0  0  0  0  0  0  0  0  0  0  0
   19.0230    9.2140    2.6730 O   0  0  0  0  0  0  0  0  0  0  0  0
   19.7580   10.4290    2.7540 C   0  0  0  0  0  0  0  0  0  0  0  0
   20.3150   10.8220    1.3780 C   0  0  1  0  0  0  0  0  0  0  0  0
   19.4410   10.3010    0.3500 O   0  0  0  0  0  0  0  0  0  0  0  0
   18.6590   11.3790   -0.1940 C   0  0  1  0  0  0  0  0  0  0  0  0
   17.2330   11.0670   -0.1190 N   0  0  0  0  0  0  0  0  0  0  0  0
   16.5680   10.8250    1.0660 C   0  0  0  0  0  0  0  0  0  0  0  0
   15.3300   10.4140    0.8730 N   0  0  0  0  0  0  0  0  0  0  0  0
   15.1550   10.5260   -0.4900 C   0  0  0  0  0  0  0  0  0  0  0  0
   14.0510   10.2170   -1.2980 C   0  0  0  0  0  0  0  0  0  0  0  0
   12.8370    9.7470   -0.7560 N   0  0  0  0  0  0  0  0  0  0  0  0
   14.1900   10.2420   -2.6320 N   0  0  0  0  0  0  0  0  0  0  0  0
   15.3780   10.6520   -3.1380 C   0  0  0  0  0  0  0  0  0  0  0  0
   16.4950   10.9650   -2.4590 N   0  0  0  0  0  0  0  0  0  0  0  0
   16.3260   10.8850   -1.1310 C   0  0  0  0  0  0  0  0  0  0  0  0
   19.0120   12.6540    0.5890 C   0  0  2  0  0  0  0  0  0  0  0  0
   19.0300   13.8260   -0.2280 O   0  0  0  0  0  0  0  0  0  0  0  0
   20.3890   12.3270    1.1340 C   0  0  2  0  0  0  0  0  0  0  0  0
   21.3790   12.5950    0.1320 O   0  0  0  0  0  0  0  0  0  0  0  0
   13.3888    8.2499    7.9728 H   0  0  0  0  0  0  0  0  0  0  0  0
   12.5630    8.7375    6.4540 H   0  0  0  0  0  0  0  0  0  0  0  0
   13.6915    7.3399    6.4540 H   0  0  0  0  0  0  0  0  0  0  0  0
   14.2742   10.6944    8.1530 H   0  0  0  0  0  0  0  0  0  0  0  0
   15.0030   11.4261    6.6832 H   0  0  0  0  0  0  0  0  0  0  0  0
   13.2724   10.9448    6.6832 H   0  0  0  0  0  0  0  0  0  0  0  0
   15.7121    8.8800    8.4070 H   0  0  0  0  0  0  0  0  0  0  0  0
   16.1247    7.7590    7.0655 H   0  0  0  0  0  0  0  0  0  0  0  0
   16.7696    9.4355    7.0655 H   0  0  0  0  0  0  0  0  0  0  0  0
   14.6247    8.3130    4.6428 H   0  0  0  0  0  0  0  0  0  0  0  0
   13.1200   10.5190    4.7740 H   0  0  0  0  0  0  0  0  0  0  0  0
   14.5200   11.2780    4.3140 H   0  0  0  0  0  0  0  0  0  0  0  0
   13.8910   10.1220    3.3450 H   0  0  0  0  0  0  0  0  0  0  0  0
   16.7310    7.4620    4.2160 H   0  0  0  0  0  0  0  0  0  0  0  0
   19.0947   11.2283    3.1163 H   0  0  0  0  0  0  0  0  0  0  0  0
   20.5998   10.2863    3.4475 H   0  0  0  0  0  0  0  0  0  0  0  0
   21.3351   10.4113    1.3497 H   0  0  0  0  0  0  0  0  0  0  0  0
   18.8886   11.5304   -1.2591 H   0  0  0  0  0  0  0  0  0  0  0  0
   17.0200   10.9598    2.0598 H   0  0  0  0  0  0  0  0  0  0  0  0
   12.4460    9.0720   -1.4240 H   0  0  0  0  0  0  0  0  0  0  0  0
   13.1000    9.2500    0.1020 H   0  0  0  0  0  0  0  0  0  0  0  0
   15.4352   10.7389   -4.2331 H   0  0  0  0  0  0  0  0  0  0  0  0
   18.2699   12.8953    1.3643 H   0  0  0  0  0  0  0  0  0  0  0  0
   19.8860   13.8420   -0.7000 H   0  0  0  0  0  0  0  0  0  0  0  0
   20.6541   12.9085    2.0293 H   0  0  0  0  0  0  0  0  0  0  0  0
   21.2170   11.9930   -0.6200 H   0  0  0  0  0  0  0  0  0  0  0  0
  1  2  1  0
  2  3  1  0
  2  4  1  0
  2  5  1  0
  5  6  1  0
  5  7  1  0
  7  8  2  0
  7  9  1  0
  9 10  1  0
 10 11  2  0
 10 12  2  0
 10 13  1  0
 13 14  1  0
 14 15  1  0
 15 16  1  0
 16 17  1  0
 17 18  1  0
 18 19  1  0
 19 20  2  0
 20 21  1  0
 21 22  2  0
 22 23  1  0
 22 24  1  0
 24 25  2  0
 25 26  1  0
 26 27  2  0
 17 28  1  0
 28 29  1  0
 28 30  1  0
 30 31  1  0
 30 15  1  0
 27 18  1  0
 27 21  1  0
  1 32  1  0
  1 33  1  0
  1 34  1  0
  3 35  1  0
  3 36  1  0
  3 37  1  0
  4 38  1  0
  4 39  1  0
  4 40  1  0
  5 41  1  6
  6 42  1  0
  6 43  1  0
  6 44  1  0
  9 45  1  0
 14 46  1  0
 14 47  1  0
 15 48  1  6
 17 49  1  6
 19 50  1  0
 23 51  1  0
 23 52  1  0
 25 53  1  0
 28 54  1  1
 29 55  1  0
 30 56  1  1
 31 57  1  0
M  CHG  1   6   1
M  END
>  <meeko>  (3) 
{"is_sidechain": [false], "free_energy": -8.77, "intermolecular_energy": -12.96, "internal_energy": -1.232}

$$$$
3coy_ligand
     RDKit          3D

 57 59  0  0  0  0  0  0  0  0999 V2000
   13.9830   10.5860    7.0660 C   0  0  0  0  0  0  0  0  0  0  0  0
   15.0230    9.6090    7.6570 C   0  0  0  0  0  0  0  0  0  0  0  0
   15.4600   10.1800    9.0240 C   0  0  0  0  0  0  0  0  0  0  0  0
   14.3320    8.2520    7.8890 C   0  0  0  0  0  0  0  0  0  0  0  0
   16.2500    9.4980    6.7050 C   0  0  1  0  0  0  0  0  0  0  0  0
   16.8820    8.1280    6.7930 N   0  0  0  0  0  0  0  0  0  0  0  0
   15.9180    9.8300    5.2300 C   0  0  0  0  0  0  0  0  0  0  0  0
   15.1380    9.1190    4.6040 O   0  0  0  0  0  0  0  0  0  0  0  0
   16.6020   10.9070    4.6630 N   0  0  0  0  0  0  0  0  0  0  0  0
   16.2090   11.5850    3.1980 S   0  0  0  0  0  0  0  0  0  0  0  0
   15.1580   12.5260    3.5070 O   0  0  0  0  0  0  0  0  0  0  0  0
   16.0030   10.4960    2.2750 O   0  0  0  0  0  0  0  0  0  0  0  0
   17.5360   12.3930    2.7440 O   0  0  0  0  0  0  0  0  0  0  0  0
   18.2070   11.9770    1.5620 C   0  0  0  0  0  0  0  0  0  0  0  0
   19.7260   12.1480    1.7070 C   0  0  1  0  0  0  0  0  0  0  0  0
   20.1820   11.3670    2.8360 O   0  0  0  0  0  0  0  0  0  0  0  0
   20.8460   10.1850    2.3540 C   0  0  1  0  0  0  0  0  0  0  0  0
   20.2540    8.9860    2.9430 N   0  0  0  0  0  0  0  0  0  0  0  0
   19.0300    8.9770    3.5820 C   0  0  0  0  0  0  0  0  0  0  0  0
   18.7770    7.8220    4.1660 N   0  0  0  0  0  0  0  0  0  0  0  0
   19.8240    7.0170    3.7710 C   0  0  0  0  0  0  0  0  0  0  0  0
   20.1210    5.6830    4.0880 C   0  0  0  0  0  0  0  0  0  0  0  0
   19.2730    4.9010    4.8970 N   0  0  0  0  0  0  0  0  0  0  0  0
   21.3070    5.1730    3.7210 N   0  0  0  0  0  0  0  0  0  0  0  0
   22.1320    5.9530    2.9820 C   0  0  0  0  0  0  0  0  0  0  0  0
   21.9490    7.2370    2.6290 N   0  0  0  0  0  0  0  0  0  0  0  0
   20.7720    7.7220    3.0530 C   0  0  0  0  0  0  0  0  0  0  0  0
   20.7430   10.1850    0.8200 C   0  0  2  0  0  0  0  0  0  0  0  0
   21.9130    9.6710    0.1810 O   0  0  0  0  0  0  0  0  0  0  0  0
   20.5340   11.6550    0.5100 C   0  0  2  0  0  0  0  0  0  0  0  0
   21.8000   12.3270    0.4850 O   0  0  0  0  0  0  0  0  0  0  0  0
   13.4469   11.0897    7.8839 H   0  0  0  0  0  0  0  0  0  0  0  0
   14.4957   11.3367    6.4466 H   0  0  0  0  0  0  0  0  0  0  0  0
   13.2658   10.0275    6.4466 H   0  0  0  0  0  0  0  0  0  0  0  0
   15.0059    9.5867    9.8313 H   0  0  0  0  0  0  0  0  0  0  0  0
   16.5559   10.1341    9.1071 H   0  0  0  0  0  0  0  0  0  0  0  0
   15.1294   11.2259    9.1071 H   0  0  0  0  0  0  0  0  0  0  0  0
   14.2384    8.0682    8.9695 H   0  0  0  0  0  0  0  0  0  0  0  0
   13.3317    8.2669    7.4316 H   0  0  0  0  0  0  0  0  0  0  0  0
   14.9324    7.4518    7.4316 H   0  0  0  0  0  0  0  0  0  0  0  0
   16.9656   10.2581    7.0518 H   0  0  0  0  0  0  0  0  0  0  0  0
   17.2250    7.7310    5.9150 H   0  0  0  0  0  0  0  0  0  0  0  0
   17.6850    8.1300    7.4560 H   0  0  0  0  0  0  0  0  0  0  0  0
   16.2170    7.4520    7.2170 H   0  0  0  0  0  0  0  0  0  0  0  0
   17.2810   11.4790    5.1570 H   0  0  0  0  0  0  0  0  0  0  0  0
   17.9800   10.9175    1.3726 H   0  0  0  0  0  0  0  0  0  0  0  0
   17.8611   12.5991    0.7233 H   0  0  0  0  0  0  0  0  0  0  0  0
   19.8866   13.2307    1.8163 H   0  0  0  0  0  0  0  0  0  0  0  0
   21.9058   10.1840    2.6487 H   0  0  0  0  0  0  0  0  0  0  0  0
   18.3435    9.8362    3.6017 H   0  0  0  0  0  0  0  0  0  0  0  0
   19.0470    5.4560    5.7300 H   0  0  0  0  0  0  0  0  0  0  0  0
   18.4180    4.7700    4.3440 H   0  0  0  0  0  0  0  0  0  0  0  0
   23.0605    5.4802    2.6295 H   0  0  0  0  0  0  0  0  0  0  0  0
   19.9402    9.5311    0.4486 H   0  0  0  0  0  0  0  0  0  0  0  0
   22.4030   10.4300   -0.1910 H   0  0  0  0  0  0  0  0  0  0  0  0
   20.0439   11.8318   -0.4588 H   0  0  0  0  0  0  0  0  0  0  0  0
   22.3650   11.9290    1.1770 H   0  0  0  0  0  0  0  0  0  0  0  0
  1  2  1  0
  2  3  1  0
  2  4  1  0
  2  5  1  0
  5  6  1  0
  5  7  1  0
  7  8  2  0
  7  9  1  0
  9 10  1  0
 10 11  2  0
 10 12  2  0
 10 13  1  0
 13 14  1  0
 14 15  1  0
 15 16  1  0
 16 17  1  0
 17 18  1  0
 18 19  1  0
 19 20  2  0
 20 21  1  0
 21 22  2  0
 22 23  1  0
 22 24  1  0
 24 25  2  0
 25 26  1  0
 26 27  2  0
 17 28  1  0
 28 29  1  0
 28 30  1  0
 30 31  1  0
 30 15  1  0
 27 18  1  0
 27 21  1  0
  1 32  1  0
  1 33  1  0
  1 34  1  0
  3 35  1  0
  3 36  1  0
  3 37  1  0
  4 38  1  0
  4 39  1  0
  4 40  1  0
  5 41  1  1
  6 42  1  0
  6 43  1  0
  6 44  1  0
  9 45  1  0
 14 46  1  0
 14 47  1  0
 15 48  1  1
 17 49  1  6
 19 50  1  0
 23 51  1  0
 23 52  1  0
 25 53  1  0
 28 54  1  1
 29 55  1  0
 30 56  1  6
 31 57  1  0
M  CHG  1   6   1
M  END
>  <meeko>  (4) 
{"is_sidechain": [false], "free_energy": -8.632, "intermolecular_energy": -12.751, "internal_energy": -1.232}

$$$$
3coy_ligand
     RDKit          3D

 57 59  0  0  0  0  0  0  0  0999 V2000
   12.9870    9.6840    9.6580 C   0  0  0  0  0  0  0  0  0  0  0  0
   14.3090   10.2590    9.1040 C   0  0  0  0  0  0  0  0  0  0  0  0
   13.9380   11.3530    8.0780 C   0  0  0  0  0  0  0  0  0  0  0  0
   15.0740   10.9160   10.2690 C   0  0  0  0  0  0  0  0  0  0  0  0
   15.1310    9.1320    8.4120 C   0  0  1  0  0  0  0  0  0  0  0  0
   14.7720    7.7760    8.9750 N   0  0  0  0  0  0  0  0  0  0  0  0
   14.9820    9.1180    6.8710 C   0  0  0  0  0  0  0  0  0  0  0  0
   13.9920    8.6060    6.3570 O   0  0  0  0  0  0  0  0  0  0  0  0
   16.0490    9.6380    6.1350 N   0  0  0  0  0  0  0  0  0  0  0  0
   15.9820    9.9530    4.5060 S   0  0  0  0  0  0  0  0  0  0  0  0
   15.3580   11.2520    4.4160 O   0  0  0  0  0  0  0  0  0  0  0  0
   15.4040    8.7900    3.8780 O   0  0  0  0  0  0  0  0  0  0  0  0
   17.5280   10.0680    4.0410 O   0  0  0  0  0  0  0  0  0  0  0  0
   17.9290    9.3850    2.8590 C   0  0  0  0  0  0  0  0  0  0  0  0
   19.0970   10.1120    2.1780 C   0  0  1  0  0  0  0  0  0  0  0  0
   18.9990    9.9230    0.7470 O   0  0  0  0  0  0  0  0  0  0  0  0
   18.5210   11.1380    0.1430 C   0  0  1  0  0  0  0  0  0  0  0  0
   17.3370   10.8750   -0.6720 N   0  0  0  0  0  0  0  0  0  0  0  0
   17.3500   10.8650   -2.0530 C   0  0  0  0  0  0  0  0  0  0  0  0
   16.1390   10.7610   -2.5660 N   0  0  0  0  0  0  0  0  0  0  0  0
   15.3310   10.5640   -1.4670 C   0  0  0  0  0  0  0  0  0  0  0  0
   13.9410   10.4070   -1.3710 C   0  0  0  0  0  0  0  0  0  0  0  0
   13.1120   10.3820   -2.5100 N   0  0  0  0  0  0  0  0  0  0  0  0
   13.3650   10.4120   -0.1590 N   0  0  0  0  0  0  0  0  0  0  0  0
   14.1720   10.4830    0.9270 C   0  0  0  0  0  0  0  0  0  0  0  0
   15.5060   10.6390    0.9480 N   0  0  0  0  0  0  0  0  0  0  0  0
   16.0380   10.6740   -0.2830 C   0  0  0  0  0  0  0  0  0  0  0  0
   18.2320   12.1390    1.2740 C   0  0  2  0  0  0  0  0  0  0  0  0
   18.5550   13.4860    0.9240 O   0  0  0  0  0  0  0  0  0  0  0  0
   19.1120   11.6220    2.3950 C   0  0  2  0  0  0  0  0  0  0  0  0
   20.4490   12.1120    2.2220 O   0  0  0  0  0  0  0  0  0  0  0  0
   13.0143    9.6959   10.7576 H   0  0  0  0  0  0  0  0  0  0  0  0
   12.1443   10.2969    9.3055 H   0  0  0  0  0  0  0  0  0  0  0  0
   12.8608    8.6497    9.3055 H   0  0  0  0  0  0  0  0  0  0  0  0
   13.6288   12.2648    8.6099 H   0  0  0  0  0  0  0  0  0  0  0  0
   14.8111   11.5750    7.4468 H   0  0  0  0  0  0  0  0  0  0  0  0
   13.1100   10.9981    7.4468 H   0  0  0  0  0  0  0  0  0  0  0  0
   14.6612   10.5615   11.2250 H   0  0  0  0  0  0  0  0  0  0  0  0
   16.1386   10.6464   10.2069 H   0  0  0  0  0  0  0  0  0  0  0  0
   14.9683   12.0091   10.2069 H   0  0  0  0  0  0  0  0  0  0  0  0
   16.1857    9.3553    8.6304 H   0  0  0  0  0  0  0  0  0  0  0  0
   15.2010    6.9690    8.5160 H   0  0  0  0  0  0  0  0  0  0  0  0
   15.0200    7.7150    9.9850 H   0  0  0  0  0  0  0  0  0  0  0  0
   13.7420    7.6460    8.9680 H   0  0  0  0  0  0  0  0  0  0  0  0
   16.8930   10.0270    6.5470 H   0  0  0  0  0  0  0  0  0  0  0  0
   18.2437    8.3642    3.1217 H   0  0  0  0  0  0  0  0  0  0  0  0
   17.0779    9.3565    2.1627 H   0  0  0  0  0  0  0  0  0  0  0  0
   20.0060    9.6839    2.6257 H   0  0  0  0  0  0  0  0  0  0  0  0
   19.2765   11.5618   -0.5350 H   0  0  0  0  0  0  0  0  0  0  0  0
   18.2666   10.9358   -2.6570 H   0  0  0  0  0  0  0  0  0  0  0  0
   12.8570    9.4030   -2.6820 H   0  0  0  0  0  0  0  0  0  0  0  0
   12.2690   10.9020   -2.2410 H   0  0  0  0  0  0  0  0  0  0  0  0
   13.6768   10.4036    1.9060 H   0  0  0  0  0  0  0  0  0  0  0  0
   17.1642   12.1918    1.5328 H   0  0  0  0  0  0  0  0  0  0  0  0
   18.8370   13.9430    1.7410 H   0  0  0  0  0  0  0  0  0  0  0  0
   18.7710   11.9284    3.3949 H   0  0  0  0  0  0  0  0  0  0  0  0
   20.9780   11.8190    2.9890 H   0  0  0  0  0  0  0  0  0  0  0  0
  1  2  1  0
  2  3  1  0
  2  4  1  0
  2  5  1  0
  5  6  1  0
  5  7  1  0
  7  8  2  0
  7  9  1  0
  9 10  1  0
 10 11  2  0
 10 12  2  0
 10 13  1  0
 13 14  1  0
 14 15  1  0
 15 16  1  0
 16 17  1  0
 17 18  1  0
 18 19  1  0
 19 20  2  0
 20 21  1  0
 21 22  2  0
 22 23  1  0
 22 24  1  0
 24 25  2  0
 25 26  1  0
 26 27  2  0
 17 28  1  0
 28 29  1  0
 28 30  1  0
 30 31  1  0
 30 15  1  0
 27 18  1  0
 27 21  1  0
  1 32  1  0
  1 33  1  0
  1 34  1  0
  3 35  1  0
  3 36  1  0
  3 37  1  0
  4 38  1  0
  4 39  1  0
  4 40  1  0
  5 41  1  6
  6 42  1  0
  6 43  1  0
  6 44  1  0
  9 45  1  0
 14 46  1  0
 14 47  1  0
 15 48  1  1
 17 49  1  6
 19 50  1  0
 23 51  1  0
 23 52  1  0
 25 53  1  0
 28 54  1  1
 29 55  1  0
 30 56  1  1
 31 57  1  0
M  CHG  1   6   1
M  END
>  <meeko>  (5) 
{"is_sidechain": [false], "free_energy": -8.533, "intermolecular_energy": -13.237, "internal_energy": -0.595}

$$$$
3coy_ligand
     RDKit          3D

 57 59  0  0  0  0  0  0  0  0999 V2000
   25.8600    5.4440    4.5030 C   0  0  0  0  0  0  0  0  0  0  0  0
   24.4850    5.3260    5.1990 C   0  0  0  0  0  0  0  0  0  0  0  0
   24.3610    3.8770    5.7210 C   0  0  0  0  0  0  0  0  0  0  0  0
   24.4710    6.2860    6.4030 C   0  0  0  0  0  0  0  0  0  0  0  0
   23.3460    5.6290    4.1800 C   0  0  1  0  0  0  0  0  0  0  0  0
   22.1980    4.6610    4.3500 N   0  0  0  0  0  0  0  0  0  0  0  0
   22.8240    7.0840    4.2560 C   0  0  0  0  0  0  0  0  0  0  0  0
   23.5640    8.0160    3.9550 O   0  0  0  0  0  0  0  0  0  0  0  0
   21.5290    7.2580    4.7480 N   0  0  0  0  0  0  0  0  0  0  0  0
   20.6930    8.6910    4.6670 S   0  0  0  0  0  0  0  0  0  0  0  0
   21.5490    9.6450    5.3330 O   0  0  0  0  0  0  0  0  0  0  0  0
   19.3540    8.4210    5.1320 O   0  0  0  0  0  0  0  0  0  0  0  0
   20.6240    9.0430    3.0890 O   0  0  0  0  0  0  0  0  0  0  0  0
   20.0280   10.2750    2.6990 C   0  0  0  0  0  0  0  0  0  0  0  0
   20.5520   10.7250    1.3280 C   0  0  1  0  0  0  0  0  0  0  0  0
   19.6580   10.2420    0.3000 O   0  0  0  0  0  0  0  0  0  0  0  0
   18.8600   11.3370   -0.1830 C   0  0  1  0  0  0  0  0  0  0  0  0
   17.4370   11.0180   -0.0890 N   0  0  0  0  0  0  0  0  0  0  0  0
   16.7940   10.7480    1.1030 C   0  0  0  0  0  0  0  0  0  0  0  0
   15.5550   10.3350    0.9230 N   0  0  0  0  0  0  0  0  0  0  0  0
   15.3550   10.4740   -0.4340 C   0  0  0  0  0  0  0  0  0  0  0  0
   14.2390   10.1760   -1.2280 C   0  0  0  0  0  0  0  0  0  0  0  0
   13.0370    9.6890   -0.6750 N   0  0  0  0  0  0  0  0  0  0  0  0
   14.3540   10.2290   -2.5640 N   0  0  0  0  0  0  0  0  0  0  0  0
   15.5310   10.6550   -3.0820 C   0  0  0  0  0  0  0  0  0  0  0  0
   16.6580   10.9600   -2.4170 N   0  0  0  0  0  0  0  0  0  0  0  0
   16.5130   10.8510   -1.0880 C   0  0  0  0  0  0  0  0  0  0  0  0
   19.2270   12.5810    0.6430 C   0  0  2  0  0  0  0  0  0  0  0  0
   19.2230   13.7850   -0.1270 O   0  0  0  0  0  0  0  0  0  0  0  0
   20.6160   12.2380    1.1440 C   0  0  2  0  0  0  0  0  0  0  0  0
   21.5830   12.5510    0.1320 O   0  0  0  0  0  0  0  0  0  0  0  0
   26.6515    5.5119    5.2639 H   0  0  0  0  0  0  0  0  0  0  0  0
   26.0303    4.5572    3.8749 H   0  0  0  0  0  0  0  0  0  0  0  0
   25.8767    6.3469    3.8749 H   0  0  0  0  0  0  0  0  0  0  0  0
   24.3614    3.8822    6.8210 H   0  0  0  0  0  0  0  0  0  0  0  0
   23.4218    3.4352    5.3568 H   0  0  0  0  0  0  0  0  0  0  0  0
   25.2115    3.2820    5.3568 H   0  0  0  0  0  0  0  0  0  0  0  0
   24.4795    5.7038    7.3363 H   0  0  0  0  0  0  0  0  0  0  0  0
   25.3598    6.9331    6.3664 H   0  0  0  0  0  0  0  0  0  0  0  0
   23.5637    6.9069    6.3664 H   0  0  0  0  0  0  0  0  0  0  0  0
   23.7931    5.5005    3.1832 H   0  0  0  0  0  0  0  0  0  0  0  0
   22.3390    3.9060    5.0250 H   0  0  0  0  0  0  0  0  0  0  0  0
   21.3290    5.1600    4.6340 H   0  0  0  0  0  0  0  0  0  0  0  0
   21.9470    4.2370    3.4350 H   0  0  0  0  0  0  0  0  0  0  0  0
   20.9200    6.4980    5.0410 H   0  0  0  0  0  0  0  0  0  0  0  0
   18.9370   10.1460    2.6433 H   0  0  0  0  0  0  0  0  0  0  0  0
   20.2857   11.0424    3.4438 H   0  0  0  0  0  0  0  0  0  0  0  0
   21.5724   10.3198    1.2599 H   0  0  0  0  0  0  0  0  0  0  0  0
   19.0646   11.5305   -1.2464 H   0  0  0  0  0  0  0  0  0  0  0  0
   17.2628   10.8644    2.0913 H   0  0  0  0  0  0  0  0  0  0  0  0
   12.4050   10.4900   -0.5640 H   0  0  0  0  0  0  0  0  0  0  0  0
   12.6500    9.0570   -1.3860 H   0  0  0  0  0  0  0  0  0  0  0  0
   15.5685   10.7641   -4.1759 H   0  0  0  0  0  0  0  0  0  0  0  0
   18.5020   12.7882    1.4439 H   0  0  0  0  0  0  0  0  0  0  0  0
   20.1230   13.9050   -0.4900 H   0  0  0  0  0  0  0  0  0  0  0  0
   20.8991   12.7835    2.0563 H   0  0  0  0  0  0  0  0  0  0  0  0
   22.2500   13.1450    0.5270 H   0  0  0  0  0  0  0  0  0  0  0  0
  1  2  1  0
  2  3  1  0
  2  4  1  0
  2  5  1  0
  5  6  1  0
  5  7  1  0
  7  8  2  0
  7  9  1  0
  9 10  1  0
 10 11  2  0
 10 12  2  0
 10 13  1  0
 13 14  1  0
 14 15  1  0
 15 16  1  0
 16 17  1  0
 17 18  1  0
 18 19  1  0
 19 20  2  0
 20 21  1  0
 21 22  2  0
 22 23  1  0
 22 24  1  0
 24 25  2  0
 25 26  1  0
 26 27  2  0
 17 28  1  0
 28 29  1  0
 28 30  1  0
 30 31  1  0
 30 15  1  0
 27 18  1  0
 27 21  1  0
  1 32  1  0
  1 33  1  0
  1 34  1  0
  3 35  1  0
  3 36  1  0
  3 37  1  0
  4 38  1  0
  4 39  1  0
  4 40  1  0
  5 41  1  6
  6 42  1  0
  6 43  1  0
  6 44  1  0
  9 45  1  0
 14 46  1  0
 14 47  1  0
 15 48  1  6
 17 49  1  6
 19 50  1  0
 23 51  1  0
 23 52  1  0
 25 53  1  0
 28 54  1  1
 29 55  1  0
 30 56  1  1
 31 57  1  0
M  CHG  1   6   1
M  END
>  <meeko>  (6) 
{"is_sidechain": [false], "free_energy": -8.483, "intermolecular_energy": -13.26, "internal_energy": -0.494}

$$$$
3coy_ligand
     RDKit          3D

 57 59  0  0  0  0  0  0  0  0999 V2000
   13.7510   10.7140    7.5080 C   0  0  0  0  0  0  0  0  0  0  0  0
   14.8370    9.7610    8.0550 C   0  0  0  0  0  0  0  0  0  0  0  0
   15.6080   10.5290    9.1510 C   0  0  0  0  0  0  0  0  0  0  0  0
   14.1350    8.5520    8.7020 C   0  0  0  0  0  0  0  0  0  0  0  0
   15.8060    9.3450    6.9090 C   0  0  1  0  0  0  0  0  0  0  0  0
   16.5500    8.0780    7.2630 N   0  0  0  0  0  0  0  0  0  0  0  0
   15.1040    9.1780    5.5390 C   0  0  0  0  0  0  0  0  0  0  0  0
   14.1460    8.4180    5.4310 O   0  0  0  0  0  0  0  0  0  0  0  0
   15.6660    9.8640    4.4610 N   0  0  0  0  0  0  0  0  0  0  0  0
   14.9280   10.0280    2.9820 S   0  0  0  0  0  0  0  0  0  0  0  0
   13.6920   10.7180    3.2710 O   0  0  0  0  0  0  0  0  0  0  0  0
   14.9410    8.7260    2.3610 O   0  0  0  0  0  0  0  0  0  0  0  0
   15.9020   11.0060    2.1370 O   0  0  0  0  0  0  0  0  0  0  0  0
   17.0010   11.6080    2.8090 C   0  0  0  0  0  0  0  0  0  0  0  0
   17.9290   12.3170    1.8130 C   0  0  1  0  0  0  0  0  0  0  0  0
   19.2990   12.1530    2.2460 O   0  0  0  0  0  0  0  0  0  0  0  0
   19.9440   11.1750    1.4110 C   0  0  1  0  0  0  0  0  0  0  0  0
   20.5310   10.1120    2.2240 N   0  0  0  0  0  0  0  0  0  0  0  0
   21.8900    9.8800    2.3090 C   0  0  0  0  0  0  0  0  0  0  0  0
   22.1710    8.7770    2.9740 N   0  0  0  0  0  0  0  0  0  0  0  0
   20.9460    8.3570    3.4470 C   0  0  0  0  0  0  0  0  0  0  0  0
   20.5980    7.2290    4.2050 C   0  0  0  0  0  0  0  0  0  0  0  0
   21.5630    6.3120    4.6660 N   0  0  0  0  0  0  0  0  0  0  0  0
   19.3000    6.9410    4.3880 N   0  0  0  0  0  0  0  0  0  0  0  0
   18.3820    7.8080    3.8990 C   0  0  0  0  0  0  0  0  0  0  0  0
   18.6050    8.9090    3.1600 N   0  0  0  0  0  0  0  0  0  0  0  0
   19.9130    9.1370    2.9630 C   0  0  0  0  0  0  0  0  0  0  0  0
   18.8910   10.6340    0.4290 C   0  0  2  0  0  0  0  0  0  0  0  0
   19.4250   10.3620   -0.8690 O   0  0  0  0  0  0  0  0  0  0  0  0
   17.8750   11.7590    0.3940 C   0  0  2  0  0  0  0  0  0  0  0  0
   18.3050   12.7680   -0.5290 O   0  0  0  0  0  0  0  0  0  0  0  0
   13.2173   11.1824    8.3481 H   0  0  0  0  0  0  0  0  0  0  0  0
   14.2237   11.4942    6.8932 H   0  0  0  0  0  0  0  0  0  0  0  0
   13.0389   10.1440    6.8932 H   0  0  0  0  0  0  0  0  0  0  0  0
   15.2696   10.1920   10.1419 H   0  0  0  0  0  0  0  0  0  0  0  0
   16.6856   10.3347    9.0458 H   0  0  0  0  0  0  0  0  0  0  0  0
   15.4179   11.6073    9.0458 H   0  0  0  0  0  0  0  0  0  0  0  0
   14.1866    8.6409    9.7972 H   0  0  0  0  0  0  0  0  0  0  0  0
   13.0818    8.5269    8.3854 H   0  0  0  0  0  0  0  0  0  0  0  0
   14.6353    7.6249    8.3854 H   0  0  0  0  0  0  0  0  0  0  0  0
   16.5195   10.1757    6.8046 H   0  0  0  0  0  0  0  0  0  0  0  0
   16.6730    7.8900    8.2610 H   0  0  0  0  0  0  0  0  0  0  0  0
   16.0790    7.2440    6.8550 H   0  0  0  0  0  0  0  0  0  0  0  0
   17.4870    8.0740    6.8130 H   0  0  0  0  0  0  0  0  0  0  0  0
   16.4840   10.4640    4.5270 H   0  0  0  0  0  0  0  0  0  0  0  0
   16.6213   12.3432    3.5338 H   0  0  0  0  0  0  0  0  0  0  0  0
   17.5724   10.8215    3.3237 H   0  0  0  0  0  0  0  0  0  0  0  0
   17.5875   13.3625    1.7927 H   0  0  0  0  0  0  0  0  0  0  0  0
   20.7725   11.6275    0.8464 H   0  0  0  0  0  0  0  0  0  0  0  0
   22.6521   10.5413    1.8710 H   0  0  0  0  0  0  0  0  0  0  0  0
   21.5060    5.4810    4.0660 H   0  0  0  0  0  0  0  0  0  0  0  0
   22.4670    6.7720    4.5110 H   0  0  0  0  0  0  0  0  0  0  0  0
   17.3306    7.5856    4.1338 H   0  0  0  0  0  0  0  0  0  0  0  0
   18.4749    9.6653    0.7427 H   0  0  0  0  0  0  0  0  0  0  0  0
   19.9180   11.1550   -1.1560 H   0  0  0  0  0  0  0  0  0  0  0  0
   16.8712   11.4319    0.0852 H   0  0  0  0  0  0  0  0  0  0  0  0
   18.3260   13.6210   -0.0520 H   0  0  0  0  0  0  0  0  0  0  0  0
  1  2  1  0
  2  3  1  0
  2  4  1  0
  2  5  1  0
  5  6  1  0
  5  7  1  0
  7  8  2  0
  7  9  1  0
  9 10  1  0
 10 11  2  0
 10 12  2  0
 10 13  1  0
 13 14  1  0
 14 15  1  0
 15 16  1  0
 16 17  1  0
 17 18  1  0
 18 19  1  0
 19 20  2  0
 20 21  1  0
 21 22  2  0
 22 23  1  0
 22 24  1  0
 24 25  2  0
 25 26  1  0
 26 27  2  0
 17 28  1  0
 28 29  1  0
 28 30  1  0
 30 31  1  0
 30 15  1  0
 27 18  1  0
 27 21  1  0
  1 32  1  0
  1 33  1  0
  1 34  1  0
  3 35  1  0
  3 36  1  0
  3 37  1  0
  4 38  1  0
  4 39  1  0
  4 40  1  0
  5 41  1  6
  6 42  1  0
  6 43  1  0
  6 44  1  0
  9 45  1  0
 14 46  1  0
 14 47  1  0
 15 48  1  6
 17 49  1  6
 19 50  1  0
 23 51  1  0
 23 52  1  0
 25 53  1  0
 28 54  1  1
 29 55  1  0
 30 56  1  6
 31 57  1  0
M  CHG  1   6   1
M  END
>  <meeko>  (7) 
{"is_sidechain": [false], "free_energy": -8.411, "intermolecular_energy": -12.567, "internal_energy": -1.078}

$$$$
3coy_ligand
     RDKit          3D

 57 59  0  0  0  0  0  0  0  0999 V2000
   14.2950    8.4920    8.7430 C   0  0  0  0  0  0  0  0  0  0  0  0
   14.3930    9.4520    7.5370 C   0  0  0  0  0  0  0  0  0  0  0  0
   13.3910    8.9530    6.4730 C   0  0  0  0  0  0  0  0  0  0  0  0
   13.9590   10.8550    8.0020 C   0  0  0  0  0  0  0  0  0  0  0  0
   15.8400    9.4360    6.9610 C   0  0  1  0  0  0  0  0  0  0  0  0
   16.5330    8.1300    7.2740 N   0  0  0  0  0  0  0  0  0  0  0  0
   15.8990    9.7110    5.4390 C   0  0  0  0  0  0  0  0  0  0  0  0
   16.0900    8.7850    4.6570 O   0  0  0  0  0  0  0  0  0  0  0  0
   15.8030   11.0460    5.0410 N   0  0  0  0  0  0  0  0  0  0  0  0
   15.5840   11.5290    3.4670 S   0  0  0  0  0  0  0  0  0  0  0  0
   15.7310   12.9650    3.5060 O   0  0  0  0  0  0  0  0  0  0  0  0
   14.3700   10.9040    3.0020 O   0  0  0  0  0  0  0  0  0  0  0  0
   16.8290   10.8860    2.6570 O   0  0  0  0  0  0  0  0  0  0  0  0
   16.6700   10.6320    1.2660 C   0  0  0  0  0  0  0  0  0  0  0  0
   17.7530   11.3560    0.4520 C   0  0  1  0  0  0  0  0  0  0  0  0
   18.8610   11.6760    1.3230 O   0  0  0  0  0  0  0  0  0  0  0  0
   19.9470   10.7710    1.0560 C   0  0  1  0  0  0  0  0  0  0  0  0
   20.3750   10.1050    2.2850 N   0  0  0  0  0  0  0  0  0  0  0  0
   19.6530    9.0990    2.8970 C   0  0  0  0  0  0  0  0  0  0  0  0
   20.1550    8.7630    4.0690 N   0  0  0  0  0  0  0  0  0  0  0  0
   21.3220    9.4920    4.1500 C   0  0  0  0  0  0  0  0  0  0  0  0
   22.2780    9.5750    5.1710 C   0  0  0  0  0  0  0  0  0  0  0  0
   22.1820    8.8060    6.3490 N   0  0  0  0  0  0  0  0  0  0  0  0
   23.2440   10.5040    5.0890 N   0  0  0  0  0  0  0  0  0  0  0  0
   23.2960   11.2670    3.9710 C   0  0  0  0  0  0  0  0  0  0  0  0
   22.4330   11.2730    2.9410 N   0  0  0  0  0  0  0  0  0  0  0  0
   21.4590   10.3610    3.0830 C   0  0  0  0  0  0  0  0  0  0  0  0
   19.4670    9.7680   -0.0060 C   0  0  2  0  0  0  0  0  0  0  0  0
   20.4930    9.4000   -0.9300 O   0  0  0  0  0  0  0  0  0  0  0  0
   18.3450   10.5280   -0.6840 C   0  0  2  0  0  0  0  0  0  0  0  0
   18.8910   11.4090   -1.6760 O   0  0  0  0  0  0  0  0  0  0  0  0
   14.3540    9.0697    9.6772 H   0  0  0  0  0  0  0  0  0  0  0  0
   13.3371    7.9525    8.7053 H   0  0  0  0  0  0  0  0  0  0  0  0
   15.1241    7.7701    8.7053 H   0  0  0  0  0  0  0  0  0  0  0  0
   12.5135    8.5160    6.9721 H   0  0  0  0  0  0  0  0  0  0  0  0
   13.0725    9.7978    5.8445 H   0  0  0  0  0  0  0  0  0  0  0  0
   13.8733    8.1898    5.8445 H   0  0  0  0  0  0  0  0  0  0  0  0
   13.9482   10.8899    9.1014 H   0  0  0  0  0  0  0  0  0  0  0  0
   14.6675   11.6039    7.6183 H   0  0  0  0  0  0  0  0  0  0  0  0
   12.9514   11.0731    7.6183 H   0  0  0  0  0  0  0  0  0  0  0  0
   16.3686   10.2628    7.4579 H   0  0  0  0  0  0  0  0  0  0  0  0
   16.1620    7.2980    6.8080 H   0  0  0  0  0  0  0  0  0  0  0  0
   17.5460    8.1800    7.0390 H   0  0  0  0  0  0  0  0  0  0  0  0
   16.5290    7.9580    8.2990 H   0  0  0  0  0  0  0  0  0  0  0  0
   15.6860   11.8270    5.6800 H   0  0  0  0  0  0  0  0  0  0  0  0
   16.7468    9.5496    1.0860 H   0  0  0  0  0  0  0  0  0  0  0  0
   15.6840   11.0037    0.9502 H   0  0  0  0  0  0  0  0  0  0  0  0
   17.2535   12.2364    0.0213 H   0  0  0  0  0  0  0  0  0  0  0  0
   20.8248   11.3138    0.6755 H   0  0  0  0  0  0  0  0  0  0  0  0
   18.7602    8.6311    2.4565 H   0  0  0  0  0  0  0  0  0  0  0  0
   22.1780    7.8190    6.0700 H   0  0  0  0  0  0  0  0  0  0  0  0
   23.0460    9.0010    6.8680 H   0  0  0  0  0  0  0  0  0  0  0  0
   24.1443   11.9635    3.8976 H   0  0  0  0  0  0  0  0  0  0  0  0
   19.1560    8.8058    0.4270 H   0  0  0  0  0  0  0  0  0  0  0  0
   20.0550    9.0530   -1.7330 H   0  0  0  0  0  0  0  0  0  0  0  0
   17.6143    9.8746   -1.1832 H   0  0  0  0  0  0  0  0  0  0  0  0
   18.9570   10.9130   -2.5150 H   0  0  0  0  0  0  0  0  0  0  0  0
  1  2  1  0
  2  3  1  0
  2  4  1  0
  2  5  1  0
  5  6  1  0
  5  7  1  0
  7  8  2  0
  7  9  1  0
  9 10  1  0
 10 11  2  0
 10 12  2  0
 10 13  1  0
 13 14  1  0
 14 15  1  0
 15 16  1  0
 16 17  1  0
 17 18  1  0
 18 19  1  0
 19 20  2  0
 20 21  1  0
 21 22  2  0
 22 23  1  0
 22 24  1  0
 24 25  2  0
 25 26  1  0
 26 27  2  0
 17 28  1  0
 28 29  1  0
 28 30  1  0
 30 31  1  0
 30 15  1  0
 27 18  1  0
 27 21  1  0
  1 32  1  0
  1 33  1  0
  1 34  1  0
  3 35  1  0
  3 36  1  0
  3 37  1  0
  4 38  1  0
  4 39  1  0
  4 40  1  0
  5 41  1  1
  6 42  1  0
  6 43  1  0
  6 44  1  0
  9 45  1  0
 14 46  1  0
 14 47  1  0
 15 48  1  6
 17 49  1  6
 19 50  1  0
 23 51  1  0
 23 52  1  0
 25 53  1  0
 28 54  1  1
 29 55  1  0
 30 56  1  6
 31 57  1  0
M  CHG  1   6   1
M  END
>  <meeko>  (8) 
{"is_sidechain": [false], "free_energy": -8.362, "intermolecular_energy": -12.511, "internal_energy": -1.06}

$$$$
3coy_ligand
     RDKit          3D

 57 59  0  0  0  0  0  0  0  0999 V2000
   13.6090    8.5300    0.4610 C   0  0  0  0  0  0  0  0  0  0  0  0
   13.9200   10.0370    0.3210 C   0  0  0  0  0  0  0  0  0  0  0  0
   13.2610   10.5200   -0.9900 C   0  0  0  0  0  0  0  0  0  0  0  0
   13.2640   10.7760    1.5030 C   0  0  0  0  0  0  0  0  0  0  0  0
   15.4610   10.2590    0.2600 C   0  0  1  0  0  0  0  0  0  0  0  0
   15.8020   11.4490   -0.6070 N   0  0  0  0  0  0  0  0  0  0  0  0
   16.1150   10.4180    1.6540 C   0  0  0  0  0  0  0  0  0  0  0  0
   16.4130   11.5350    2.0660 O   0  0  0  0  0  0  0  0  0  0  0  0
   16.4050    9.2400    2.3460 N   0  0  0  0  0  0  0  0  0  0  0  0
   16.8610    9.1930    3.9420 S   0  0  0  0  0  0  0  0  0  0  0  0
   15.6190    9.0620    4.6680 O   0  0  0  0  0  0  0  0  0  0  0  0
   17.7480   10.3100    4.1570 O   0  0  0  0  0  0  0  0  0  0  0  0
   17.7160    7.8270    4.0910 O   0  0  0  0  0  0  0  0  0  0  0  0
   18.9140    7.8620    4.8570 C   0  0  0  0  0  0  0  0  0  0  0  0
   20.0720    7.2080    4.0890 C   0  0  1  0  0  0  0  0  0  0  0  0
   20.1260    7.7630    2.7550 O   0  0  0  0  0  0  0  0  0  0  0  0
   21.2280    8.6840    2.6720 C   0  0  1  0  0  0  0  0  0  0  0  0
   20.7730    9.9890    2.1990 N   0  0  0  0  0  0  0  0  0  0  0  0
   20.8190   11.1360    2.9670 C   0  0  0  0  0  0  0  0  0  0  0  0
   20.2130   12.1540    2.3890 N   0  0  0  0  0  0  0  0  0  0  0  0
   19.8800   11.6720    1.1400 C   0  0  0  0  0  0  0  0  0  0  0  0
   19.1990   12.2820    0.0780 C   0  0  0  0  0  0  0  0  0  0  0  0
   18.7640   13.6210    0.1400 N   0  0  0  0  0  0  0  0  0  0  0  0
   18.8340   11.5380   -0.9780 N   0  0  0  0  0  0  0  0  0  0  0  0
   19.2200   10.2400   -1.0020 C   0  0  0  0  0  0  0  0  0  0  0  0
   19.8670    9.5580   -0.0420 N   0  0  0  0  0  0  0  0  0  0  0  0
   20.1740   10.3270    1.0130 C   0  0  0  0  0  0  0  0  0  0  0  0
   21.8710    8.7680    4.0660 C   0  0  2  0  0  0  0  0  0  0  0  0
   23.2930    8.9000    4.0190 O   0  0  0  0  0  0  0  0  0  0  0  0
   21.4500    7.4550    4.6960 C   0  0  2  0  0  0  0  0  0  0  0  0
   22.3430    6.4130    4.2800 O   0  0  0  0  0  0  0  0  0  0  0  0
   13.5542    8.2644    1.5270 H   0  0  0  0  0  0  0  0  0  0  0  0
   12.6461    8.3079   -0.0222 H   0  0  0  0  0  0  0  0  0  0  0  0
   14.4053    7.9448   -0.0222 H   0  0  0  0  0  0  0  0  0  0  0  0
   12.3947   11.1549   -0.7526 H   0  0  0  0  0  0  0  0  0  0  0  0
   13.9905   11.0989   -1.5754 H   0  0  0  0  0  0  0  0  0  0  0  0
   12.9286    9.6501   -1.5754 H   0  0  0  0  0  0  0  0  0  0  0  0
   13.6361   10.3568    2.4495 H   0  0  0  0  0  0  0  0  0  0  0  0
   13.5155   11.8456    1.4517 H   0  0  0  0  0  0  0  0  0  0  0  0
   12.1721   10.6532    1.4517 H   0  0  0  0  0  0  0  0  0  0  0  0
   15.8779    9.3447   -0.1876 H   0  0  0  0  0  0  0  0  0  0  0  0
   15.0390   12.1040   -0.7960 H   0  0  0  0  0  0  0  0  0  0  0  0
   16.5780   12.0040   -0.1890 H   0  0  0  0  0  0  0  0  0  0  0  0
   16.1910   11.1320   -1.5160 H   0  0  0  0  0  0  0  0  0  0  0  0
   16.2030    8.3070    1.9980 H   0  0  0  0  0  0  0  0  0  0  0  0
   19.1719    8.9088    5.0754 H   0  0  0  0  0  0  0  0  0  0  0  0
   18.7514    7.3046    5.7913 H   0  0  0  0  0  0  0  0  0  0  0  0
   19.8648    6.1280    4.1165 H   0  0  0  0  0  0  0  0  0  0  0  0
   21.9761    8.3347    1.9451 H   0  0  0  0  0  0  0  0  0  0  0  0
   21.3069   11.1936    3.9512 H   0  0  0  0  0  0  0  0  0  0  0  0
   19.2200   14.1270   -0.6270 H   0  0  0  0  0  0  0  0  0  0  0  0
   17.7540   13.5850   -0.0410 H   0  0  0  0  0  0  0  0  0  0  0  0
   18.9749    9.6778   -1.9152 H   0  0  0  0  0  0  0  0  0  0  0  0
   21.5498    9.6571    4.6284 H   0  0  0  0  0  0  0  0  0  0  0  0
   23.6710    8.2470    4.6400 H   0  0  0  0  0  0  0  0  0  0  0  0
   21.4526    7.4773    5.7958 H   0  0  0  0  0  0  0  0  0  0  0  0
   22.0530    6.1020    3.4010 H   0  0  0  0  0  0  0  0  0  0  0  0
  1  2  1  0
  2  3  1  0
  2  4  1  0
  2  5  1  0
  5  6  1  0
  5  7  1  0
  7  8  2  0
  7  9  1  0
  9 10  1  0
 10 11  2  0
 10 12  2  0
 10 13  1  0
 13 14  1  0
 14 15  1  0
 15 16  1  0
 16 17  1  0
 17 18  1  0
 18 19  1  0
 19 20  2  0
 20 21  1  0
 21 22  2  0
 22 23  1  0
 22 24  1  0
 24 25  2  0
 25 26  1  0
 26 27  2  0
 17 28  1  0
 28 29  1  0
 28 30  1  0
 30 31  1  0
 30 15  1  0
 27 18  1  0
 27 21  1  0
  1 32  1  0
  1 33  1  0
  1 34  1  0
  3 35  1  0
  3 36  1  0
  3 37  1  0
  4 38  1  0
  4 39  1  0
  4 40  1  0
  5 41  1  6
  6 42  1  0
  6 43  1  0
  6 44  1  0
  9 45  1  0
 14 46  1  0
 14 47  1  0
 15 48  1  6
 17 49  1  6
 19 50  1  0
 23 51  1  0
 23 52  1  0
 25 53  1  0
 28 54  1  1
 29 55  1  0
 30 56  1  1
 31 57  1  0
M  CHG  1   6   1
M  END
>  <meeko>  (9) 
{"is_sidechain": [false], "free_energy": -8.281, "intermolecular_energy": -11.722, "internal_energy": -1.724}

$$$$
