3uev_ligand
     RDKit          3D

 43 42  0  0  0  0  0  0  0  0999 V2000
   -4.5900   17.2850   16.8440 C   0  0  0  0  0  0  0  0  0  0  0  0
   -3.2980   17.3080   17.6460 C   0  0  0  0  0  0  0  0  0  0  0  0
   -2.8450   15.8930   18.0100 C   0  0  0  0  0  0  0  0  0  0  0  0
   -3.8970   14.8180   17.7150 C   0  0  0  0  0  0  0  0  0  0  0  0
   -3.3110   13.4060   17.6230 C   0  0  0  0  0  0  0  0  0  0  0  0
   -2.1320   13.1720   18.5760 C   0  0  0  0  0  0  0  0  0  0  0  0
   -2.2280   11.8560   19.3520 C   0  0  0  0  0  0  0  0  0  0  0  0
   -2.9390   10.7410   18.5750 C   0  0  0  0  0  0  0  0  0  0  0  0
   -1.9820    9.8450   17.7840 C   0  0  0  0  0  0  0  0  0  0  0  0
   -2.2110    8.3480   18.0240 C   0  0  0  0  0  0  0  0  0  0  0  0
   -1.8120    7.8890   19.4290 C   0  0  0  0  0  0  0  0  0  0  0  0
   -0.8400    6.7030   19.4270 C   0  0  0  0  0  0  0  0  0  0  0  0
   -1.3360    5.5060   20.2330 C   0  0  0  0  0  0  0  0  0  0  0  0
   -0.2400    4.7110   20.9530 C   0  0  0  0  0  0  0  0  0  0  0  0
   -0.6190    3.8990   21.8400 O   0  0  0  0  0  0  0  0  0  0  0  0
    0.9320    4.9710   20.5520 O   0  0  0  0  0  0  0  0  0  0  0  0
   -5.4483   17.2697   17.5318 H   0  0  0  0  0  0  0  0  0  0  0  0
   -4.6441   18.1823   16.2101 H   0  0  0  0  0  0  0  0  0  0  0  0
   -4.6121   16.3863   16.2101 H   0  0  0  0  0  0  0  0  0  0  0  0
   -2.5129   17.7927   17.0470 H   0  0  0  0  0  0  0  0  0  0  0  0
   -3.4770   17.8657   18.5771 H   0  0  0  0  0  0  0  0  0  0  0  0
   -1.9376   15.6592   17.4339 H   0  0  0  0  0  0  0  0  0  0  0  0
   -2.6658   15.8804   19.0952 H   0  0  0  0  0  0  0  0  0  0  0  0
   -4.6468   14.8331   18.5197 H   0  0  0  0  0  0  0  0  0  0  0  0
   -4.3366   15.0528   16.7344 H   0  0  0  0  0  0  0  0  0  0  0  0
   -4.1039   12.6830   17.8653 H   0  0  0  0  0  0  0  0  0  0  0  0
   -2.9306   13.2786   16.5988 H   0  0  0  0  0  0  0  0  0  0  0  0
   -1.2037   13.1617   17.9859 H   0  0  0  0  0  0  0  0  0  0  0  0
   -2.1463   13.9862   19.3155 H   0  0  0  0  0  0  0  0  0  0  0  0
   -1.2092   11.5181   19.5928 H   0  0  0  0  0  0  0  0  0  0  0  0
   -2.8247   12.0541   20.2546 H   0  0  0  0  0  0  0  0  0  0  0  0
   -3.4913   10.1147   19.2910 H   0  0  0  0  0  0  0  0  0  0  0  0
   -3.6053   11.2268   17.8469 H   0  0  0  0  0  0  0  0  0  0  0  0
   -2.1174   10.0510   16.7120 H   0  0  0  0  0  0  0  0  0  0  0  0
   -0.9626   10.0766   18.1264 H   0  0  0  0  0  0  0  0  0  0  0  0
   -3.2792    8.1307   17.8765 H   0  0  0  0  0  0  0  0  0  0  0  0
   -1.5735    7.8039   17.3116 H   0  0  0  0  0  0  0  0  0  0  0  0
   -1.3331    8.7319   19.9487 H   0  0  0  0  0  0  0  0  0  0  0  0
   -2.7300    7.5568   19.9359 H   0  0  0  0  0  0  0  0  0  0  0  0
   -0.6854    6.3817   18.3864 H   0  0  0  0  0  0  0  0  0  0  0  0
    0.0909    7.0478   19.9008 H   0  0  0  0  0  0  0  0  0  0  0  0
   -2.0440    5.8741   20.9902 H   0  0  0  0  0  0  0  0  0  0  0  0
   -1.7918    4.8150   19.5086 H   0  0  0  0  0  0  0  0  0  0  0  0
  1  2  1  0
  2  3  1  0
  3  4  1  0
  4  5  1  0
  5  6  1  0
  6  7  1  0
  7  8  1  0
  8  9  1  0
  9 10  1  0
 10 11  1  0
 11 12  1  0
 12 13  1  0
 13 14  1  0
 14 15  2  0
 14 16  1  0
  1 17  1  0
  1 18  1  0
  1 19  1  0
  2 20  1  0
  2 21  1  0
  3 22  1  0
  3 23  1  0
  4 24  1  0
  4 25  1  0
  5 26  1  0
  5 27  1  0
  6 28  1  0
  6 29  1  0
  7 30  1  0
  7 31  1  0
  8 32  1  0
  8 33  1  0
  9 34  1  0
  9 35  1  0
 10 36  1  0
 10 37  1  0
 11 38  1  0
 11 39  1  0
 12 40  1  0
 12 41  1  0
 13 42  1  0
 13 43  1  0
M  CHG  1  16  -1
M  END
>  <meeko>  (1) 
{"is_sidechain": [false], "free_energy": -6.53, "intermolecular_energy": -11.111, "internal_energy": -0.559}

$$$$
3uev_ligand
     RDKit          3D

 43 42  0  0  0  0  0  0  0  0999 V2000
   -4.8830   17.3090   16.8790 C   0  0  0  0  0  0  0  0  0  0  0  0
   -3.4460   17.2990   17.3770 C   0  0  0  0  0  0  0  0  0  0  0  0
   -2.7850   15.9400   17.1460 C   0  0  0  0  0  0  0  0  0  0  0  0
   -1.9850   15.4360   18.3520 C   0  0  0  0  0  0  0  0  0  0  0  0
   -2.1780   13.9420   18.6270 C   0  0  0  0  0  0  0  0  0  0  0  0
   -3.2790   13.3030   17.7700 C   0  0  0  0  0  0  0  0  0  0  0  0
   -3.7530   11.9470   18.3000 C   0  0  0  0  0  0  0  0  0  0  0  0
   -2.6090   11.0490   18.7850 C   0  0  0  0  0  0  0  0  0  0  0  0
   -2.0670   10.1120   17.7020 C   0  0  0  0  0  0  0  0  0  0  0  0
   -2.0240    8.6410   18.1340 C   0  0  0  0  0  0  0  0  0  0  0  0
   -2.7070    8.3810   19.4790 C   0  0  0  0  0  0  0  0  0  0  0  0
   -2.1770    7.1360   20.1980 C   0  0  0  0  0  0  0  0  0  0  0  0
   -0.8760    6.5990   19.6090 C   0  0  0  0  0  0  0  0  0  0  0  0
   -0.6210    5.1070   19.8540 C   0  0  0  0  0  0  0  0  0  0  0  0
   -0.3760    4.7610   21.0410 O   0  0  0  0  0  0  0  0  0  0  0  0
   -0.6960    4.3940   18.8110 O   0  0  0  0  0  0  0  0  0  0  0  0
   -5.5690   17.3138   17.7389 H   0  0  0  0  0  0  0  0  0  0  0  0
   -5.0534   18.2084   16.2690 H   0  0  0  0  0  0  0  0  0  0  0  0
   -5.0659   16.4121   16.2690 H   0  0  0  0  0  0  0  0  0  0  0  0
   -2.8755   18.0705   16.8392 H   0  0  0  0  0  0  0  0  0  0  0  0
   -3.4529   17.5013   18.4582 H   0  0  0  0  0  0  0  0  0  0  0  0
   -3.5709   15.2050   16.9178 H   0  0  0  0  0  0  0  0  0  0  0  0
   -2.0746   16.0630   16.3152 H   0  0  0  0  0  0  0  0  0  0  0  0
   -0.9171   15.6211   18.1643 H   0  0  0  0  0  0  0  0  0  0  0  0
   -2.3515   15.9793   19.2354 H   0  0  0  0  0  0  0  0  0  0  0  0
   -1.2300   13.4238   18.4202 H   0  0  0  0  0  0  0  0  0  0  0  0
   -2.4850   13.8419   19.6785 H   0  0  0  0  0  0  0  0  0  0  0  0
   -4.1402   13.9868   17.7424 H   0  0  0  0  0  0  0  0  0  0  0  0
   -2.8529   13.1298   16.7708 H   0  0  0  0  0  0  0  0  0  0  0  0
   -4.4395   12.1222   19.1415 H   0  0  0  0  0  0  0  0  0  0  0  0
   -4.2434   11.4254   17.4649 H   0  0  0  0  0  0  0  0  0  0  0  0
   -1.7865   11.6907   19.1337 H   0  0  0  0  0  0  0  0  0  0  0  0
   -3.0132   10.4155   19.5883 H   0  0  0  0  0  0  0  0  0  0  0  0
   -2.7111   10.1959   16.8143 H   0  0  0  0  0  0  0  0  0  0  0  0
   -1.0314   10.4198   17.4953 H   0  0  0  0  0  0  0  0  0  0  0  0
   -2.5277    8.0371   17.3649 H   0  0  0  0  0  0  0  0  0  0  0  0
   -0.9648    8.3680   18.2501 H   0  0  0  0  0  0  0  0  0  0  0  0
   -2.5443    9.2544   20.1276 H   0  0  0  0  0  0  0  0  0  0  0  0
   -3.7741    8.2092   19.2744 H   0  0  0  0  0  0  0  0  0  0  0  0
   -2.0016    7.3919   21.2533 H   0  0  0  0  0  0  0  0  0  0  0  0
   -2.9348    6.3475   20.0796 H   0  0  0  0  0  0  0  0  0  0  0  0
   -0.8983    6.7674   18.5222 H   0  0  0  0  0  0  0  0  0  0  0  0
   -0.0629    7.1375   20.1178 H   0  0  0  0  0  0  0  0  0  0  0  0
  1  2  1  0
  2  3  1  0
  3  4  1  0
  4  5  1  0
  5  6  1  0
  6  7  1  0
  7  8  1  0
  8  9  1  0
  9 10  1  0
 10 11  1  0
 11 12  1  0
 12 13  1  0
 13 14  1  0
 14 15  2  0
 14 16  1  0
  1 17  1  0
  1 18  1  0
  1 19  1  0
  2 20  1  0
  2 21  1  0
  3 22  1  0
  3 23  1  0
  4 24  1  0
  4 25  1  0
  5 26  1  0
  5 27  1  0
  6 28  1  0
  6 29  1  0
  7 30  1  0
  7 31  1  0
  8 32  1  0
  8 33  1  0
  9 34  1  0
  9 35  1  0
 10 36  1  0
 10 37  1  0
 11 38  1  0
 11 39  1  0
 12 40  1  0
 12 41  1  0
 13 42  1  0
 13 43  1  0
M  CHG  1  16  -1
M  END
>  <meeko>  (2) 
{"is_sidechain": [false], "free_energy": -6.366, "intermolecular_energy": -10.72, "internal_energy": -0.672}

$$$$
3uev_ligand
     RDKit          3D

 43 42  0  0  0  0  0  0  0  0999 V2000
   -3.2800   17.2630   17.6630 C   0  0  0  0  0  0  0  0  0  0  0  0
   -2.6960   15.8970   17.9870 C   0  0  0  0  0  0  0  0  0  0  0  0
   -3.4480   14.7830   17.2570 C   0  0  0  0  0  0  0  0  0  0  0  0
   -3.3610   13.4240   17.9620 C   0  0  0  0  0  0  0  0  0  0  0  0
   -2.1220   13.2800   18.8500 C   0  0  0  0  0  0  0  0  0  0  0  0
   -1.8640   11.8380   19.3070 C   0  0  0  0  0  0  0  0  0  0  0  0
   -2.7550   10.8090   18.6060 C   0  0  0  0  0  0  0  0  0  0  0  0
   -1.9820    9.8730   17.6680 C   0  0  0  0  0  0  0  0  0  0  0  0
   -2.1500    8.3910   18.0120 C   0  0  0  0  0  0  0  0  0  0  0  0
   -2.0510    8.0990   19.5140 C   0  0  0  0  0  0  0  0  0  0  0  0
   -3.2170    7.2630   20.0500 C   0  0  0  0  0  0  0  0  0  0  0  0
   -4.0620    6.6210   18.9450 C   0  0  0  0  0  0  0  0  0  0  0  0
   -5.5540    6.9130   19.0700 C   0  0  0  0  0  0  0  0  0  0  0  0
   -6.4780    5.8020   18.5570 C   0  0  0  0  0  0  0  0  0  0  0  0
   -6.2530    5.3710   17.3930 O   0  0  0  0  0  0  0  0  0  0  0  0
   -7.3640    5.4440   19.3860 O   0  0  0  0  0  0  0  0  0  0  0  0
   -3.5077   17.7956   18.5981 H   0  0  0  0  0  0  0  0  0  0  0  0
   -2.5516   17.8439   17.0782 H   0  0  0  0  0  0  0  0  0  0  0  0
   -4.2032   17.1377   17.0782 H   0  0  0  0  0  0  0  0  0  0  0  0
   -1.6399   15.8770   17.6801 H   0  0  0  0  0  0  0  0  0  0  0  0
   -2.7902   15.7274   19.0698 H   0  0  0  0  0  0  0  0  0  0  0  0
   -4.5074   15.0692   17.1817 H   0  0  0  0  0  0  0  0  0  0  0  0
   -2.9767   14.6668   16.2699 H   0  0  0  0  0  0  0  0  0  0  0  0
   -4.2562   13.2980   18.5887 H   0  0  0  0  0  0  0  0  0  0  0  0
   -3.2914   12.6548   17.1788 H   0  0  0  0  0  0  0  0  0  0  0  0
   -1.2453   13.6287   18.2845 H   0  0  0  0  0  0  0  0  0  0  0  0
   -2.2991   13.8805   19.7544 H   0  0  0  0  0  0  0  0  0  0  0  0
   -0.8131   11.5889   19.0983 H   0  0  0  0  0  0  0  0  0  0  0  0
   -2.0972   11.7912   20.3810 H   0  0  0  0  0  0  0  0  0  0  0  0
   -3.2541   10.1993   19.3736 H   0  0  0  0  0  0  0  0  0  0  0  0
   -3.4729   11.3681   17.9879 H   0  0  0  0  0  0  0  0  0  0  0  0
   -2.3407   10.0351   16.6408 H   0  0  0  0  0  0  0  0  0  0  0  0
   -0.9141   10.1125   17.7789 H   0  0  0  0  0  0  0  0  0  0  0  0
   -3.1373    8.0605   17.6570 H   0  0  0  0  0  0  0  0  0  0  0  0
   -1.3284    7.8488   17.5211 H   0  0  0  0  0  0  0  0  0  0  0  0
   -1.1150    7.5525   19.7019 H   0  0  0  0  0  0  0  0  0  0  0  0
   -2.0794    9.0672   20.0353 H   0  0  0  0  0  0  0  0  0  0  0  0
   -2.8097    6.4638   20.6867 H   0  0  0  0  0  0  0  0  0  0  0  0
   -3.8756    7.9439   20.6091 H   0  0  0  0  0  0  0  0  0  0  0  0
   -3.7130    7.0027   17.9742 H   0  0  0  0  0  0  0  0  0  0  0  0
   -3.9377    5.5318   19.0353 H   0  0  0  0  0  0  0  0  0  0  0  0
   -5.7807    7.0813   20.1332 H   0  0  0  0  0  0  0  0  0  0  0  0
   -5.7490    7.7912   18.4369 H   0  0  0  0  0  0  0  0  0  0  0  0
  1  2  1  0
  2  3  1  0
  3  4  1  0
  4  5  1  0
  5  6  1  0
  6  7  1  0
  7  8  1  0
  8  9  1  0
  9 10  1  0
 10 11  1  0
 11 12  1  0
 12 13  1  0
 13 14  1  0
 14 15  2  0
 14 16  1  0
  1 17  1  0
  1 18  1  0
  1 19  1  0
  2 20  1  0
  2 21  1  0
  3 22  1  0
  3 23  1  0
  4 24  1  0
  4 25  1  0
  5 26  1  0
  5 27  1  0
  6 28  1  0
  6 29  1  0
  7 30  1  0
  7 31  1  0
  8 32  1  0
  8 33  1  0
  9 34  1  0
  9 35  1  0
 10 36  1  0
 10 37  1  0
 11 38  1  0
 11 39  1  0
 12 40  1  0
 12 41  1  0
 13 42  1  0
 13 43  1  0
M  CHG  1  16  -1
M  END
>  <meeko>  (3) 
{"is_sidechain": [false], "free_energy": -6.327, "intermolecular_energy": -10.554, "internal_energy": -0.77}

$$$$
3uev_ligand
     RDKit          3D

 43 42  0  0  0  0  0  0  0  0999 V2000
   -3.8990   16.5880   17.2170 C   0  0  0  0  0  0  0  0  0  0  0  0
   -2.6580   16.3120   18.0510 C   0  0  0  0  0  0  0  0  0  0  0  0
   -2.3250   14.8190   18.0760 C   0  0  0  0  0  0  0  0  0  0  0  0
   -3.3630   13.9490   17.3590 C   0  0  0  0  0  0  0  0  0  0  0  0
   -3.6270   12.6160   18.0650 C   0  0  0  0  0  0  0  0  0  0  0  0
   -2.3480   11.8330   18.3870 C   0  0  0  0  0  0  0  0  0  0  0  0
   -2.3450   10.4110   17.8200 C   0  0  0  0  0  0  0  0  0  0  0  0
   -2.1340    9.3300   18.8860 C   0  0  0  0  0  0  0  0  0  0  0  0
   -1.8550    7.9430   18.3010 C   0  0  0  0  0  0  0  0  0  0  0  0
   -1.7540    6.8420   19.3630 C   0  0  0  0  0  0  0  0  0  0  0  0
   -2.6180    5.6160   19.0540 C   0  0  0  0  0  0  0  0  0  0  0  0
   -3.8570    5.9440   18.2130 C   0  0  0  0  0  0  0  0  0  0  0  0
   -5.0960    6.2530   19.0470 C   0  0  0  0  0  0  0  0  0  0  0  0
   -6.3860    5.5780   18.5650 C   0  0  0  0  0  0  0  0  0  0  0  0
   -7.3810    5.6400   19.3380 O   0  0  0  0  0  0  0  0  0  0  0  0
   -6.2900    5.0370   17.4260 O   0  0  0  0  0  0  0  0  0  0  0  0
   -4.7536   16.7781   17.8830 H   0  0  0  0  0  0  0  0  0  0  0  0
   -3.7256   17.4695   16.5823 H   0  0  0  0  0  0  0  0  0  0  0  0
   -4.1156   15.7161   16.5823 H   0  0  0  0  0  0  0  0  0  0  0  0
   -1.8078   16.8615   17.6207 H   0  0  0  0  0  0  0  0  0  0  0  0
   -2.8528   16.6413   19.0823 H   0  0  0  0  0  0  0  0  0  0  0  0
   -1.3503   14.6715   17.5880 H   0  0  0  0  0  0  0  0  0  0  0  0
   -2.3149   14.5074   19.1309 H   0  0  0  0  0  0  0  0  0  0  0  0
   -4.3087   14.5080   17.3034 H   0  0  0  0  0  0  0  0  0  0  0  0
   -2.9604   13.7159   16.3622 H   0  0  0  0  0  0  0  0  0  0  0  0
   -4.1576   12.8194   19.0068 H   0  0  0  0  0  0  0  0  0  0  0  0
   -4.2221   11.9969   17.3776 H   0  0  0  0  0  0  0  0  0  0  0  0
   -1.4904   12.3780   17.9655 H   0  0  0  0  0  0  0  0  0  0  0  0
   -2.2886   11.7455   19.4819 H   0  0  0  0  0  0  0  0  0  0  0  0
   -3.3116   10.2303   17.3270 H   0  0  0  0  0  0  0  0  0  0  0  0
   -1.5007   10.3435   17.1181 H   0  0  0  0  0  0  0  0  0  0  0  0
   -1.2790    9.6218   19.5136 H   0  0  0  0  0  0  0  0  0  0  0  0
   -3.0681    9.2566   19.4623 H   0  0  0  0  0  0  0  0  0  0  0  0
   -2.6707    7.6861   17.6092 H   0  0  0  0  0  0  0  0  0  0  0  0
   -0.8801    7.9950   17.7942 H   0  0  0  0  0  0  0  0  0  0  0  0
   -0.7045    6.5201   19.4324 H   0  0  0  0  0  0  0  0  0  0  0  0
   -2.1222    7.2682   20.3078 H   0  0  0  0  0  0  0  0  0  0  0  0
   -2.0054    4.8868   18.5035 H   0  0  0  0  0  0  0  0  0  0  0  0
   -2.9731    5.2169   20.0155 H   0  0  0  0  0  0  0  0  0  0  0  0
   -3.6310    6.8204   17.5878 H   0  0  0  0  0  0  0  0  0  0  0  0
   -4.0860    5.0506   17.6134 H   0  0  0  0  0  0  0  0  0  0  0  0
   -4.9036    5.9240   20.0789 H   0  0  0  0  0  0  0  0  0  0  0  0
   -5.2641    7.3365   18.9585 H   0  0  0  0  0  0  0  0  0  0  0  0
  1  2  1  0
  2  3  1  0
  3  4  1  0
  4  5  1  0
  5  6  1  0
  6  7  1  0
  7  8  1  0
  8  9  1  0
  9 10  1  0
 10 11  1  0
 11 12  1  0
 12 13  1  0
 13 14  1  0
 14 15  2  0
 14 16  1  0
  1 17  1  0
  1 18  1  0
  1 19  1  0
  2 20  1  0
  2 21  1  0
  3 22  1  0
  3 23  1  0
  4 24  1  0
  4 25  1  0
  5 26  1  0
  5 27  1  0
  6 28  1  0
  6 29  1  0
  7 30  1  0
  7 31  1  0
  8 32  1  0
  8 33  1  0
  9 34  1  0
  9 35  1  0
 10 36  1  0
 10 37  1  0
 11 38  1  0
 11 39  1  0
 12 40  1  0
 12 41  1  0
 13 42  1  0
 13 43  1  0
M  CHG  1  16  -1
M  END
>  <meeko>  (4) 
{"is_sidechain": [false], "free_energy": -5.923, "intermolecular_energy": -10.074, "internal_energy": -0.564}

$$$$
3uev_ligand
     RDKit          3D

 43 42  0  0  0  0  0  0  0  0999 V2000
   -2.0470   15.4310   18.4160 C   0  0  0  0  0  0  0  0  0  0  0  0
   -2.8270   15.0650   17.1630 C   0  0  0  0  0  0  0  0  0  0  0  0
   -3.6210   13.7730   17.3580 C   0  0  0  0  0  0  0  0  0  0  0  0
   -2.9450   12.7770   18.3080 C   0  0  0  0  0  0  0  0  0  0  0  0
   -3.3940   11.3290   18.0870 C   0  0  0  0  0  0  0  0  0  0  0  0
   -2.2690   10.3060   18.2890 C   0  0  0  0  0  0  0  0  0  0  0  0
   -2.4080    9.4950   19.5800 C   0  0  0  0  0  0  0  0  0  0  0  0
   -2.1780    7.9910   19.3830 C   0  0  0  0  0  0  0  0  0  0  0  0
   -2.4370    7.5180   17.9500 C   0  0  0  0  0  0  0  0  0  0  0  0
   -2.8540    6.0460   17.8610 C   0  0  0  0  0  0  0  0  0  0  0  0
   -4.0360    5.6920   18.7680 C   0  0  0  0  0  0  0  0  0  0  0  0
   -5.3970    6.0480   18.1580 C   0  0  0  0  0  0  0  0  0  0  0  0
   -6.2690    6.9060   19.0700 C   0  0  0  0  0  0  0  0  0  0  0  0
   -7.4390    6.1670   19.7310 C   0  0  0  0  0  0  0  0  0  0  0  0
   -8.3190    6.8800   20.2840 O   0  0  0  0  0  0  0  0  0  0  0  0
   -7.3750    4.9070   19.6300 O   0  0  0  0  0  0  0  0  0  0  0  0
   -2.6325   15.1562   19.3057 H   0  0  0  0  0  0  0  0  0  0  0  0
   -1.0906   14.8877   18.4243 H   0  0  0  0  0  0  0  0  0  0  0  0
   -1.8536   16.5138   18.4243 H   0  0  0  0  0  0  0  0  0  0  0  0
   -3.5246   15.8813   16.9244 H   0  0  0  0  0  0  0  0  0  0  0  0
   -2.1112   14.9110   16.3421 H   0  0  0  0  0  0  0  0  0  0  0  0
   -4.6088   14.0299   17.7683 H   0  0  0  0  0  0  0  0  0  0  0  0
   -3.6917   13.2852   16.3746 H   0  0  0  0  0  0  0  0  0  0  0  0
   -1.8570   12.8324   18.1556 H   0  0  0  0  0  0  0  0  0  0  0  0
   -3.2346   13.0554   19.3320 H   0  0  0  0  0  0  0  0  0  0  0  0
   -4.2032   11.1024   18.7968 H   0  0  0  0  0  0  0  0  0  0  0  0
   -3.7242   11.2469   17.0410 H   0  0  0  0  0  0  0  0  0  0  0  0
   -2.2743    9.6095   17.4376 H   0  0  0  0  0  0  0  0  0  0  0  0
   -1.3270   10.8696   18.3599 H   0  0  0  0  0  0  0  0  0  0  0  0
   -1.6715    9.8680   20.3070 H   0  0  0  0  0  0  0  0  0  0  0  0
   -3.4421    9.6217   19.9331 H   0  0  0  0  0  0  0  0  0  0  0  0
   -1.1341    7.7611   19.6426 H   0  0  0  0  0  0  0  0  0  0  0  0
   -2.8937    7.4656   20.0324 H   0  0  0  0  0  0  0  0  0  0  0  0
   -3.2396    8.1345   17.5190 H   0  0  0  0  0  0  0  0  0  0  0  0
   -1.4912    7.6216   17.3979 H   0  0  0  0  0  0  0  0  0  0  0  0
   -3.1348    5.8256   16.8205 H   0  0  0  0  0  0  0  0  0  0  0  0
   -1.9961    5.4450   18.1968 H   0  0  0  0  0  0  0  0  0  0  0  0
   -4.0137    4.6098   18.9641 H   0  0  0  0  0  0  0  0  0  0  0  0
   -3.9277    6.2828   19.6896 H   0  0  0  0  0  0  0  0  0  0  0  0
   -5.2251    6.5993   17.2218 H   0  0  0  0  0  0  0  0  0  0  0  0
   -5.9344    5.1024   17.9938 H   0  0  0  0  0  0  0  0  0  0  0  0
   -5.6303    7.3153   19.8665 H   0  0  0  0  0  0  0  0  0  0  0  0
   -6.7169    7.6793   18.4286 H   0  0  0  0  0  0  0  0  0  0  0  0
  1  2  1  0
  2  3  1  0
  3  4  1  0
  4  5  1  0
  5  6  1  0
  6  7  1  0
  7  8  1  0
  8  9  1  0
  9 10  1  0
 10 11  1  0
 11 12  1  0
 12 13  1  0
 13 14  1  0
 14 15  2  0
 14 16  1  0
  1 17  1  0
  1 18  1  0
  1 19  1  0
  2 20  1  0
  2 21  1  0
  3 22  1  0
  3 23  1  0
  4 24  1  0
  4 25  1  0
  5 26  1  0
  5 27  1  0
  6 28  1  0
  6 29  1  0
  7 30  1  0
  7 31  1  0
  8 32  1  0
  8 33  1  0
  9 34  1  0
  9 35  1  0
 10 36  1  0
 10 37  1  0
 11 38  1  0
 11 39  1  0
 12 40  1  0
 12 41  1  0
 13 42  1  0
 13 43  1  0
M  CHG  1  16  -1
M  END
>  <meeko>  (5) 
{"is_sidechain": [false], "free_energy": -5.783, "intermolecular_energy": -9.68, "internal_energy": -0.719}

$$$$
3uev_ligand
     RDKit          3D

 43 42  0  0  0  0  0  0  0  0999 V2000
   -3.5960   17.3090   17.3120 C   0  0  0  0  0  0  0  0  0  0  0  0
   -2.8670   15.9970   17.5520 C   0  0  0  0  0  0  0  0  0  0  0  0
   -3.6730   14.8080   17.0270 C   0  0  0  0  0  0  0  0  0  0  0  0
   -3.5580   13.5560   17.9030 C   0  0  0  0  0  0  0  0  0  0  0  0
   -2.2220   13.4560   18.6450 C   0  0  0  0  0  0  0  0  0  0  0  0
   -1.9000   12.0380   19.1330 C   0  0  0  0  0  0  0  0  0  0  0  0
   -2.4750   10.9390   18.2350 C   0  0  0  0  0  0  0  0  0  0  0  0
   -2.7780    9.6360   18.9840 C   0  0  0  0  0  0  0  0  0  0  0  0
   -2.1110    8.4070   18.3620 C   0  0  0  0  0  0  0  0  0  0  0  0
   -2.0070    7.2170   19.3240 C   0  0  0  0  0  0  0  0  0  0  0  0
   -0.5910    6.6450   19.4340 C   0  0  0  0  0  0  0  0  0  0  0  0
   -0.5620    5.1740   19.8620 C   0  0  0  0  0  0  0  0  0  0  0  0
   -1.5420    4.8460   20.9850 C   0  0  0  0  0  0  0  0  0  0  0  0
   -2.5460    3.7320   20.6650 C   0  0  0  0  0  0  0  0  0  0  0  0
   -3.5760    4.0660   20.0190 O   0  0  0  0  0  0  0  0  0  0  0  0
   -2.2040    2.5920   21.0930 O   0  0  0  0  0  0  0  0  0  0  0  0
   -3.8514   17.7686   18.2782 H   0  0  0  0  0  0  0  0  0  0  0  0
   -2.9470   17.9902   16.7421 H   0  0  0  0  0  0  0  0  0  0  0  0
   -4.5172   17.1177   16.7421 H   0  0  0  0  0  0  0  0  0  0  0  0
   -1.8960   16.0272   17.0360 H   0  0  0  0  0  0  0  0  0  0  0  0
   -2.7286   15.8705   18.6359 H   0  0  0  0  0  0  0  0  0  0  0  0
   -4.7321   15.1009   16.9758 H   0  0  0  0  0  0  0  0  0  0  0  0
   -3.2628   14.5503   16.0394 H   0  0  0  0  0  0  0  0  0  0  0  0
   -4.3693   13.5739   18.6456 H   0  0  0  0  0  0  0  0  0  0  0  0
   -3.6259   12.6842   17.2356 H   0  0  0  0  0  0  0  0  0  0  0  0
   -1.4206   13.7810   17.9652 H   0  0  0  0  0  0  0  0  0  0  0  0
   -2.2971   14.0965   19.5361 H   0  0  0  0  0  0  0  0  0  0  0  0
   -0.8067   11.9219   19.1692 H   0  0  0  0  0  0  0  0  0  0  0  0
   -2.3642   11.9230   20.1236 H   0  0  0  0  0  0  0  0  0  0  0  0
   -3.4090   11.3085   17.7865 H   0  0  0  0  0  0  0  0  0  0  0  0
   -1.7124   10.7075   17.4768 H   0  0  0  0  0  0  0  0  0  0  0  0
   -2.4224    9.7387   20.0199 H   0  0  0  0  0  0  0  0  0  0  0  0
   -3.8651    9.4767   18.9309 H   0  0  0  0  0  0  0  0  0  0  0  0
   -2.6998    8.0967   17.4862 H   0  0  0  0  0  0  0  0  0  0  0  0
   -1.0847    8.6966   18.0922 H   0  0  0  0  0  0  0  0  0  0  0  0
   -2.3281    7.5473   20.3229 H   0  0  0  0  0  0  0  0  0  0  0  0
   -2.6491    6.4188   18.9232 H   0  0  0  0  0  0  0  0  0  0  0  0
   -0.1021    6.7326   18.4525 H   0  0  0  0  0  0  0  0  0  0  0  0
   -0.0671    7.2204   20.2115 H   0  0  0  0  0  0  0  0  0  0  0  0
   -0.8122    4.5527   18.9894 H   0  0  0  0  0  0  0  0  0  0  0  0
    0.4486    4.9689   20.2450 H   0  0  0  0  0  0  0  0  0  0  0  0
   -0.9602    4.5381   21.8663 H   0  0  0  0  0  0  0  0  0  0  0  0
   -2.1362    5.7569   21.1499 H   0  0  0  0  0  0  0  0  0  0  0  0
  1  2  1  0
  2  3  1  0
  3  4  1  0
  4  5  1  0
  5  6  1  0
  6  7  1  0
  7  8  1  0
  8  9  1  0
  9 10  1  0
 10 11  1  0
 11 12  1  0
 12 13  1  0
 13 14  1  0
 14 15  2  0
 14 16  1  0
  1 17  1  0
  1 18  1  0
  1 19  1  0
  2 20  1  0
  2 21  1  0
  3 22  1  0
  3 23  1  0
  4 24  1  0
  4 25  1  0
  5 26  1  0
  5 27  1  0
  6 28  1  0
  6 29  1  0
  7 30  1  0
  7 31  1  0
  8 32  1  0
  8 33  1  0
  9 34  1  0
  9 35  1  0
 10 36  1  0
 10 37  1  0
 11 38  1  0
 11 39  1  0
 12 40  1  0
 12 41  1  0
 13 42  1  0
 13 43  1  0
M  CHG  1  16  -1
M  END
>  <meeko>  (6) 
{"is_sidechain": [false], "free_energy": -5.708, "intermolecular_energy": -9.753, "internal_energy": -0.519}

$$$$
3uev_ligand
     RDKit          3D

 43 42  0  0  0  0  0  0  0  0999 V2000
   -3.2970   17.3090   17.7900 C   0  0  0  0  0  0  0  0  0  0  0  0
   -4.0400   16.1650   17.1190 C   0  0  0  0  0  0  0  0  0  0  0  0
   -3.0840   15.0440   16.7090 C   0  0  0  0  0  0  0  0  0  0  0  0
   -2.0680   14.6790   17.7980 C   0  0  0  0  0  0  0  0  0  0  0  0
   -2.4220   13.3920   18.5490 C   0  0  0  0  0  0  0  0  0  0  0  0
   -3.7180   12.7360   18.0570 C   0  0  0  0  0  0  0  0  0  0  0  0
   -3.6340   11.2090   17.9720 C   0  0  0  0  0  0  0  0  0  0  0  0
   -2.4210   10.6240   18.7050 C   0  0  0  0  0  0  0  0  0  0  0  0
   -2.1940    9.1380   18.4170 C   0  0  0  0  0  0  0  0  0  0  0  0
   -2.3860    8.2420   19.6460 C   0  0  0  0  0  0  0  0  0  0  0  0
   -2.5310    6.7570   19.3010 C   0  0  0  0  0  0  0  0  0  0  0  0
   -2.7610    6.5020   17.8070 C   0  0  0  0  0  0  0  0  0  0  0  0
   -3.6920    5.3260   17.5260 C   0  0  0  0  0  0  0  0  0  0  0  0
   -2.9910    3.9760   17.3330 C   0  0  0  0  0  0  0  0  0  0  0  0
   -2.2200    3.6010   18.2580 O   0  0  0  0  0  0  0  0  0  0  0  0
   -3.2860    3.3920   16.2500 O   0  0  0  0  0  0  0  0  0  0  0  0
   -3.3671   17.2010   18.8824 H   0  0  0  0  0  0  0  0  0  0  0  0
   -2.2399   17.2877   17.4865 H   0  0  0  0  0  0  0  0  0  0  0  0
   -3.7463   18.2661   17.4865 H   0  0  0  0  0  0  0  0  0  0  0  0
   -4.7849   15.7615   17.8206 H   0  0  0  0  0  0  0  0  0  0  0  0
   -4.5279   16.5530   16.2127 H   0  0  0  0  0  0  0  0  0  0  0  0
   -3.6779   14.1488   16.4725 H   0  0  0  0  0  0  0  0  0  0  0  0
   -2.5129   15.4063   15.8415 H   0  0  0  0  0  0  0  0  0  0  0  0
   -1.0826   14.5486   17.3268 H   0  0  0  0  0  0  0  0  0  0  0  0
   -2.0704   15.4969   18.5335 H   0  0  0  0  0  0  0  0  0  0  0  0
   -1.5977   12.6752   18.4200 H   0  0  0  0  0  0  0  0  0  0  0  0
   -2.5759   13.6636   19.6038 H   0  0  0  0  0  0  0  0  0  0  0  0
   -4.5287   13.0023   18.7512 H   0  0  0  0  0  0  0  0  0  0  0  0
   -3.9031   13.1077   17.0384 H   0  0  0  0  0  0  0  0  0  0  0  0
   -4.5470   10.7844   18.4148 H   0  0  0  0  0  0  0  0  0  0  0  0
   -3.5275   10.9484   16.9086 H   0  0  0  0  0  0  0  0  0  0  0  0
   -1.5244   11.1802   18.3940 H   0  0  0  0  0  0  0  0  0  0  0  0
   -2.6168   10.7191   19.7832 H   0  0  0  0  0  0  0  0  0  0  0  0
   -2.9054    8.8210   17.6402 H   0  0  0  0  0  0  0  0  0  0  0  0
   -1.1482    9.0264   18.0947 H   0  0  0  0  0  0  0  0  0  0  0  0
   -1.5137    8.3630   20.3051 H   0  0  0  0  0  0  0  0  0  0  0  0
   -3.3219    8.5547   20.1321 H   0  0  0  0  0  0  0  0  0  0  0  0
   -1.6117    6.2360   19.6068 H   0  0  0  0  0  0  0  0  0  0  0  0
   -3.4165    6.3829   19.8358 H   0  0  0  0  0  0  0  0  0  0  0  0
   -3.2002    7.4075   17.3629 H   0  0  0  0  0  0  0  0  0  0  0  0
   -1.7839    6.2531   17.3673 H   0  0  0  0  0  0  0  0  0  0  0  0
   -4.3874    5.2314   18.3731 H   0  0  0  0  0  0  0  0  0  0  0  0
   -4.1927    5.5513   16.5728 H   0  0  0  0  0  0  0  0  0  0  0  0
  1  2  1  0
  2  3  1  0
  3  4  1  0
  4  5  1  0
  5  6  1  0
  6  7  1  0
  7  8  1  0
  8  9  1  0
  9 10  1  0
 10 11  1  0
 11 12  1  0
 12 13  1  0
 13 14  1  0
 14 15  2  0
 14 16  1  0
  1 17  1  0
  1 18  1  0
  1 19  1  0
  2 20  1  0
  2 21  1  0
  3 22  1  0
  3 23  1  0
  4 24  1  0
  4 25  1  0
  5 26  1  0
  5 27  1  0
  6 28  1  0
  6 29  1  0
  7 30  1  0
  7 31  1  0
  8 32  1  0
  8 33  1  0
  9 34  1  0
  9 35  1  0
 10 36  1  0
 10 37  1  0
 11 38  1  0
 11 39  1  0
 12 40  1  0
 12 41  1  0
 13 42  1  0
 13 43  1  0
M  CHG  1  16  -1
M  END
>  <meeko>  (7) 
{"is_sidechain": [false], "free_energy": -5.627, "intermolecular_energy": -9.573, "internal_energy": -0.561}

$$$$
3uev_ligand
     RDKit          3D

 43 42  0  0  0  0  0  0  0  0999 V2000
   -5.1690    6.2320   18.9390 C   0  0  0  0  0  0  0  0  0  0  0  0
   -4.0790    5.2710   19.3840 C   0  0  0  0  0  0  0  0  0  0  0  0
   -3.2970    5.8280   20.5750 C   0  0  0  0  0  0  0  0  0  0  0  0
   -1.7950    5.5260   20.5160 C   0  0  0  0  0  0  0  0  0  0  0  0
   -0.9870    6.6130   19.8020 C   0  0  0  0  0  0  0  0  0  0  0  0
   -1.7210    7.9580   19.7110 C   0  0  0  0  0  0  0  0  0  0  0  0
   -2.0060    8.4000   18.2740 C   0  0  0  0  0  0  0  0  0  0  0  0
   -2.4890    9.8520   18.1670 C   0  0  0  0  0  0  0  0  0  0  0  0
   -2.0690   10.7220   19.3550 C   0  0  0  0  0  0  0  0  0  0  0  0
   -2.2470   12.2240   19.1030 C   0  0  0  0  0  0  0  0  0  0  0  0
   -3.0040   12.5390   17.8100 C   0  0  0  0  0  0  0  0  0  0  0  0
   -3.8460   13.8170   17.8970 C   0  0  0  0  0  0  0  0  0  0  0  0
   -3.2840   14.9750   17.0770 C   0  0  0  0  0  0  0  0  0  0  0  0
   -2.6930   16.1250   17.9010 C   0  0  0  0  0  0  0  0  0  0  0  0
   -1.7260   15.8410   18.6580 O   0  0  0  0  0  0  0  0  0  0  0  0
   -3.2600   17.2400   17.7080 O   0  0  0  0  0  0  0  0  0  0  0  0
   -5.6598    6.6647   19.8233 H   0  0  0  0  0  0  0  0  0  0  0  0
   -4.7241    7.0371   18.3358 H   0  0  0  0  0  0  0  0  0  0  0  0
   -5.9121    5.6897   18.3358 H   0  0  0  0  0  0  0  0  0  0  0  0
   -4.5406    4.3156   19.6740 H   0  0  0  0  0  0  0  0  0  0  0  0
   -3.3800    5.1281   18.5468 H   0  0  0  0  0  0  0  0  0  0  0  0
   -3.4319    6.9194   20.6003 H   0  0  0  0  0  0  0  0  0  0  0  0
   -3.6902    5.3378   21.4778 H   0  0  0  0  0  0  0  0  0  0  0  0
   -1.4175    5.4291   21.5447 H   0  0  0  0  0  0  0  0  0  0  0  0
   -1.6716    4.5968   19.9404 H   0  0  0  0  0  0  0  0  0  0  0  0
   -0.0463    6.7657   20.3514 H   0  0  0  0  0  0  0  0  0  0  0  0
   -0.8157    6.2664   18.7722 H   0  0  0  0  0  0  0  0  0  0  0  0
   -2.6787    7.8691   20.2447 H   0  0  0  0  0  0  0  0  0  0  0  0
   -1.0634    8.7173   20.1594 H   0  0  0  0  0  0  0  0  0  0  0  0
   -1.0812    8.2962   17.6875 H   0  0  0  0  0  0  0  0  0  0  0  0
   -2.8150    7.7600   17.8921 H   0  0  0  0  0  0  0  0  0  0  0  0
   -2.0723   10.2913   17.2486 H   0  0  0  0  0  0  0  0  0  0  0  0
   -3.5887    9.8282   18.1548 H   0  0  0  0  0  0  0  0  0  0  0  0
   -2.6784   10.4400   20.2263 H   0  0  0  0  0  0  0  0  0  0  0  0
   -0.9963   10.5459   19.5232 H   0  0  0  0  0  0  0  0  0  0  0  0
   -2.8048   12.6553   19.9473 H   0  0  0  0  0  0  0  0  0  0  0  0
   -1.2410   12.6577   19.0037 H   0  0  0  0  0  0  0  0  0  0  0  0
   -2.2725   12.6574   16.9970 H   0  0  0  0  0  0  0  0  0  0  0  0
   -3.6964   11.7043   17.6259 H   0  0  0  0  0  0  0  0  0  0  0  0
   -4.8590   13.5917   17.5321 H   0  0  0  0  0  0  0  0  0  0  0  0
   -3.8422   14.1352   18.9500 H   0  0  0  0  0  0  0  0  0  0  0  0
   -2.4908   14.5788   16.4259 H   0  0  0  0  0  0  0  0  0  0  0  0
   -4.1334   15.3993   16.5216 H   0  0  0  0  0  0  0  0  0  0  0  0
  1  2  1  0
  2  3  1  0
  3  4  1  0
  4  5  1  0
  5  6  1  0
  6  7  1  0
  7  8  1  0
  8  9  1  0
  9 10  1  0
 10 11  1  0
 11 12  1  0
 12 13  1  0
 13 14  1  0
 14 15  2  0
 14 16  1  0
  1 17  1  0
  1 18  1  0
  1 19  1  0
  2 20  1  0
  2 21  1  0
  3 22  1  0
  3 23  1  0
  4 24  1  0
  4 25  1  0
  5 26  1  0
  5 27  1  0
  6 28  1  0
  6 29  1  0
  7 30  1  0
  7 31  1  0
  8 32  1  0
  8 33  1  0
  9 34  1  0
  9 35  1  0
 10 36  1  0
 10 37  1  0
 11 38  1  0
 11 39  1  0
 12 40  1  0
 12 41  1  0
 13 42  1  0
 13 43  1  0
M  CHG  1  16  -1
M  END
>  <meeko>  (8) 
{"is_sidechain": [false], "free_energy": -5.522, "intermolecular_energy": -9.074, "internal_energy": -0.882}

$$$$
3uev_ligand
     RDKit          3D

 43 42  0  0  0  0  0  0  0  0999 V2000
   -1.4620   15.9920   18.6330 C   0  0  0  0  0  0  0  0  0  0  0  0
   -2.4740   17.0910   18.3510 C   0  0  0  0  0  0  0  0  0  0  0  0
   -3.1950   16.8570   17.0220 C   0  0  0  0  0  0  0  0  0  0  0  0
   -4.1680   15.6730   17.0550 C   0  0  0  0  0  0  0  0  0  0  0  0
   -3.6430   14.4370   16.3190 C   0  0  0  0  0  0  0  0  0  0  0  0
   -3.9130   13.1230   17.0640 C   0  0  0  0  0  0  0  0  0  0  0  0
   -3.0970   12.9750   18.3510 C   0  0  0  0  0  0  0  0  0  0  0  0
   -3.2280   11.5910   19.0000 C   0  0  0  0  0  0  0  0  0  0  0  0
   -3.2880   10.4470   17.9850 C   0  0  0  0  0  0  0  0  0  0  0  0
   -2.1980    9.3880   18.1950 C   0  0  0  0  0  0  0  0  0  0  0  0
   -2.5360    8.3750   19.2920 C   0  0  0  0  0  0  0  0  0  0  0  0
   -1.3410    7.5120   19.7100 C   0  0  0  0  0  0  0  0  0  0  0  0
   -1.6980    6.0470   19.9430 C   0  0  0  0  0  0  0  0  0  0  0  0
   -0.5990    5.0450   19.5690 C   0  0  0  0  0  0  0  0  0  0  0  0
   -0.9090    3.8230   19.6090 O   0  0  0  0  0  0  0  0  0  0  0  0
    0.5030    5.5820   19.2550 O   0  0  0  0  0  0  0  0  0  0  0  0
   -1.3482   15.8685   19.7201 H   0  0  0  0  0  0  0  0  0  0  0  0
   -1.8135   15.0478   18.1915 H   0  0  0  0  0  0  0  0  0  0  0  0
   -0.4921   16.2646   18.1915 H   0  0  0  0  0  0  0  0  0  0  0  0
   -3.2164   17.1109   19.1625 H   0  0  0  0  0  0  0  0  0  0  0  0
   -1.9372   18.0492   18.2901 H   0  0  0  0  0  0  0  0  0  0  0  0
   -3.7606   17.7656   16.7679 H   0  0  0  0  0  0  0  0  0  0  0  0
   -2.4247   16.6222   16.2727 H   0  0  0  0  0  0  0  0  0  0  0  0
   -4.3526   15.4019   18.1050 H   0  0  0  0  0  0  0  0  0  0  0  0
   -5.0870   15.9921   16.5416 H   0  0  0  0  0  0  0  0  0  0  0  0
   -4.1293   14.3853   15.3337 H   0  0  0  0  0  0  0  0  0  0  0  0
   -2.5514   14.5463   16.2390 H   0  0  0  0  0  0  0  0  0  0  0  0
   -4.9815   13.0816   17.3219 H   0  0  0  0  0  0  0  0  0  0  0  0
   -3.6149   12.3028   16.3943 H   0  0  0  0  0  0  0  0  0  0  0  0
   -2.0372   13.1500   18.1139 H   0  0  0  0  0  0  0  0  0  0  0  0
   -3.4890   13.7092   19.0702 H   0  0  0  0  0  0  0  0  0  0  0  0
   -2.3599   11.4299   19.6560 H   0  0  0  0  0  0  0  0  0  0  0  0
   -4.1769   11.5817   19.5563 H   0  0  0  0  0  0  0  0  0  0  0  0
   -4.2698    9.9580   18.0684 H   0  0  0  0  0  0  0  0  0  0  0  0
   -3.1257   10.8870   16.9900 H   0  0  0  0  0  0  0  0  0  0  0  0
   -2.0546    8.8435   17.2501 H   0  0  0  0  0  0  0  0  0  0  0  0
   -1.2879    9.9181   18.5125 H   0  0  0  0  0  0  0  0  0  0  0  0
   -2.8960    8.9237   20.1748 H   0  0  0  0  0  0  0  0  0  0  0  0
   -3.3005    7.6970   18.8847 H   0  0  0  0  0  0  0  0  0  0  0  0
   -0.5808    7.5628   18.9166 H   0  0  0  0  0  0  0  0  0  0  0  0
   -0.9738    7.9109   20.6671 H   0  0  0  0  0  0  0  0  0  0  0  0
   -1.9288    5.9176   21.0107 H   0  0  0  0  0  0  0  0  0  0  0  0
   -2.5503    5.8294   19.2825 H   0  0  0  0  0  0  0  0  0  0  0  0
  1  2  1  0
  2  3  1  0
  3  4  1  0
  4  5  1  0
  5  6  1  0
  6  7  1  0
  7  8  1  0
  8  9  1  0
  9 10  1  0
 10 11  1  0
 11 12  1  0
 12 13  1  0
 13 14  1  0
 14 15  2  0
 14 16  1  0
  1 17  1  0
  1 18  1  0
  1 19  1  0
  2 20  1  0
  2 21  1  0
  3 22  1  0
  3 23  1  0
  4 24  1  0
  4 25  1  0
  5 26  1  0
  5 27  1  0
  6 28  1  0
  6 29  1  0
  7 30  1  0
  7 31  1  0
  8 32  1  0
  8 33  1  0
  9 34  1  0
  9 35  1  0
 10 36  1  0
 10 37  1  0
 11 38  1  0
 11 39  1  0
 12 40  1  0
 12 41  1  0
 13 42  1  0
 13 43  1  0
M  CHG  1  16  -1
M  END
>  <meeko>  (9) 
{"is_sidechain": [false], "free_energy": -5.378, "intermolecular_energy": -9.187, "internal_energy": -0.523}

$$$$
