2wer_ligand
     RDKit          3D

 42 44  0  0  0  0  0  0  0  0999 V2000
    9.0140   70.8190   -1.6610 C   0  0  0  0  0  0  0  0  0  0  0  0
    8.4690   72.2420   -1.5660 C   0  0  2  0  0  0  0  0  0  0  0  0
    7.5140   72.4170   -0.3620 C   0  0  0  0  0  0  0  0  0  0  0  0
    8.0340   73.3700    0.6750 C   0  0  1  0  0  0  0  0  0  0  0  0
    8.1260   72.9010    2.0220 O   0  0  0  0  0  0  0  0  0  0  0  0
    9.3720   73.0600    1.3300 C   0  0  2  0  0  0  0  0  0  0  0  0
   10.2830   74.2060    1.4450 C   0  0  0  0  0  0  0  0  0  0  0  0
   10.8830   74.8390    0.4200 C   0  0  0  0  0  0  0  0  0  0  0  0
   10.7330   74.4150   -0.9550 C   0  0  0  0  0  0  0  0  0  0  0  0
   11.7160   73.9100   -1.7100 C   0  0  0  0  0  0  0  0  0  0  0  0
   11.3780   73.6300   -3.1300 C   0  0  0  0  0  0  0  0  0  0  0  0
   11.6930   72.5460   -3.6230 O   0  0  0  0  0  0  0  0  0  0  0  0
   10.6360   74.6730   -3.9480 C   0  0  0  0  0  0  0  0  0  0  0  0
    9.6750   74.1380   -4.9920 C   0  0  0  0  0  0  0  0  0  0  0  0
   10.0450   74.0450   -6.3520 C   0  0  0  0  0  0  0  0  0  0  0  0
   11.6200   74.5470   -6.8810 Cl  0  0  0  0  0  0  0  0  0  0  0  0
    9.1340   73.5680   -7.3120 C   0  0  0  0  0  0  0  0  0  0  0  0
    9.5140   73.4910   -8.6250 O   0  0  0  0  0  0  0  0  0  0  0  0
    7.8470   73.1790   -6.9490 C   0  0  0  0  0  0  0  0  0  0  0  0
    7.4640   73.2760   -5.6160 C   0  0  0  0  0  0  0  0  0  0  0  0
    6.2020   72.8970   -5.2480 O   0  0  0  0  0  0  0  0  0  0  0  0
    8.3590   73.7570   -4.6450 C   0  0  0  0  0  0  0  0  0  0  0  0
    7.8790   73.8220   -3.2490 C   0  0  0  0  0  0  0  0  0  0  0  0
    7.6440   74.8580   -2.6560 O   0  0  0  0  0  0  0  0  0  0  0  0
    7.7690   72.5540   -2.7900 O   0  0  0  0  0  0  0  0  0  0  0  0
    9.1680   70.4170   -0.6487 H   0  0  0  0  0  0  0  0  0  0  0  0
    8.2946   70.1862   -2.2014 H   0  0  0  0  0  0  0  0  0  0  0  0
    9.9721   70.8286   -2.2014 H   0  0  0  0  0  0  0  0  0  0  0  0
    9.3163   72.9274   -1.4166 H   0  0  0  0  0  0  0  0  0  0  0  0
    6.5504   72.7964   -0.7329 H   0  0  0  0  0  0  0  0  0  0  0  0
    7.4143   71.4334    0.1203 H   0  0  0  0  0  0  0  0  0  0  0  0
    7.5893   74.2385    0.1671 H   0  0  0  0  0  0  0  0  0  0  0  0
   10.2381   72.3893    1.2299 H   0  0  0  0  0  0  0  0  0  0  0  0
   10.4935   74.5799    2.4579 H   0  0  0  0  0  0  0  0  0  0  0  0
   11.5130   75.7143    0.6365 H   0  0  0  0  0  0  0  0  0  0  0  0
    9.7382   74.5150   -1.4136 H   0  0  0  0  0  0  0  0  0  0  0  0
   12.7185   73.7131   -1.3022 H   0  0  0  0  0  0  0  0  0  0  0  0
   10.0609   75.3006   -3.2513 H   0  0  0  0  0  0  0  0  0  0  0  0
   11.4107   75.2167   -4.5086 H   0  0  0  0  0  0  0  0  0  0  0  0
   10.2240   72.8370   -8.7350 H   0  0  0  0  0  0  0  0  0  0  0  0
    7.1439   72.8006   -7.7057 H   0  0  0  0  0  0  0  0  0  0  0  0
    5.6280   73.6750   -5.1500 H   0  0  0  0  0  0  0  0  0  0  0  0
  1  2  1  0
  2  3  1  0
  3  4  1  0
  4  5  1  0
  5  6  1  0
  6  7  1  0
  7  8  2  0
  8  9  1  0
  9 10  2  0
 10 11  1  0
 11 12  2  0
 11 13  1  0
 13 14  1  0
 14 15  2  0
 15 16  1  0
 15 17  1  0
 17 18  1  0
 17 19  2  0
 19 20  1  0
 20 21  1  0
 20 22  2  0
 22 23  1  0
 23 24  2  0
 23 25  1  0
 25  2  1  0
  6  4  1  0
 22 14  1  0
  1 26  1  0
  1 27  1  0
  1 28  1  0
  2 29  1  1
  3 30  1  0
  3 31  1  0
  4 32  1  1
  6 33  1  6
  7 34  1  0
  8 35  1  0
  9 36  1  0
 10 37  1  0
 13 38  1  0
 13 39  1  0
 18 40  1  0
 19 41  1  0
 21 42  1  0
M  END
>  <meeko>  (1) 
{"is_sidechain": [false], "free_energy": -5.72, "intermolecular_energy": -9.064, "internal_energy": -0.28}

$$$$
2wer_ligand
     RDKit          3D

 42 44  0  0  0  0  0  0  0  0999 V2000
    5.9700   72.9290    1.0170 C   0  0  0  0  0  0  0  0  0  0  0  0
    7.4800   73.0170    1.2280 C   0  0  2  0  0  0  0  0  0  0  0  0
    8.1930   71.7230    0.7580 C   0  0  0  0  0  0  0  0  0  0  0  0
    8.9220   71.8660   -0.5460 C   0  0  1  0  0  0  0  0  0  0  0  0
    8.1400   71.9520   -1.7390 O   0  0  0  0  0  0  0  0  0  0  0  0
    8.7690   73.1690   -1.3170 C   0  0  2  0  0  0  0  0  0  0  0  0
   10.0210   73.7240   -1.8480 C   0  0  0  0  0  0  0  0  0  0  0  0
   10.9250   74.4340   -1.1490 C   0  0  0  0  0  0  0  0  0  0  0  0
   10.7330   74.7890    0.2410 C   0  0  0  0  0  0  0  0  0  0  0  0
   11.5040   74.3660    1.2500 C   0  0  0  0  0  0  0  0  0  0  0  0
   11.0760   74.7640    2.6170 C   0  0  0  0  0  0  0  0  0  0  0  0
   10.9720   75.9600    2.8920 O   0  0  0  0  0  0  0  0  0  0  0  0
   10.7570   73.6950    3.6480 C   0  0  0  0  0  0  0  0  0  0  0  0
    9.7810   74.0940    4.7380 C   0  0  0  0  0  0  0  0  0  0  0  0
   10.1530   74.0770    6.0990 C   0  0  0  0  0  0  0  0  0  0  0  0
   11.7500   73.5940    6.5780 Cl  0  0  0  0  0  0  0  0  0  0  0  0
    9.2290   74.4280    7.1000 C   0  0  0  0  0  0  0  0  0  0  0  0
    9.6120   74.4000    8.4140 O   0  0  0  0  0  0  0  0  0  0  0  0
    7.9260   74.7960    6.7760 C   0  0  0  0  0  0  0  0  0  0  0  0
    7.5400   74.8050    5.4400 C   0  0  0  0  0  0  0  0  0  0  0  0
    6.2620   75.1650    5.1090 O   0  0  0  0  0  0  0  0  0  0  0  0
    8.4490   74.4510    4.4280 C   0  0  0  0  0  0  0  0  0  0  0  0
    7.9650   74.4940    3.0330 C   0  0  0  0  0  0  0  0  0  0  0  0
    7.8030   75.5190    2.3980 O   0  0  0  0  0  0  0  0  0  0  0  0
    7.7420   73.2210    2.6320 O   0  0  0  0  0  0  0  0  0  0  0  0
    5.4644   72.8995    1.9935 H   0  0  0  0  0  0  0  0  0  0  0  0
    5.6267   73.8087    0.4528 H   0  0  0  0  0  0  0  0  0  0  0  0
    5.7312   72.0154    0.4528 H   0  0  0  0  0  0  0  0  0  0  0  0
    7.8684   73.8568    0.6331 H   0  0  0  0  0  0  0  0  0  0  0  0
    8.9195   71.4287    1.5298 H   0  0  0  0  0  0  0  0  0  0  0  0
    7.4094   70.9667    0.6029 H   0  0  0  0  0  0  0  0  0  0  0  0
    9.7660   71.2546   -0.1941 H   0  0  0  0  0  0  0  0  0  0  0  0
    8.3739   74.1892   -1.2023 H   0  0  0  0  0  0  0  0  0  0  0  0
   10.2387   73.5432   -2.9110 H   0  0  0  0  0  0  0  0  0  0  0  0
   11.8470   74.7577   -1.6541 H   0  0  0  0  0  0  0  0  0  0  0  0
    9.8924   75.4548    0.4859 H   0  0  0  0  0  0  0  0  0  0  0  0
   12.4042   73.7578    1.0774 H   0  0  0  0  0  0  0  0  0  0  0  0
   10.3330   72.8304    3.1164 H   0  0  0  0  0  0  0  0  0  0  0  0
   11.7067   73.4854    4.1620 H   0  0  0  0  0  0  0  0  0  0  0  0
    9.9450   73.5190    8.6520 H   0  0  0  0  0  0  0  0  0  0  0  0
    7.2124   75.0755    7.5651 H   0  0  0  0  0  0  0  0  0  0  0  0
    6.2090   76.1220    4.9540 H   0  0  0  0  0  0  0  0  0  0  0  0
  1  2  1  0
  2  3  1  0
  3  4  1  0
  4  5  1  0
  5  6  1  0
  6  7  1  0
  7  8  2  0
  8  9  1  0
  9 10  2  0
 10 11  1  0
 11 12  2  0
 11 13  1  0
 13 14  1  0
 14 15  2  0
 15 16  1  0
 15 17  1  0
 17 18  1  0
 17 19  2  0
 19 20  1  0
 20 21  1  0
 20 22  2  0
 22 23  1  0
 23 24  2  0
 23 25  1  0
 25  2  1  0
  6  4  1  0
 22 14  1  0
  1 26  1  0
  1 27  1  0
  1 28  1  0
  2 29  1  6
  3 30  1  0
  3 31  1  0
  4 32  1  6
  6 33  1  1
  7 34  1  0
  8 35  1  0
  9 36  1  0
 10 37  1  0
 13 38  1  0
 13 39  1  0
 18 40  1  0
 19 41  1  0
 21 42  1  0
M  END
>  <meeko>  (2) 
{"is_sidechain": [false], "free_energy": -5.671, "intermolecular_energy": -9.418, "internal_energy": 0.151}

$$$$
2wer_ligand
     RDKit          3D

 42 44  0  0  0  0  0  0  0  0999 V2000
   11.0870   73.2060   -0.1070 C   0  0  0  0  0  0  0  0  0  0  0  0
   11.1970   74.6510   -0.5900 C   0  0  2  0  0  0  0  0  0  0  0  0
   10.3200   75.5830    0.2730 C   0  0  0  0  0  0  0  0  0  0  0  0
    9.6710   74.8900    1.4350 C   0  0  1  0  0  0  0  0  0  0  0  0
    9.0060   75.7020    2.4060 O   0  0  0  0  0  0  0  0  0  0  0  0
    8.1540   74.9360    1.5440 C   0  0  2  0  0  0  0  0  0  0  0  0
    7.5190   73.6530    1.8750 C   0  0  0  0  0  0  0  0  0  0  0  0
    7.2670   72.6550    1.0080 C   0  0  0  0  0  0  0  0  0  0  0  0
    7.5560   72.7570   -0.4060 C   0  0  0  0  0  0  0  0  0  0  0  0
    8.1860   71.8210   -1.1260 C   0  0  0  0  0  0  0  0  0  0  0  0
    8.4750   72.1640   -2.5430 C   0  0  0  0  0  0  0  0  0  0  0  0
    8.5630   71.2610   -3.3770 O   0  0  0  0  0  0  0  0  0  0  0  0
    8.6400   73.6190   -2.9480 C   0  0  0  0  0  0  0  0  0  0  0  0
    9.4360   73.8700   -4.2140 C   0  0  0  0  0  0  0  0  0  0  0  0
    8.8210   73.8480   -5.4840 C   0  0  0  0  0  0  0  0  0  0  0  0
    7.1220   73.5290   -5.6450 Cl  0  0  0  0  0  0  0  0  0  0  0  0
    9.5780   74.0600   -6.6510 C   0  0  0  0  0  0  0  0  0  0  0  0
    8.9600   74.0310   -7.8730 O   0  0  0  0  0  0  0  0  0  0  0  0
   10.9490   74.2920   -6.5840 C   0  0  0  0  0  0  0  0  0  0  0  0
   11.5720   74.3030   -5.3410 C   0  0  0  0  0  0  0  0  0  0  0  0
   12.9190   74.5300   -5.2630 O   0  0  0  0  0  0  0  0  0  0  0  0
   10.8320   74.0870   -4.1660 C   0  0  0  0  0  0  0  0  0  0  0  0
   11.5650   74.1230   -2.8840 C   0  0  0  0  0  0  0  0  0  0  0  0
   12.6870   73.6790   -2.7260 O   0  0  0  0  0  0  0  0  0  0  0  0
   10.7660   74.7150   -1.9660 O   0  0  0  0  0  0  0  0  0  0  0  0
   11.0855   73.1861    0.9928 H   0  0  0  0  0  0  0  0  0  0  0  0
   10.1526   72.7638   -0.4830 H   0  0  0  0  0  0  0  0  0  0  0  0
   11.9437   72.6275   -0.4830 H   0  0  0  0  0  0  0  0  0  0  0  0
   12.2422   74.9826   -0.5031 H   0  0  0  0  0  0  0  0  0  0  0  0
   10.9525   76.3949    0.6612 H   0  0  0  0  0  0  0  0  0  0  0  0
    9.5116   75.9556   -0.3733 H   0  0  0  0  0  0  0  0  0  0  0  0
   10.4373   74.1011    1.4526 H   0  0  0  0  0  0  0  0  0  0  0  0
    7.2634   75.2197    0.9640 H   0  0  0  0  0  0  0  0  0  0  0  0
    7.2239   73.4944    2.9227 H   0  0  0  0  0  0  0  0  0  0  0  0
    6.8232   71.7238    1.3900 H   0  0  0  0  0  0  0  0  0  0  0  0
    7.2344   73.6706   -0.9274 H   0  0  0  0  0  0  0  0  0  0  0  0
    8.4739   70.8516   -0.6930 H   0  0  0  0  0  0  0  0  0  0  0  0
    7.6358   74.0443   -3.0919 H   0  0  0  0  0  0  0  0  0  0  0  0
    9.2159   74.0892   -2.1373 H   0  0  0  0  0  0  0  0  0  0  0  0
    9.1040   74.8670   -8.3450 H   0  0  0  0  0  0  0  0  0  0  0  0
   11.5311   74.4642   -7.5013 H   0  0  0  0  0  0  0  0  0  0  0  0
   13.0940   75.4040   -4.8760 H   0  0  0  0  0  0  0  0  0  0  0  0
  1  2  1  0
  2  3  1  0
  3  4  1  0
  4  5  1  0
  5  6  1  0
  6  7  1  0
  7  8  2  0
  8  9  1  0
  9 10  2  0
 10 11  1  0
 11 12  2  0
 11 13  1  0
 13 14  1  0
 14 15  2  0
 15 16  1  0
 15 17  1  0
 17 18  1  0
 17 19  2  0
 19 20  1  0
 20 21  1  0
 20 22  2  0
 22 23  1  0
 23 24  2  0
 23 25  1  0
 25  2  1  0
  6  4  1  0
 22 14  1  0
  1 26  1  0
  1 27  1  0
  1 28  1  0
  2 29  1  6
  3 30  1  0
  3 31  1  0
  4 32  1  1
  6 33  1  6
  7 34  1  0
  8 35  1  0
  9 36  1  0
 10 37  1  0
 13 38  1  0
 13 39  1  0
 18 40  1  0
 19 41  1  0
 21 42  1  0
M  END
>  <meeko>  (3) 
{"is_sidechain": [false], "free_energy": -5.541, "intermolecular_energy": -8.99, "internal_energy": -0.07}

$$$$
2wer_ligand
     RDKit          3D

 42 44  0  0  0  0  0  0  0  0999 V2000
   11.0080   75.0110    0.1300 C   0  0  0  0  0  0  0  0  0  0  0  0
   11.1580   73.5610    0.5880 C   0  0  2  0  0  0  0  0  0  0  0  0
   10.3220   72.6050   -0.2690 C   0  0  0  0  0  0  0  0  0  0  0  0
    9.6460   73.2690   -1.4330 C   0  0  1  0  0  0  0  0  0  0  0  0
    9.0160   72.4280   -2.4030 O   0  0  0  0  0  0  0  0  0  0  0  0
    8.1320   73.1600   -1.5430 C   0  0  2  0  0  0  0  0  0  0  0  0
    7.4450   74.4140   -1.8770 C   0  0  0  0  0  0  0  0  0  0  0  0
    7.1340   75.3950   -1.0090 C   0  0  0  0  0  0  0  0  0  0  0  0
    7.4050   75.2970    0.4080 C   0  0  0  0  0  0  0  0  0  0  0  0
    8.0930   76.2000    1.1180 C   0  0  0  0  0  0  0  0  0  0  0  0
    8.3470   75.8620    2.5430 C   0  0  0  0  0  0  0  0  0  0  0  0
    8.3410   76.7600    3.3870 O   0  0  0  0  0  0  0  0  0  0  0  0
    8.5930   74.4170    2.9430 C   0  0  0  0  0  0  0  0  0  0  0  0
    9.3910   74.2070    4.2150 C   0  0  0  0  0  0  0  0  0  0  0  0
    8.7710   74.2200    5.4830 C   0  0  0  0  0  0  0  0  0  0  0  0
    7.0610   74.4830    5.6330 Cl  0  0  0  0  0  0  0  0  0  0  0  0
    9.5290   74.0460    6.6550 C   0  0  0  0  0  0  0  0  0  0  0  0
    8.9050   74.0680    7.8730 O   0  0  0  0  0  0  0  0  0  0  0  0
   10.9080   73.8610    6.5960 C   0  0  0  0  0  0  0  0  0  0  0  0
   11.5360   73.8580    5.3550 C   0  0  0  0  0  0  0  0  0  0  0  0
   12.8900   73.6760    5.2860 O   0  0  0  0  0  0  0  0  0  0  0  0
   10.7940   74.0360    4.1750 C   0  0  0  0  0  0  0  0  0  0  0  0
   11.5340   74.0120    2.8970 C   0  0  0  0  0  0  0  0  0  0  0  0
   12.6670   74.4320    2.7550 O   0  0  0  0  0  0  0  0  0  0  0  0
   10.7270   73.4600    1.9620 O   0  0  0  0  0  0  0  0  0  0  0  0
   10.9400   75.6682    1.0095 H   0  0  0  0  0  0  0  0  0  0  0  0
   11.8814   75.2968   -0.4746 H   0  0  0  0  0  0  0  0  0  0  0  0
   10.0946   75.1119   -0.4746 H   0  0  0  0  0  0  0  0  0  0  0  0
   12.2151   73.2750    0.4840 H   0  0  0  0  0  0  0  0  0  0  0  0
   10.9845   71.8169   -0.6561 H   0  0  0  0  0  0  0  0  0  0  0  0
    9.5271   72.2063    0.3784 H   0  0  0  0  0  0  0  0  0  0  0  0
   10.3789   74.0891   -1.4516 H   0  0  0  0  0  0  0  0  0  0  0  0
    7.2535   72.8409   -0.9630 H   0  0  0  0  0  0  0  0  0  0  0  0
    7.1594   74.5651   -2.9285 H   0  0  0  0  0  0  0  0  0  0  0  0
    6.6546   76.3075   -1.3931 H   0  0  0  0  0  0  0  0  0  0  0  0
    7.0177   74.4164    0.9415 H   0  0  0  0  0  0  0  0  0  0  0  0
    8.4504   77.1397    0.6716 H   0  0  0  0  0  0  0  0  0  0  0  0
    7.6141   73.9331    3.0758 H   0  0  0  0  0  0  0  0  0  0  0  0
    9.2023   73.9850    2.1355 H   0  0  0  0  0  0  0  0  0  0  0  0
    8.0300   74.4840    7.7990 H   0  0  0  0  0  0  0  0  0  0  0  0
   11.4920   73.7193    7.5173 H   0  0  0  0  0  0  0  0  0  0  0  0
   13.1020   72.7310    5.2100 H   0  0  0  0  0  0  0  0  0  0  0  0
  1  2  1  0
  2  3  1  0
  3  4  1  0
  4  5  1  0
  5  6  1  0
  6  7  1  0
  7  8  2  0
  8  9  1  0
  9 10  2  0
 10 11  1  0
 11 12  2  0
 11 13  1  0
 13 14  1  0
 14 15  2  0
 15 16  1  0
 15 17  1  0
 17 18  1  0
 17 19  2  0
 19 20  1  0
 20 21  1  0
 20 22  2  0
 22 23  1  0
 23 24  2  0
 23 25  1  0
 25  2  1  0
  6  4  1  0
 22 14  1  0
  1 26  1  0
  1 27  1  0
  1 28  1  0
  2 29  1  1
  3 30  1  0
  3 31  1  0
  4 32  1  6
  6 33  1  1
  7 34  1  0
  8 35  1  0
  9 36  1  0
 10 37  1  0
 13 38  1  0
 13 39  1  0
 18 40  1  0
 19 41  1  0
 21 42  1  0
M  END
>  <meeko>  (4) 
{"is_sidechain": [false], "free_energy": -5.508, "intermolecular_energy": -9.095, "internal_energy": 0.087}

$$$$
2wer_ligand
     RDKit          3D

 42 44  0  0  0  0  0  0  0  0999 V2000
    7.6690   74.3650    2.8780 C   0  0  0  0  0  0  0  0  0  0  0  0
    7.8500   75.6930    3.6100 C   0  0  2  0  0  0  0  0  0  0  0  0
    8.0940   76.8480    2.6180 C   0  0  0  0  0  0  0  0  0  0  0  0
    8.4510   76.3540    1.2470 C   0  0  1  0  0  0  0  0  0  0  0  0
    8.9170   77.3140    0.2960 O   0  0  0  0  0  0  0  0  0  0  0  0
    9.9090   76.4200    0.8170 C   0  0  2  0  0  0  0  0  0  0  0  0
   10.4130   75.2090    0.1550 C   0  0  0  0  0  0  0  0  0  0  0  0
   11.1500   74.2450    0.7360 C   0  0  0  0  0  0  0  0  0  0  0  0
   11.5880   74.3200    2.1130 C   0  0  0  0  0  0  0  0  0  0  0  0
   12.6510   73.6780    2.6120 C   0  0  0  0  0  0  0  0  0  0  0  0
   12.8710   73.8080    4.0770 C   0  0  0  0  0  0  0  0  0  0  0  0
   13.5150   72.9420    4.6700 O   0  0  0  0  0  0  0  0  0  0  0  0
   12.3160   75.0120    4.8180 C   0  0  0  0  0  0  0  0  0  0  0  0
   11.5410   74.7120    6.0870 C   0  0  0  0  0  0  0  0  0  0  0  0
   12.1690   74.7200    7.3510 C   0  0  0  0  0  0  0  0  0  0  0  0
   13.8620   75.0720    7.5000 Cl  0  0  0  0  0  0  0  0  0  0  0  0
   11.4410   74.4170    8.5150 C   0  0  0  0  0  0  0  0  0  0  0  0
   12.0730   74.4260    9.7300 O   0  0  0  0  0  0  0  0  0  0  0  0
   10.0870   74.0980    8.4530 C   0  0  0  0  0  0  0  0  0  0  0  0
    9.4570   74.0740    7.2130 C   0  0  0  0  0  0  0  0  0  0  0  0
    8.1260   73.7630    7.1390 O   0  0  0  0  0  0  0  0  0  0  0  0
   10.1700   74.3680    6.0390 C   0  0  0  0  0  0  0  0  0  0  0  0
    9.4280   74.3290    4.7630 C   0  0  0  0  0  0  0  0  0  0  0  0
    9.2810   73.3270    4.0890 O   0  0  0  0  0  0  0  0  0  0  0  0
    8.9740   75.5780    4.5090 O   0  0  0  0  0  0  0  0  0  0  0  0
    7.5584   73.5536    3.6124 H   0  0  0  0  0  0  0  0  0  0  0  0
    6.7692   74.4137    2.2472 H   0  0  0  0  0  0  0  0  0  0  0  0
    8.5490   74.1711    2.2472 H   0  0  0  0  0  0  0  0  0  0  0  0
    6.9312   75.9178    4.1715 H   0  0  0  0  0  0  0  0  0  0  0  0
    7.1787   77.4542    2.5486 H   0  0  0  0  0  0  0  0  0  0  0  0
    8.9408   77.4414    2.9934 H   0  0  0  0  0  0  0  0  0  0  0  0
    7.6726   75.5772    1.2724 H   0  0  0  0  0  0  0  0  0  0  0  0
   10.9131   76.6074    1.2252 H   0  0  0  0  0  0  0  0  0  0  0  0
   10.1661   75.0792   -0.9090 H   0  0  0  0  0  0  0  0  0  0  0  0
   11.4310   73.3641    0.1401 H   0  0  0  0  0  0  0  0  0  0  0  0
   11.0047   74.9508    2.7999 H   0  0  0  0  0  0  0  0  0  0  0  0
   13.3245   73.0870    1.9740 H   0  0  0  0  0  0  0  0  0  0  0  0
   13.1622   75.6618    5.0860 H   0  0  0  0  0  0  0  0  0  0  0  0
   11.5927   75.4757    4.1311 H   0  0  0  0  0  0  0  0  0  0  0  0
   11.8420   73.6320   10.2380 H   0  0  0  0  0  0  0  0  0  0  0  0
    9.5245   73.8686    9.3700 H   0  0  0  0  0  0  0  0  0  0  0  0
    7.6180   74.5220    6.8080 H   0  0  0  0  0  0  0  0  0  0  0  0
  1  2  1  0
  2  3  1  0
  3  4  1  0
  4  5  1  0
  5  6  1  0
  6  7  1  0
  7  8  2  0
  8  9  1  0
  9 10  2  0
 10 11  1  0
 11 12  2  0
 11 13  1  0
 13 14  1  0
 14 15  2  0
 15 16  1  0
 15 17  1  0
 17 18  1  0
 17 19  2  0
 19 20  1  0
 20 21  1  0
 20 22  2  0
 22 23  1  0
 23 24  2  0
 23 25  1  0
 25  2  1  0
  6  4  1  0
 22 14  1  0
  1 26  1  0
  1 27  1  0
  1 28  1  0
  2 29  1  1
  3 30  1  0
  3 31  1  0
  4 32  1  6
  6 33  1  1
  7 34  1  0
  8 35  1  0
  9 36  1  0
 10 37  1  0
 13 38  1  0
 13 39  1  0
 18 40  1  0
 19 41  1  0
 21 42  1  0
M  END
>  <meeko>  (5) 
{"is_sidechain": [false], "free_energy": -5.353, "intermolecular_energy": -8.931, "internal_energy": 0.169}

$$$$
2wer_ligand
     RDKit          3D

 42 44  0  0  0  0  0  0  0  0999 V2000
    3.0740   69.9590    8.9750 C   0  0  0  0  0  0  0  0  0  0  0  0
    1.6800   70.1200    8.3720 C   0  0  2  0  0  0  0  0  0  0  0  0
    0.9500   68.7610    8.2690 C   0  0  0  0  0  0  0  0  0  0  0  0
   -0.3450   68.7050    9.0240 C   0  0  1  0  0  0  0  0  0  0  0  0
   -0.4450   67.7710   10.1030 O   0  0  0  0  0  0  0  0  0  0  0  0
   -0.3490   69.1520   10.4790 C   0  0  2  0  0  0  0  0  0  0  0  0
   -1.4700   70.0240   10.8540 C   0  0  0  0  0  0  0  0  0  0  0  0
   -1.5010   71.3630   10.7210 C   0  0  0  0  0  0  0  0  0  0  0  0
   -0.3760   72.1250   10.2250 C   0  0  0  0  0  0  0  0  0  0  0  0
    0.6750   72.5030   10.9630 C   0  0  0  0  0  0  0  0  0  0  0  0
    1.6770   73.3690   10.2870 C   0  0  0  0  0  0  0  0  0  0  0  0
    2.7800   73.5360   10.8090 O   0  0  0  0  0  0  0  0  0  0  0  0
    1.3370   74.0180    8.9560 C   0  0  0  0  0  0  0  0  0  0  0  0
    2.3970   73.9150    7.8770 C   0  0  0  0  0  0  0  0  0  0  0  0
    3.4640   74.8370    7.8050 C   0  0  0  0  0  0  0  0  0  0  0  0
    3.6010   76.1300    8.9550 Cl  0  0  0  0  0  0  0  0  0  0  0  0
    4.4270   74.7410    6.7840 C   0  0  0  0  0  0  0  0  0  0  0  0
    5.4510   75.6490    6.7330 O   0  0  0  0  0  0  0  0  0  0  0  0
    4.3510   73.7420    5.8180 C   0  0  0  0  0  0  0  0  0  0  0  0
    3.2990   72.8340    5.8670 C   0  0  0  0  0  0  0  0  0  0  0  0
    3.2140   71.8480    4.9230 O   0  0  0  0  0  0  0  0  0  0  0  0
    2.3250   72.9190    6.8770 C   0  0  0  0  0  0  0  0  0  0  0  0
    1.2440   71.9130    6.8650 C   0  0  0  0  0  0  0  0  0  0  0  0
    0.0660   72.1780    6.7140 O   0  0  0  0  0  0  0  0  0  0  0  0
    1.8060   70.6970    7.0550 O   0  0  0  0  0  0  0  0  0  0  0  0
    3.0019   69.9673   10.0726 H   0  0  0  0  0  0  0  0  0  0  0  0
    3.5090   69.0046    8.6433 H   0  0  0  0  0  0  0  0  0  0  0  0
    3.7151   70.7891    8.6433 H   0  0  0  0  0  0  0  0  0  0  0  0
    1.0880   70.7758    9.0273 H   0  0  0  0  0  0  0  0  0  0  0  0
    0.7406   68.5604    7.2079 H   0  0  0  0  0  0  0  0  0  0  0  0
    1.6137   68.0084    8.7196 H   0  0  0  0  0  0  0  0  0  0  0  0
   -0.9334   68.9445    8.1260 H   0  0  0  0  0  0  0  0  0  0  0  0
    0.2866   69.6611   11.2185 H   0  0  0  0  0  0  0  0  0  0  0  0
   -2.3614   69.5408   11.2805 H   0  0  0  0  0  0  0  0  0  0  0  0
   -2.4194   71.8998   11.0009 H   0  0  0  0  0  0  0  0  0  0  0  0
   -0.3847   72.4150    9.1640 H   0  0  0  0  0  0  0  0  0  0  0  0
    0.7909   72.1903   12.0112 H   0  0  0  0  0  0  0  0  0  0  0  0
    0.4209   73.5435    8.5744 H   0  0  0  0  0  0  0  0  0  0  0  0
    1.2324   75.0923    9.1678 H   0  0  0  0  0  0  0  0  0  0  0  0
    6.3020   75.2100    6.8950 H   0  0  0  0  0  0  0  0  0  0  0  0
    5.1122   73.6717    5.0271 H   0  0  0  0  0  0  0  0  0  0  0  0
    2.5430   71.1920    5.1760 H   0  0  0  0  0  0  0  0  0  0  0  0
  1  2  1  0
  2  3  1  0
  3  4  1  0
  4  5  1  0
  5  6  1  0
  6  7  1  0
  7  8  2  0
  8  9  1  0
  9 10  2  0
 10 11  1  0
 11 12  2  0
 11 13  1  0
 13 14  1  0
 14 15  2  0
 15 16  1  0
 15 17  1  0
 17 18  1  0
 17 19  2  0
 19 20  1  0
 20 21  1  0
 20 22  2  0
 22 23  1  0
 23 24  2  0
 23 25  1  0
 25  2  1  0
  6  4  1  0
 22 14  1  0
  1 26  1  0
  1 27  1  0
  1 28  1  0
  2 29  1  1
  3 30  1  0
  3 31  1  0
  4 32  1  6
  6 33  1  1
  7 34  1  0
  8 35  1  0
  9 36  1  0
 10 37  1  0
 13 38  1  0
 13 39  1  0
 18 40  1  0
 19 41  1  0
 21 42  1  0
M  END
>  <meeko>  (6) 
{"is_sidechain": [false], "free_energy": -5.174, "intermolecular_energy": -7.701, "internal_energy": -0.777}

$$$$
2wer_ligand
     RDKit          3D

 42 44  0  0  0  0  0  0  0  0999 V2000
   10.3800   72.4230    0.3370 C   0  0  0  0  0  0  0  0  0  0  0  0
   10.7040   73.8360   -0.1430 C   0  0  2  0  0  0  0  0  0  0  0  0
   11.5150   73.8080   -1.4580 C   0  0  0  0  0  0  0  0  0  0  0  0
   10.6740   74.0560   -2.6760 C   0  0  1  0  0  0  0  0  0  0  0  0
   10.7850   73.1300   -3.7600 O   0  0  0  0  0  0  0  0  0  0  0  0
    9.5690   73.0610   -3.0010 C   0  0  2  0  0  0  0  0  0  0  0  0
    8.2840   73.6660   -3.3740 C   0  0  0  0  0  0  0  0  0  0  0  0
    7.3200   74.0540   -2.5180 C   0  0  0  0  0  0  0  0  0  0  0  0
    7.4250   73.8640   -1.0870 C   0  0  0  0  0  0  0  0  0  0  0  0
    7.1530   74.8020   -0.1710 C   0  0  0  0  0  0  0  0  0  0  0  0
    7.4220   74.4360    1.2450 C   0  0  0  0  0  0  0  0  0  0  0  0
    7.2190   73.2790    1.6180 O   0  0  0  0  0  0  0  0  0  0  0  0
    7.9580   75.4830    2.2050 C   0  0  0  0  0  0  0  0  0  0  0  0
    9.0250   75.0110    3.1740 C   0  0  0  0  0  0  0  0  0  0  0  0
    8.6900   74.5440    4.4640 C   0  0  0  0  0  0  0  0  0  0  0  0
    7.0370   74.4960    4.9910 Cl  0  0  0  0  0  0  0  0  0  0  0  0
    9.6930   74.1320    5.3600 C   0  0  0  0  0  0  0  0  0  0  0  0
    9.3450   73.6870    6.6070 O   0  0  0  0  0  0  0  0  0  0  0  0
   11.0380   74.1770    5.0020 C   0  0  0  0  0  0  0  0  0  0  0  0
   11.3840   74.6460    3.7390 C   0  0  0  0  0  0  0  0  0  0  0  0
   12.7030   74.6940    3.3760 O   0  0  0  0  0  0  0  0  0  0  0  0
   10.3960   75.0680    2.8340 C   0  0  0  0  0  0  0  0  0  0  0  0
   10.8440   75.5460    1.5100 C   0  0  0  0  0  0  0  0  0  0  0  0
   10.6640   76.6750    1.0950 O   0  0  0  0  0  0  0  0  0  0  0  0
   11.4570   74.5150    0.8840 O   0  0  0  0  0  0  0  0  0  0  0  0
   10.3751   72.4015    1.4368 H   0  0  0  0  0  0  0  0  0  0  0  0
    9.3903   72.1256   -0.0400 H   0  0  0  0  0  0  0  0  0  0  0  0
   11.1412   71.7241   -0.0400 H   0  0  0  0  0  0  0  0  0  0  0  0
    9.7626   74.3696   -0.3404 H   0  0  0  0  0  0  0  0  0  0  0  0
   12.2926   74.5843   -1.4059 H   0  0  0  0  0  0  0  0  0  0  0  0
   11.9440   72.7999   -1.5564 H   0  0  0  0  0  0  0  0  0  0  0  0
   10.7395   75.1476   -2.5569 H   0  0  0  0  0  0  0  0  0  0  0  0
    9.0328   72.2058   -2.5638 H   0  0  0  0  0  0  0  0  0  0  0  0
    8.0923   73.8153   -4.4468 H   0  0  0  0  0  0  0  0  0  0  0  0
    6.4168   74.5345   -2.9222 H   0  0  0  0  0  0  0  0  0  0  0  0
    7.7519   72.8777   -0.7258 H   0  0  0  0  0  0  0  0  0  0  0  0
    6.7530   75.7879   -0.4502 H   0  0  0  0  0  0  0  0  0  0  0  0
    8.3848   76.3014    1.6067 H   0  0  0  0  0  0  0  0  0  0  0  0
    7.1017   75.7807    2.8280 H   0  0  0  0  0  0  0  0  0  0  0  0
   10.0350   73.9140    7.2530 H   0  0  0  0  0  0  0  0  0  0  0  0
   11.8149   73.8467    5.7072 H   0  0  0  0  0  0  0  0  0  0  0  0
   12.9190   75.5630    2.9970 H   0  0  0  0  0  0  0  0  0  0  0  0
  1  2  1  0
  2  3  1  0
  3  4  1  0
  4  5  1  0
  5  6  1  0
  6  7  1  0
  7  8  2  0
  8  9  1  0
  9 10  2  0
 10 11  1  0
 11 12  2  0
 11 13  1  0
 13 14  1  0
 14 15  2  0
 15 16  1  0
 15 17  1  0
 17 18  1  0
 17 19  2  0
 19 20  1  0
 20 21  1  0
 20 22  2  0
 22 23  1  0
 23 24  2  0
 23 25  1  0
 25  2  1  0
  6  4  1  0
 22 14  1  0
  1 26  1  0
  1 27  1  0
  1 28  1  0
  2 29  1  6
  3 30  1  0
  3 31  1  0
  4 32  1  6
  6 33  1  1
  7 34  1  0
  8 35  1  0
  9 36  1  0
 10 37  1  0
 13 38  1  0
 13 39  1  0
 18 40  1  0
 19 41  1  0
 21 42  1  0
M  END
>  <meeko>  (7) 
{"is_sidechain": [false], "free_energy": -5.084, "intermolecular_energy": -7.629, "internal_energy": -0.706}

$$$$
2wer_ligand
     RDKit          3D

 42 44  0  0  0  0  0  0  0  0999 V2000
    5.6890   74.9690   -1.2040 C   0  0  0  0  0  0  0  0  0  0  0  0
    7.2110   74.8580   -1.2520 C   0  0  2  0  0  0  0  0  0  0  0  0
    7.9010   76.1020   -0.6650 C   0  0  0  0  0  0  0  0  0  0  0  0
    8.6610   75.8300    0.6000 C   0  0  1  0  0  0  0  0  0  0  0  0
    7.9250   75.3500    1.7280 O   0  0  0  0  0  0  0  0  0  0  0  0
    8.7690   74.3900    1.0800 C   0  0  2  0  0  0  0  0  0  0  0  0
   10.1110   73.9840    1.5190 C   0  0  0  0  0  0  0  0  0  0  0  0
   11.1480   73.6950    0.7110 C   0  0  0  0  0  0  0  0  0  0  0  0
   11.0390   73.7010   -0.7320 C   0  0  0  0  0  0  0  0  0  0  0  0
   11.9490   74.2220   -1.5640 C   0  0  0  0  0  0  0  0  0  0  0  0
   11.5990   74.2170   -3.0090 C   0  0  0  0  0  0  0  0  0  0  0  0
   11.9020   75.1860   -3.7060 O   0  0  0  0  0  0  0  0  0  0  0  0
   10.8920   73.0140   -3.6090 C   0  0  0  0  0  0  0  0  0  0  0  0
    9.8810   73.3130   -4.6980 C   0  0  0  0  0  0  0  0  0  0  0  0
   10.2690   73.4210   -6.0520 C   0  0  0  0  0  0  0  0  0  0  0  0
   11.9280   73.2150   -6.5200 Cl  0  0  0  0  0  0  0  0  0  0  0  0
    9.3220   73.7220   -7.0470 C   0  0  0  0  0  0  0  0  0  0  0  0
    9.7230   73.8250   -8.3520 O   0  0  0  0  0  0  0  0  0  0  0  0
    7.9830   73.9260   -6.7260 C   0  0  0  0  0  0  0  0  0  0  0  0
    7.5870   73.8360   -5.3950 C   0  0  0  0  0  0  0  0  0  0  0  0
    6.2740   74.0350   -5.0680 O   0  0  0  0  0  0  0  0  0  0  0  0
    8.5210   73.5420   -4.3870 C   0  0  0  0  0  0  0  0  0  0  0  0
    8.0210   73.4570   -3.0000 C   0  0  0  0  0  0  0  0  0  0  0  0
    7.9850   72.4290   -2.3500 O   0  0  0  0  0  0  0  0  0  0  0  0
    7.6230   74.6940   -2.6260 O   0  0  0  0  0  0  0  0  0  0  0  0
    5.3560   74.9933   -0.1559 H   0  0  0  0  0  0  0  0  0  0  0  0
    5.3726   75.8926   -1.7108 H   0  0  0  0  0  0  0  0  0  0  0  0
    5.2419   74.1011   -1.7108 H   0  0  0  0  0  0  0  0  0  0  0  0
    7.5082   73.9912   -0.6435 H   0  0  0  0  0  0  0  0  0  0  0  0
    8.6036   76.4955   -1.4144 H   0  0  0  0  0  0  0  0  0  0  0  0
    7.1075   76.8216   -0.4148 H   0  0  0  0  0  0  0  0  0  0  0  0
    9.3685   76.6495    0.4054 H   0  0  0  0  0  0  0  0  0  0  0  0
    8.5742   73.3604    0.7453 H   0  0  0  0  0  0  0  0  0  0  0  0
   10.2834   73.9097    2.6029 H   0  0  0  0  0  0  0  0  0  0  0  0
   12.1176   73.4441    1.1660 H   0  0  0  0  0  0  0  0  0  0  0  0
   10.1431   73.2441   -1.1776 H   0  0  0  0  0  0  0  0  0  0  0  0
   12.9026   74.6311   -1.1990 H   0  0  0  0  0  0  0  0  0  0  0  0
   11.6591   72.3505   -4.0348 H   0  0  0  0  0  0  0  0  0  0  0  0
   10.3170   72.5663   -2.7850 H   0  0  0  0  0  0  0  0  0  0  0  0
    8.9650   74.0280   -8.9250 H   0  0  0  0  0  0  0  0  0  0  0  0
    7.2489   74.1549   -7.5126 H   0  0  0  0  0  0  0  0  0  0  0  0
    5.8190   74.5290   -5.7710 H   0  0  0  0  0  0  0  0  0  0  0  0
  1  2  1  0
  2  3  1  0
  3  4  1  0
  4  5  1  0
  5  6  1  0
  6  7  1  0
  7  8  2  0
  8  9  1  0
  9 10  2  0
 10 11  1  0
 11 12  2  0
 11 13  1  0
 13 14  1  0
 14 15  2  0
 15 16  1  0
 15 17  1  0
 17 18  1  0
 17 19  2  0
 19 20  1  0
 20 21  1  0
 20 22  2  0
 22 23  1  0
 23 24  2  0
 23 25  1  0
 25  2  1  0
  6  4  1  0
 22 14  1  0
  1 26  1  0
  1 27  1  0
  1 28  1  0
  2 29  1  1
  3 30  1  0
  3 31  1  0
  4 32  1  1
  6 33  1  6
  7 34  1  0
  8 35  1  0
  9 36  1  0
 10 37  1  0
 13 38  1  0
 13 39  1  0
 18 40  1  0
 19 41  1  0
 21 42  1  0
M  END
>  <meeko>  (8) 
{"is_sidechain": [false], "free_energy": -5.061, "intermolecular_energy": -8.083, "internal_energy": -0.217}

$$$$
2wer_ligand
     RDKit          3D

 42 44  0  0  0  0  0  0  0  0999 V2000
    8.2620   74.0620   -6.3530 C   0  0  0  0  0  0  0  0  0  0  0  0
    9.4710   73.8970   -5.4360 C   0  0  2  0  0  0  0  0  0  0  0  0
   10.7630   73.6770   -6.2420 C   0  0  0  0  0  0  0  0  0  0  0  0
   11.9930   73.5260   -5.3950 C   0  0  1  0  0  0  0  0  0  0  0  0
   13.0270   74.5010   -5.5450 O   0  0  0  0  0  0  0  0  0  0  0  0
   12.2680   74.5790   -4.3320 C   0  0  2  0  0  0  0  0  0  0  0  0
   12.6730   74.0460   -3.0240 C   0  0  0  0  0  0  0  0  0  0  0  0
   11.8860   73.9520   -1.9360 C   0  0  0  0  0  0  0  0  0  0  0  0
   10.5200   74.4300   -1.9170 C   0  0  0  0  0  0  0  0  0  0  0  0
    9.9420   75.0470   -0.8800 C   0  0  0  0  0  0  0  0  0  0  0  0
    8.4980   75.3680   -1.0260 C   0  0  0  0  0  0  0  0  0  0  0  0
    8.0590   76.4110   -0.5390 O   0  0  0  0  0  0  0  0  0  0  0  0
    7.5880   74.4200   -1.7870 C   0  0  0  0  0  0  0  0  0  0  0  0
    7.8670   72.9410   -1.6030 C   0  0  0  0  0  0  0  0  0  0  0  0
    7.9780   72.3680   -0.3180 C   0  0  0  0  0  0  0  0  0  0  0  0
    7.7990   73.3430    1.1070 Cl  0  0  0  0  0  0  0  0  0  0  0  0
    8.2600   70.9990   -0.1640 C   0  0  0  0  0  0  0  0  0  0  0  0
    8.3660   70.4670    1.0930 O   0  0  0  0  0  0  0  0  0  0  0  0
    8.4420   70.1750   -1.2710 C   0  0  0  0  0  0  0  0  0  0  0  0
    8.3490   70.7270   -2.5450 C   0  0  0  0  0  0  0  0  0  0  0  0
    8.5250   69.9260   -3.6410 O   0  0  0  0  0  0  0  0  0  0  0  0
    8.0740   72.0940   -2.7170 C   0  0  0  0  0  0  0  0  0  0  0  0
    7.9830   72.6010   -4.1010 C   0  0  0  0  0  0  0  0  0  0  0  0
    6.9350   72.8100   -4.6840 O   0  0  0  0  0  0  0  0  0  0  0  0
    9.2420   72.7690   -4.5640 O   0  0  0  0  0  0  0  0  0  0  0  0
    7.3542   74.1859   -5.7442 H   0  0  0  0  0  0  0  0  0  0  0  0
    8.4017   74.9494   -6.9878 H   0  0  0  0  0  0  0  0  0  0  0  0
    8.1588   73.1696   -6.9878 H   0  0  0  0  0  0  0  0  0  0  0  0
    9.5962   74.8182   -4.8481 H   0  0  0  0  0  0  0  0  0  0  0  0
   10.6437   72.7643   -6.8443 H   0  0  0  0  0  0  0  0  0  0  0  0
   10.9100   74.5757   -6.8590 H   0  0  0  0  0  0  0  0  0  0  0  0
   11.9298   72.4280   -5.4170 H   0  0  0  0  0  0  0  0  0  0  0  0
   11.7882   75.4313   -3.8287 H   0  0  0  0  0  0  0  0  0  0  0  0
   13.7101   73.6929   -2.9252 H   0  0  0  0  0  0  0  0  0  0  0  0
   12.2976   73.4935   -1.0248 H   0  0  0  0  0  0  0  0  0  0  0  0
    9.9128   74.2747   -2.8210 H   0  0  0  0  0  0  0  0  0  0  0  0
   10.5043   75.3026    0.0302 H   0  0  0  0  0  0  0  0  0  0  0  0
    6.5548   74.6108   -1.4611 H   0  0  0  0  0  0  0  0  0  0  0  0
    7.7688   74.6260   -2.8523 H   0  0  0  0  0  0  0  0  0  0  0  0
    8.3530   69.4970    1.0530 H   0  0  0  0  0  0  0  0  0  0  0  0
    8.6561   69.1039   -1.1407 H   0  0  0  0  0  0  0  0  0  0  0  0
    8.2160   70.3780   -4.4440 H   0  0  0  0  0  0  0  0  0  0  0  0
  1  2  1  0
  2  3  1  0
  3  4  1  0
  4  5  1  0
  5  6  1  0
  6  7  1  0
  7  8  2  0
  8  9  1  0
  9 10  2  0
 10 11  1  0
 11 12  2  0
 11 13  1  0
 13 14  1  0
 14 15  2  0
 15 16  1  0
 15 17  1  0
 17 18  1  0
 17 19  2  0
 19 20  1  0
 20 21  1  0
 20 22  2  0
 22 23  1  0
 23 24  2  0
 23 25  1  0
 25  2  1  0
  6  4  1  0
 22 14  1  0
  1 26  1  0
  1 27  1  0
  1 28  1  0
  2 29  1  1
  3 30  1  0
  3 31  1  0
  4 32  1  1
  6 33  1  1
  7 34  1  0
  8 35  1  0
  9 36  1  0
 10 37  1  0
 13 38  1  0
 13 39  1  0
 18 40  1  0
 19 41  1  0
 21 42  1  0
M  END
>  <meeko>  (9) 
{"is_sidechain": [false], "free_energy": -5.005, "intermolecular_energy": -9.108, "internal_energy": 0.898}

$$$$
