4de3_ligand
     RDKit          3D

 31 33  0  0  0  0  0  0  0  0999 V2000
   -9.1000   56.1520   13.3930 O   0  0  0  0  0  0  0  0  0  0  0  0
   -9.1790   56.1950   12.1710 C   0  0  0  0  0  0  0  0  0  0  0  0
   -8.6680   55.2770   11.2710 N   0  0  0  0  0  0  0  0  0  0  0  0
   -7.8800   54.1420   11.5620 C   0  0  0  0  0  0  0  0  0  0  0  0
   -8.3700   52.8360   11.5760 C   0  0  0  0  0  0  0  0  0  0  0  0
   -7.5250   51.7660   11.8820 C   0  0  0  0  0  0  0  0  0  0  0  0
   -6.1810   51.9930   12.1760 C   0  0  0  0  0  0  0  0  0  0  0  0
   -5.6670   53.2960   12.1720 C   0  0  0  0  0  0  0  0  0  0  0  0
   -4.2660   53.5480   12.4810 C   0  0  0  0  0  0  0  0  0  0  0  0
   -3.2990   53.6890   11.5100 N   0  0  0  0  0  0  0  0  0  0  0  0
   -2.1520   53.9060   12.1360 N   0  0  0  0  0  0  0  0  0  0  0  0
   -2.4700   53.8870   13.4340 N   0  0  0  0  0  0  0  0  0  0  0  0
   -3.7610   53.6710   13.7230 N   0  0  0  0  0  0  0  0  0  0  0  0
   -6.5280   54.3630   11.8640 C   0  0  0  0  0  0  0  0  0  0  0  0
   -9.9360   57.3210   11.5550 C   0  0  0  0  0  0  0  0  0  0  0  0
   -9.4930   57.8290   10.3260 C   0  0  0  0  0  0  0  0  0  0  0  0
  -10.1740   58.8820    9.7140 C   0  0  0  0  0  0  0  0  0  0  0  0
  -11.3060   59.4240   10.3220 C   0  0  0  0  0  0  0  0  0  0  0  0
  -11.7570   58.9040   11.5350 C   0  0  0  0  0  0  0  0  0  0  0  0
  -13.3060   59.6270   12.3440 Br  0  0  0  0  0  0  0  0  0  0  0  0
  -11.0830   57.8520   12.1550 C   0  0  0  0  0  0  0  0  0  0  0  0
   -8.9360   55.3840   10.3010 H   0  0  0  0  0  0  0  0  0  0  0  0
   -9.4287   52.6472   11.3446 H   0  0  0  0  0  0  0  0  0  0  0  0
   -7.9218   50.7401   11.8910 H   0  0  0  0  0  0  0  0  0  0  0  0
   -5.5214   51.1450   12.4121 H   0  0  0  0  0  0  0  0  0  0  0  0
   -1.7700   54.0290   14.1570 H   0  0  0  0  0  0  0  0  0  0  0  0
   -6.1347   55.3903   11.8596 H   0  0  0  0  0  0  0  0  0  0  0  0
   -8.6051   57.3959    9.8421 H   0  0  0  0  0  0  0  0  0  0  0  0
   -9.8186   59.2839    8.7537 H   0  0  0  0  0  0  0  0  0  0  0  0
  -11.8414   60.2589    9.8464 H   0  0  0  0  0  0  0  0  0  0  0  0
  -11.4502   57.4432   13.1079 H   0  0  0  0  0  0  0  0  0  0  0  0
  1  2  2  0
  2  3  1  0
  3  4  1  0
  4  5  2  0
  5  6  1  0
  6  7  2  0
  7  8  1  0
  8  9  1  0
  9 10  1  0
 10 11  2  0
 11 12  1  0
 12 13  1  0
  8 14  2  0
  2 15  1  0
 15 16  2  0
 16 17  1  0
 17 18  2  0
 18 19  1  0
 19 20  1  0
 19 21  2  0
 14  4  1  0
 21 15  1  0
 13  9  2  0
  3 22  1  0
  5 23  1  0
  6 24  1  0
  7 25  1  0
 12 26  1  0
 14 27  1  0
 16 28  1  0
 17 29  1  0
 18 30  1  0
 21 31  1  0
M  END
>  <meeko>  (1) 
{"is_sidechain": [false], "free_energy": -8.405, "intermolecular_energy": -9.879, "internal_energy": -0.478}

$$$$
4de3_ligand
     RDKit          3D

 31 33  0  0  0  0  0  0  0  0999 V2000
   -9.1410   56.1950   13.6570 O   0  0  0  0  0  0  0  0  0  0  0  0
   -8.8440   56.1120   12.4720 C   0  0  0  0  0  0  0  0  0  0  0  0
   -7.9210   55.2520   11.9030 N   0  0  0  0  0  0  0  0  0  0  0  0
   -7.0720   54.3450   12.5730 C   0  0  0  0  0  0  0  0  0  0  0  0
   -7.4900   53.4980   13.6000 C   0  0  0  0  0  0  0  0  0  0  0  0
   -6.5830   52.6320   14.2180 C   0  0  0  0  0  0  0  0  0  0  0  0
   -5.2490   52.6070   13.8140 C   0  0  0  0  0  0  0  0  0  0  0  0
   -4.8040   53.4510   12.7880 C   0  0  0  0  0  0  0  0  0  0  0  0
   -3.4130   53.4380   12.3590 C   0  0  0  0  0  0  0  0  0  0  0  0
   -3.0350   53.2410   11.0490 N   0  0  0  0  0  0  0  0  0  0  0  0
   -1.7120   53.2890   11.0170 N   0  0  0  0  0  0  0  0  0  0  0  0
   -1.3530   53.5090   12.2860 N   0  0  0  0  0  0  0  0  0  0  0  0
   -2.3530   53.6120   13.1720 N   0  0  0  0  0  0  0  0  0  0  0  0
   -5.7270   54.3170   12.1760 C   0  0  0  0  0  0  0  0  0  0  0  0
   -9.5620   56.9890   11.5040 C   0  0  0  0  0  0  0  0  0  0  0  0
   -9.1940   56.9310   10.1530 C   0  0  0  0  0  0  0  0  0  0  0  0
   -9.8430   57.7340    9.2140 C   0  0  0  0  0  0  0  0  0  0  0  0
  -10.8680   58.5890    9.6190 C   0  0  0  0  0  0  0  0  0  0  0  0
  -11.2460   58.6290   10.9600 C   0  0  0  0  0  0  0  0  0  0  0  0
  -12.6520   59.7720   11.5020 Br  0  0  0  0  0  0  0  0  0  0  0  0
  -10.6040   57.8320   11.9080 C   0  0  0  0  0  0  0  0  0  0  0  0
   -7.8900   55.2120   10.8930 H   0  0  0  0  0  0  0  0  0  0  0  0
   -8.5406   53.5117   13.9257 H   0  0  0  0  0  0  0  0  0  0  0  0
   -6.9233   51.9678   15.0261 H   0  0  0  0  0  0  0  0  0  0  0  0
   -4.5420   51.9210   14.3034 H   0  0  0  0  0  0  0  0  0  0  0  0
   -0.3780   53.5910   12.5580 H   0  0  0  0  0  0  0  0  0  0  0  0
   -5.3880   54.9852   11.3706 H   0  0  0  0  0  0  0  0  0  0  0  0
   -8.3915   56.2507    9.8318 H   0  0  0  0  0  0  0  0  0  0  0  0
   -9.5465   57.6927    8.1555 H   0  0  0  0  0  0  0  0  0  0  0  0
  -11.3761   59.2293    8.8829 H   0  0  0  0  0  0  0  0  0  0  0  0
  -10.9136   57.8657   12.9630 H   0  0  0  0  0  0  0  0  0  0  0  0
  1  2  2  0
  2  3  1  0
  3  4  1  0
  4  5  2  0
  5  6  1  0
  6  7  2  0
  7  8  1  0
  8  9  1  0
  9 10  1  0
 10 11  2  0
 11 12  1  0
 12 13  1  0
  8 14  2  0
  2 15  1  0
 15 16  2  0
 16 17  1  0
 17 18  2  0
 18 19  1  0
 19 20  1  0
 19 21  2  0
 14  4  1  0
 21 15  1  0
 13  9  2  0
  3 22  1  0
  5 23  1  0
  6 24  1  0
  7 25  1  0
 12 26  1  0
 14 27  1  0
 16 28  1  0
 17 29  1  0
 18 30  1  0
 21 31  1  0
M  END
>  <meeko>  (2) 
{"is_sidechain": [false], "free_energy": -7.817, "intermolecular_energy": -9.365, "internal_energy": -0.3}

$$$$
4de3_ligand
     RDKit          3D

 31 33  0  0  0  0  0  0  0  0999 V2000
   -9.1970   53.5500   11.8290 O   0  0  0  0  0  0  0  0  0  0  0  0
   -8.0910   54.0700   11.7650 C   0  0  0  0  0  0  0  0  0  0  0  0
   -7.7700   55.2740   11.1610 N   0  0  0  0  0  0  0  0  0  0  0  0
   -8.6310   56.1160   10.4250 C   0  0  0  0  0  0  0  0  0  0  0  0
   -8.6830   56.1530    9.0310 C   0  0  0  0  0  0  0  0  0  0  0  0
   -9.5600   57.0230    8.3780 C   0  0  0  0  0  0  0  0  0  0  0  0
  -10.3940   57.8640    9.1140 C   0  0  0  0  0  0  0  0  0  0  0  0
  -10.3570   57.8480   10.5130 C   0  0  0  0  0  0  0  0  0  0  0  0
  -11.2200   58.7240   11.2940 C   0  0  0  0  0  0  0  0  0  0  0  0
  -12.3420   58.2740   11.9550 N   0  0  0  0  0  0  0  0  0  0  0  0
  -12.8830   59.3230   12.5560 N   0  0  0  0  0  0  0  0  0  0  0  0
  -12.0800   60.3430   12.2370 N   0  0  0  0  0  0  0  0  0  0  0  0
  -11.0300   60.0470   11.4580 N   0  0  0  0  0  0  0  0  0  0  0  0
   -9.4700   56.9690   11.1580 C   0  0  0  0  0  0  0  0  0  0  0  0
   -6.9500   53.3820   12.4330 C   0  0  0  0  0  0  0  0  0  0  0  0
   -6.5680   53.8130   13.7100 C   0  0  0  0  0  0  0  0  0  0  0  0
   -5.5060   53.1940   14.3720 C   0  0  0  0  0  0  0  0  0  0  0  0
   -4.8300   52.1360   13.7650 C   0  0  0  0  0  0  0  0  0  0  0  0
   -5.2260   51.6950   12.5020 C   0  0  0  0  0  0  0  0  0  0  0  0
   -4.3220   50.2450   11.6920 Br  0  0  0  0  0  0  0  0  0  0  0  0
   -6.2850   52.3070   11.8320 C   0  0  0  0  0  0  0  0  0  0  0  0
   -6.8360   55.6310   11.3140 H   0  0  0  0  0  0  0  0  0  0  0  0
   -8.0292   55.4928    8.4422 H   0  0  0  0  0  0  0  0  0  0  0  0
   -9.5927   57.0446    7.2787 H   0  0  0  0  0  0  0  0  0  0  0  0
  -11.0843   58.5433    8.5925 H   0  0  0  0  0  0  0  0  0  0  0  0
  -12.2590   61.2870   12.5680 H   0  0  0  0  0  0  0  0  0  0  0  0
   -9.4329   56.9494   12.2572 H   0  0  0  0  0  0  0  0  0  0  0  0
   -7.1065   54.6418   14.1927 H   0  0  0  0  0  0  0  0  0  0  0  0
   -5.2029   53.5404   15.3711 H   0  0  0  0  0  0  0  0  0  0  0  0
   -3.9877   51.6510   14.2801 H   0  0  0  0  0  0  0  0  0  0  0  0
   -6.5951   51.9479   10.8396 H   0  0  0  0  0  0  0  0  0  0  0  0
  1  2  2  0
  2  3  1  0
  3  4  1  0
  4  5  2  0
  5  6  1  0
  6  7  2  0
  7  8  1  0
  8  9  1  0
  9 10  1  0
 10 11  2  0
 11 12  1  0
 12 13  1  0
  8 14  2  0
  2 15  1  0
 15 16  2  0
 16 17  1  0
 17 18  2  0
 18 19  1  0
 19 20  1  0
 19 21  2  0
 14  4  1  0
 21 15  1  0
 13  9  2  0
  3 22  1  0
  5 23  1  0
  6 24  1  0
  7 25  1  0
 12 26  1  0
 14 27  1  0
 16 28  1  0
 17 29  1  0
 18 30  1  0
 21 31  1  0
M  END
>  <meeko>  (3) 
{"is_sidechain": [false], "free_energy": -7.024, "intermolecular_energy": -8.284, "internal_energy": -0.449}

$$$$
4de3_ligand
     RDKit          3D

 31 33  0  0  0  0  0  0  0  0999 V2000
   -7.8150   55.6770    9.2040 O   0  0  0  0  0  0  0  0  0  0  0  0
   -8.8390   55.4270    9.8280 C   0  0  0  0  0  0  0  0  0  0  0  0
   -9.0190   54.4250   10.7660 N   0  0  0  0  0  0  0  0  0  0  0  0
   -8.0900   53.4320   11.1440 C   0  0  0  0  0  0  0  0  0  0  0  0
   -8.3500   52.0620   11.0960 C   0  0  0  0  0  0  0  0  0  0  0  0
   -7.3760   51.1430   11.4960 C   0  0  0  0  0  0  0  0  0  0  0  0
   -6.1340   51.5860   11.9490 C   0  0  0  0  0  0  0  0  0  0  0  0
   -5.8510   52.9560   12.0090 C   0  0  0  0  0  0  0  0  0  0  0  0
   -4.5590   53.4330   12.4820 C   0  0  0  0  0  0  0  0  0  0  0  0
   -4.0130   54.6340   12.0860 N   0  0  0  0  0  0  0  0  0  0  0  0
   -2.8460   54.7500   12.7010 N   0  0  0  0  0  0  0  0  0  0  0  0
   -2.7390   53.6350   13.4300 N   0  0  0  0  0  0  0  0  0  0  0  0
   -3.7620   52.7730   13.3440 N   0  0  0  0  0  0  0  0  0  0  0  0
   -6.8390   53.8710   11.6050 C   0  0  0  0  0  0  0  0  0  0  0  0
  -10.0260   56.3000    9.6090 C   0  0  0  0  0  0  0  0  0  0  0  0
  -11.0510   55.8350    8.7730 C   0  0  0  0  0  0  0  0  0  0  0  0
  -12.1810   56.6210    8.5430 C   0  0  0  0  0  0  0  0  0  0  0  0
  -12.2970   57.8690    9.1550 C   0  0  0  0  0  0  0  0  0  0  0  0
  -11.2850   58.3210   10.0030 C   0  0  0  0  0  0  0  0  0  0  0  0
  -11.4560   60.0030   10.8490 Br  0  0  0  0  0  0  0  0  0  0  0  0
  -10.1510   57.5440   10.2390 C   0  0  0  0  0  0  0  0  0  0  0  0
   -9.8830   54.4370   11.2910 H   0  0  0  0  0  0  0  0  0  0  0  0
   -9.3274   51.7031   10.7412 H   0  0  0  0  0  0  0  0  0  0  0  0
   -7.5903   50.0649   11.4532 H   0  0  0  0  0  0  0  0  0  0  0  0
   -5.3728   50.8557   12.2608 H   0  0  0  0  0  0  0  0  0  0  0  0
   -1.9270   53.4540   14.0130 H   0  0  0  0  0  0  0  0  0  0  0  0
   -6.6280   54.9496   11.6510 H   0  0  0  0  0  0  0  0  0  0  0  0
  -10.9642   54.8472    8.2968 H   0  0  0  0  0  0  0  0  0  0  0  0
  -12.9794   56.2567    7.8798 H   0  0  0  0  0  0  0  0  0  0  0  0
  -13.1827   58.4945    8.9700 H   0  0  0  0  0  0  0  0  0  0  0  0
   -9.3616   57.9055   10.9144 H   0  0  0  0  0  0  0  0  0  0  0  0
  1  2  2  0
  2  3  1  0
  3  4  1  0
  4  5  2  0
  5  6  1  0
  6  7  2  0
  7  8  1  0
  8  9  1  0
  9 10  1  0
 10 11  2  0
 11 12  1  0
 12 13  1  0
  8 14  2  0
  2 15  1  0
 15 16  2  0
 16 17  1  0
 17 18  2  0
 18 19  1  0
 19 20  1  0
 19 21  2  0
 14  4  1  0
 21 15  1  0
 13  9  2  0
  3 22  1  0
  5 23  1  0
  6 24  1  0
  7 25  1  0
 12 26  1  0
 14 27  1  0
 16 28  1  0
 17 29  1  0
 18 30  1  0
 21 31  1  0
M  END
>  <meeko>  (4) 
{"is_sidechain": [false], "free_energy": -6.538, "intermolecular_energy": -7.873, "internal_energy": -0.289}

$$$$
4de3_ligand
     RDKit          3D

 31 33  0  0  0  0  0  0  0  0999 V2000
   -7.9650   53.0190   11.4050 O   0  0  0  0  0  0  0  0  0  0  0  0
   -6.8580   53.4190   11.0670 C   0  0  0  0  0  0  0  0  0  0  0  0
   -6.5780   54.4930   10.2400 N   0  0  0  0  0  0  0  0  0  0  0  0
   -7.5040   55.3040    9.5500 C   0  0  0  0  0  0  0  0  0  0  0  0
   -7.6940   55.2680    8.1680 C   0  0  0  0  0  0  0  0  0  0  0  0
   -8.6280   56.1110    7.5600 C   0  0  0  0  0  0  0  0  0  0  0  0
   -9.3820   56.9970    8.3290 C   0  0  0  0  0  0  0  0  0  0  0  0
   -9.2060   57.0540    9.7170 C   0  0  0  0  0  0  0  0  0  0  0  0
   -9.9840   57.9780   10.5310 C   0  0  0  0  0  0  0  0  0  0  0  0
  -10.4370   59.1910   10.0620 N   0  0  0  0  0  0  0  0  0  0  0  0
  -11.1000   59.7660   11.0540 N   0  0  0  0  0  0  0  0  0  0  0  0
  -11.0200   58.8910   12.0620 N   0  0  0  0  0  0  0  0  0  0  0  0
  -10.3440   57.7620   11.8110 N   0  0  0  0  0  0  0  0  0  0  0  0
   -8.2630   56.2020   10.3160 C   0  0  0  0  0  0  0  0  0  0  0  0
   -5.6610   52.7250   11.6190 C   0  0  0  0  0  0  0  0  0  0  0  0
   -5.7470   51.3500   11.8760 C   0  0  0  0  0  0  0  0  0  0  0  0
   -4.6480   50.6610   12.3910 C   0  0  0  0  0  0  0  0  0  0  0  0
   -3.4560   51.3410   12.6400 C   0  0  0  0  0  0  0  0  0  0  0  0
   -3.3650   52.7050   12.3640 C   0  0  0  0  0  0  0  0  0  0  0  0
   -1.7400   53.6180   12.6810 Br  0  0  0  0  0  0  0  0  0  0  0  0
   -4.4580   53.4030   11.8500 C   0  0  0  0  0  0  0  0  0  0  0  0
   -5.6100   54.7790   10.1690 H   0  0  0  0  0  0  0  0  0  0  0  0
   -7.1048   54.5716    7.5533 H   0  0  0  0  0  0  0  0  0  0  0  0
   -8.7692   56.0756    6.4697 H   0  0  0  0  0  0  0  0  0  0  0  0
  -10.1183   57.6540    7.8430 H   0  0  0  0  0  0  0  0  0  0  0  0
  -11.4490   59.0770   12.9640 H   0  0  0  0  0  0  0  0  0  0  0  0
   -8.1169   56.2396   11.4056 H   0  0  0  0  0  0  0  0  0  0  0  0
   -6.6842   50.8118   11.6710 H   0  0  0  0  0  0  0  0  0  0  0  0
   -4.7218   49.5836   12.6002 H   0  0  0  0  0  0  0  0  0  0  0  0
   -2.5900   50.8029   13.0530 H   0  0  0  0  0  0  0  0  0  0  0  0
   -4.3754   54.4772   11.6280 H   0  0  0  0  0  0  0  0  0  0  0  0
  1  2  2  0
  2  3  1  0
  3  4  1  0
  4  5  2  0
  5  6  1  0
  6  7  2  0
  7  8  1  0
  8  9  1  0
  9 10  1  0
 10 11  2  0
 11 12  1  0
 12 13  1  0
  8 14  2  0
  2 15  1  0
 15 16  2  0
 16 17  1  0
 17 18  2  0
 18 19  1  0
 19 20  1  0
 19 21  2  0
 14  4  1  0
 21 15  1  0
 13  9  2  0
  3 22  1  0
  5 23  1  0
  6 24  1  0
  7 25  1  0
 12 26  1  0
 14 27  1  0
 16 28  1  0
 17 29  1  0
 18 30  1  0
 21 31  1  0
M  END
>  <meeko>  (5) 
{"is_sidechain": [false], "free_energy": -6.458, "intermolecular_energy": -7.617, "internal_energy": -0.452}

$$$$
4de3_ligand
     RDKit          3D

 31 33  0  0  0  0  0  0  0  0999 V2000
  -10.2960   54.9570   10.5990 O   0  0  0  0  0  0  0  0  0  0  0  0
   -9.7190   55.8990   11.1280 C   0  0  0  0  0  0  0  0  0  0  0  0
   -8.5110   55.8620   11.8030 N   0  0  0  0  0  0  0  0  0  0  0  0
   -7.7270   54.7240   12.0910 C   0  0  0  0  0  0  0  0  0  0  0  0
   -7.7240   54.0730   13.3250 C   0  0  0  0  0  0  0  0  0  0  0  0
   -6.9120   52.9540   13.5320 C   0  0  0  0  0  0  0  0  0  0  0  0
   -6.0970   52.4770   12.5060 C   0  0  0  0  0  0  0  0  0  0  0  0
   -6.0810   53.1170   11.2610 C   0  0  0  0  0  0  0  0  0  0  0  0
   -5.2310   52.6320   10.1820 C   0  0  0  0  0  0  0  0  0  0  0  0
   -3.9490   52.1720   10.3880 N   0  0  0  0  0  0  0  0  0  0  0  0
   -3.4710   51.8140    9.2050 N   0  0  0  0  0  0  0  0  0  0  0  0
   -4.4680   52.0680    8.3510 N   0  0  0  0  0  0  0  0  0  0  0  0
   -5.5880   52.5760    8.8850 N   0  0  0  0  0  0  0  0  0  0  0  0
   -6.9010   54.2420   11.0660 C   0  0  0  0  0  0  0  0  0  0  0  0
  -10.3350   57.2510   11.0200 C   0  0  0  0  0  0  0  0  0  0  0  0
   -9.8000   58.1550   10.0920 C   0  0  0  0  0  0  0  0  0  0  0  0
  -10.3480   59.4310    9.9570 C   0  0  0  0  0  0  0  0  0  0  0  0
  -11.4390   59.8060   10.7410 C   0  0  0  0  0  0  0  0  0  0  0  0
  -11.9830   58.8980   11.6490 C   0  0  0  0  0  0  0  0  0  0  0  0
  -13.4770   59.4010   12.6940 Br  0  0  0  0  0  0  0  0  0  0  0  0
  -11.4420   57.6200   11.7930 C   0  0  0  0  0  0  0  0  0  0  0  0
   -8.1020   56.7500   12.0630 H   0  0  0  0  0  0  0  0  0  0  0  0
   -8.3642   54.4423   14.1397 H   0  0  0  0  0  0  0  0  0  0  0  0
   -6.9160   52.4476   14.5085 H   0  0  0  0  0  0  0  0  0  0  0  0
   -5.4637   51.5937   12.6757 H   0  0  0  0  0  0  0  0  0  0  0  0
   -4.3770   51.8860    7.3560 H   0  0  0  0  0  0  0  0  0  0  0  0
   -6.8944   54.7531   10.0920 H   0  0  0  0  0  0  0  0  0  0  0  0
   -8.9447   57.8573    9.4677 H   0  0  0  0  0  0  0  0  0  0  0  0
   -9.9202   60.1403    9.2332 H   0  0  0  0  0  0  0  0  0  0  0  0
  -11.8686   60.8139   10.6435 H   0  0  0  0  0  0  0  0  0  0  0  0
  -11.8816   56.9087   12.5077 H   0  0  0  0  0  0  0  0  0  0  0  0
  1  2  2  0
  2  3  1  0
  3  4  1  0
  4  5  2  0
  5  6  1  0
  6  7  2  0
  7  8  1  0
  8  9  1  0
  9 10  1  0
 10 11  2  0
 11 12  1  0
 12 13  1  0
  8 14  2  0
  2 15  1  0
 15 16  2  0
 16 17  1  0
 17 18  2  0
 18 19  1  0
 19 20  1  0
 19 21  2  0
 14  4  1  0
 21 15  1  0
 13  9  2  0
  3 22  1  0
  5 23  1  0
  6 24  1  0
  7 25  1  0
 12 26  1  0
 14 27  1  0
 16 28  1  0
 17 29  1  0
 18 30  1  0
 21 31  1  0
M  END
>  <meeko>  (6) 
{"is_sidechain": [false], "free_energy": -6.348, "intermolecular_energy": -7.485, "internal_energy": -0.454}

$$$$
4de3_ligand
     RDKit          3D

 31 33  0  0  0  0  0  0  0  0999 V2000
   -9.1780   53.1460   12.4240 O   0  0  0  0  0  0  0  0  0  0  0  0
   -8.1290   53.7690   12.3110 C   0  0  0  0  0  0  0  0  0  0  0  0
   -7.9810   55.0820   11.8990 N   0  0  0  0  0  0  0  0  0  0  0  0
   -8.9930   55.9550   11.4460 C   0  0  0  0  0  0  0  0  0  0  0  0
   -9.6070   56.9190   12.2460 C   0  0  0  0  0  0  0  0  0  0  0  0
  -10.6080   57.7410   11.7210 C   0  0  0  0  0  0  0  0  0  0  0  0
  -11.0040   57.6050   10.3910 C   0  0  0  0  0  0  0  0  0  0  0  0
  -10.4050   56.6430    9.5700 C   0  0  0  0  0  0  0  0  0  0  0  0
  -10.8120   56.4880    8.1800 C   0  0  0  0  0  0  0  0  0  0  0  0
   -9.9420   56.1000    7.1840 N   0  0  0  0  0  0  0  0  0  0  0  0
  -10.6370   56.0620    6.0570 N   0  0  0  0  0  0  0  0  0  0  0  0
  -11.8740   56.4220    6.4140 N   0  0  0  0  0  0  0  0  0  0  0  0
  -12.0570   56.7000    7.7120 N   0  0  0  0  0  0  0  0  0  0  0  0
   -9.4000   55.8210   10.1100 C   0  0  0  0  0  0  0  0  0  0  0  0
   -6.8610   53.0840   12.6890 C   0  0  0  0  0  0  0  0  0  0  0  0
   -6.1660   53.5430   13.8170 C   0  0  0  0  0  0  0  0  0  0  0  0
   -4.9750   52.9280   14.2060 C   0  0  0  0  0  0  0  0  0  0  0  0
   -4.4810   51.8460   13.4780 C   0  0  0  0  0  0  0  0  0  0  0  0
   -5.1850   51.3780   12.3690 C   0  0  0  0  0  0  0  0  0  0  0  0
   -4.5230   49.8960   11.3990 Br  0  0  0  0  0  0  0  0  0  0  0  0
   -6.3750   51.9860   11.9710 C   0  0  0  0  0  0  0  0  0  0  0  0
   -7.0600   55.4910   11.9910 H   0  0  0  0  0  0  0  0  0  0  0  0
   -9.3014   57.0328   13.2965 H   0  0  0  0  0  0  0  0  0  0  0  0
  -11.0855   58.4986   12.3598 H   0  0  0  0  0  0  0  0  0  0  0  0
  -11.7913   58.2572    9.9850 H   0  0  0  0  0  0  0  0  0  0  0  0
  -12.6290   56.4790    5.7370 H   0  0  0  0  0  0  0  0  0  0  0  0
   -8.9247   55.0597    9.4740 H   0  0  0  0  0  0  0  0  0  0  0  0
   -6.5606   54.3903   14.3970 H   0  0  0  0  0  0  0  0  0  0  0  0
   -4.4267   53.2963   15.0856 H   0  0  0  0  0  0  0  0  0  0  0  0
   -3.5391   51.3633   13.7776 H   0  0  0  0  0  0  0  0  0  0  0  0
   -6.9274   51.6053   11.0993 H   0  0  0  0  0  0  0  0  0  0  0  0
  1  2  2  0
  2  3  1  0
  3  4  1  0
  4  5  2  0
  5  6  1  0
  6  7  2  0
  7  8  1  0
  8  9  1  0
  9 10  1  0
 10 11  2  0
 11 12  1  0
 12 13  1  0
  8 14  2  0
  2 15  1  0
 15 16  2  0
 16 17  1  0
 17 18  2  0
 18 19  1  0
 19 20  1  0
 19 21  2  0
 14  4  1  0
 21 15  1  0
 13  9  2  0
  3 22  1  0
  5 23  1  0
  6 24  1  0
  7 25  1  0
 12 26  1  0
 14 27  1  0
 16 28  1  0
 17 29  1  0
 18 30  1  0
 21 31  1  0
M  END
>  <meeko>  (7) 
{"is_sidechain": [false], "free_energy": -6.323, "intermolecular_energy": -7.432, "internal_energy": -0.478}

$$$$
4de3_ligand
     RDKit          3D

 31 33  0  0  0  0  0  0  0  0999 V2000
   -9.7420   53.1590   11.4910 O   0  0  0  0  0  0  0  0  0  0  0  0
   -8.7050   53.7190   11.1590 C   0  0  0  0  0  0  0  0  0  0  0  0
   -8.5870   54.9200   10.4820 N   0  0  0  0  0  0  0  0  0  0  0  0
   -9.6320   55.7130    9.9600 C   0  0  0  0  0  0  0  0  0  0  0  0
  -10.1640   55.5580    8.6800 C   0  0  0  0  0  0  0  0  0  0  0  0
  -11.1960   56.3900    8.2360 C   0  0  0  0  0  0  0  0  0  0  0  0
  -11.7040   57.3850    9.0700 C   0  0  0  0  0  0  0  0  0  0  0  0
  -11.1830   57.5620   10.3580 C   0  0  0  0  0  0  0  0  0  0  0  0
  -11.7020   58.6010   11.2380 C   0  0  0  0  0  0  0  0  0  0  0  0
  -12.8520   58.4450   11.9820 N   0  0  0  0  0  0  0  0  0  0  0  0
  -13.0280   59.5700   12.6600 N   0  0  0  0  0  0  0  0  0  0  0  0
  -11.9960   60.3420   12.3020 N   0  0  0  0  0  0  0  0  0  0  0  0
  -11.1360   59.8080   11.4250 N   0  0  0  0  0  0  0  0  0  0  0  0
  -10.1460   56.7190   10.7910 C   0  0  0  0  0  0  0  0  0  0  0  0
   -7.4110   53.0900   11.5470 C   0  0  0  0  0  0  0  0  0  0  0  0
   -7.3250   51.6910   11.5500 C   0  0  0  0  0  0  0  0  0  0  0  0
   -6.1310   51.0610   11.9050 C   0  0  0  0  0  0  0  0  0  0  0  0
   -5.0160   51.8260   12.2460 C   0  0  0  0  0  0  0  0  0  0  0  0
   -5.0970   53.2180   12.2210 C   0  0  0  0  0  0  0  0  0  0  0  0
   -3.5770   54.2520   12.6620 Br  0  0  0  0  0  0  0  0  0  0  0  0
   -6.2860   53.8580   11.8700 C   0  0  0  0  0  0  0  0  0  0  0  0
   -7.6590   55.3160   10.4040 H   0  0  0  0  0  0  0  0  0  0  0  0
   -9.7688   54.7757    8.0153 H   0  0  0  0  0  0  0  0  0  0  0  0
  -11.6088   56.2591    7.2248 H   0  0  0  0  0  0  0  0  0  0  0  0
  -12.5179   58.0342    8.7148 H   0  0  0  0  0  0  0  0  0  0  0  0
  -11.8770   61.2790   12.6760 H   0  0  0  0  0  0  0  0  0  0  0  0
   -9.7294   56.8504   11.8006 H   0  0  0  0  0  0  0  0  0  0  0  0
   -8.2015   51.0874   11.2716 H   0  0  0  0  0  0  0  0  0  0  0  0
   -6.0697   49.9628   11.9158 H   0  0  0  0  0  0  0  0  0  0  0  0
   -4.0757   51.3331   12.5338 H   0  0  0  0  0  0  0  0  0  0  0  0
   -6.3390   54.9565   11.8473 H   0  0  0  0  0  0  0  0  0  0  0  0
  1  2  2  0
  2  3  1  0
  3  4  1  0
  4  5  2  0
  5  6  1  0
  6  7  2  0
  7  8  1  0
  8  9  1  0
  9 10  1  0
 10 11  2  0
 11 12  1  0
 12 13  1  0
  8 14  2  0
  2 15  1  0
 15 16  2  0
 16 17  1  0
 17 18  2  0
 18 19  1  0
 19 20  1  0
 19 21  2  0
 14  4  1  0
 21 15  1  0
 13  9  2  0
  3 22  1  0
  5 23  1  0
  6 24  1  0
  7 25  1  0
 12 26  1  0
 14 27  1  0
 16 28  1  0
 17 29  1  0
 18 30  1  0
 21 31  1  0
M  END
>  <meeko>  (8) 
{"is_sidechain": [false], "free_energy": -5.941, "intermolecular_energy": -6.971, "internal_energy": -0.49}

$$$$
