3f3d_ligand
     RDKit          3D

 20 19  0  0  0  0  0  0  0  0999 V2000
   29.0740   32.4620   21.2410 C   0  0  0  0  0  0  0  0  0  0  0  0
   27.6990   33.5870   20.9000 S   0  0  0  0  0  0  0  0  0  0  0  0
   26.3450   32.5650   21.5770 C   0  0  0  0  0  0  0  0  0  0  0  0
   26.1680   31.2930   20.7430 C   0  0  0  0  0  0  0  0  0  0  0  0
   26.0130   31.5660   19.2510 C   0  0  2  0  0  0  0  0  0  0  0  0
   24.7270   32.3580   19.0360 N   0  0  0  0  0  0  0  0  0  0  0  0
   25.9270   30.2820   18.3680 C   0  0  0  0  0  0  0  0  0  0  0  0
   26.9660   29.6160   18.1920 O   0  0  0  0  0  0  0  0  0  0  0  0
   24.7150   30.1090   18.0050 O   0  0  0  0  0  0  0  0  0  0  0  0
   29.2014   32.3578   22.3286 H   0  0  0  0  0  0  0  0  0  0  0  0
   28.8596   31.4770   20.8009 H   0  0  0  0  0  0  0  0  0  0  0  0
   29.9971   32.8672   20.8009 H   0  0  0  0  0  0  0  0  0  0  0  0
   26.5839   32.2879   22.6144 H   0  0  0  0  0  0  0  0  0  0  0  0
   25.4107   33.1447   21.5462 H   0  0  0  0  0  0  0  0  0  0  0  0
   27.0504   30.6531   20.8909 H   0  0  0  0  0  0  0  0  0  0  0  0
   25.2415   30.8071   21.0830 H   0  0  0  0  0  0  0  0  0  0  0  0
   26.9161   32.1132   18.9427 H   0  0  0  0  0  0  0  0  0  0  0  0
   23.9110   31.7890   18.8210 H   0  0  0  0  0  0  0  0  0  0  0  0
   24.8580   33.1560   18.4120 H   0  0  0  0  0  0  0  0  0  0  0  0
   24.6160   32.7920   19.9880 H   0  0  0  0  0  0  0  0  0  0  0  0
  1  2  1  0
  2  3  1  0
  3  4  1  0
  4  5  1  0
  5  6  1  0
  5  7  1  0
  7  8  2  0
  7  9  1  0
  1 10  1  0
  1 11  1  0
  1 12  1  0
  3 13  1  0
  3 14  1  0
  4 15  1  0
  4 16  1  0
  5 17  1  6
  6 18  1  0
  6 19  1  0
  6 20  1  0
M  CHG  2   6   1   9  -1
M  END
>  <meeko>  (1) 
{"is_sidechain": [false], "free_energy": -5.868, "intermolecular_energy": -7.412, "internal_energy": -0.096}

$$$$
3f3d_ligand
     RDKit          3D

 20 19  0  0  0  0  0  0  0  0999 V2000
   29.0360   32.4800   21.3010 C   0  0  0  0  0  0  0  0  0  0  0  0
   27.6800   33.6140   20.9110 S   0  0  0  0  0  0  0  0  0  0  0  0
   26.2900   32.5670   21.4680 C   0  0  0  0  0  0  0  0  0  0  0  0
   26.2310   31.2760   20.6470 C   0  0  0  0  0  0  0  0  0  0  0  0
   26.0150   31.5170   19.1570 C   0  0  2  0  0  0  0  0  0  0  0  0
   24.7300   32.3200   18.9790 N   0  0  0  0  0  0  0  0  0  0  0  0
   25.8750   30.2150   18.3080 C   0  0  0  0  0  0  0  0  0  0  0  0
   24.7650   29.9570   17.8020 O   0  0  0  0  0  0  0  0  0  0  0  0
   27.0130   29.6390   18.2410 O   0  0  0  0  0  0  0  0  0  0  0  0
   29.1393   32.3936   22.3927 H   0  0  0  0  0  0  0  0  0  0  0  0
   28.8202   31.4897   20.8736 H   0  0  0  0  0  0  0  0  0  0  0  0
   29.9725   32.8676   20.8736 H   0  0  0  0  0  0  0  0  0  0  0  0
   26.4289   32.3152   22.5297 H   0  0  0  0  0  0  0  0  0  0  0  0
   25.3493   33.1204   21.3304 H   0  0  0  0  0  0  0  0  0  0  0  0
   27.1795   30.7348   20.7791 H   0  0  0  0  0  0  0  0  0  0  0  0
   25.3691   30.6978   21.0114 H   0  0  0  0  0  0  0  0  0  0  0  0
   26.9107   32.0452   18.7982 H   0  0  0  0  0  0  0  0  0  0  0  0
   24.1020   31.9600   18.2640 H   0  0  0  0  0  0  0  0  0  0  0  0
   24.9000   33.3260   18.9210 H   0  0  0  0  0  0  0  0  0  0  0  0
   24.2970   32.1880   19.9300 H   0  0  0  0  0  0  0  0  0  0  0  0
  1  2  1  0
  2  3  1  0
  3  4  1  0
  4  5  1  0
  5  6  1  0
  5  7  1  0
  7  8  2  0
  7  9  1  0
  1 10  1  0
  1 11  1  0
  1 12  1  0
  3 13  1  0
  3 14  1  0
  4 15  1  0
  4 16  1  0
  5 17  1  6
  6 18  1  0
  6 19  1  0
  6 20  1  0
M  CHG  2   6   1   9  -1
M  END
>  <meeko>  (2) 
{"is_sidechain": [false], "free_energy": -5.842, "intermolecular_energy": -7.375, "internal_energy": -0.1}

$$$$
3f3d_ligand
     RDKit          3D

 20 19  0  0  0  0  0  0  0  0999 V2000
   24.6400   29.9570   17.9050 C   0  0  0  0  0  0  0  0  0  0  0  0
   26.3680   30.3760   18.2450 S   0  0  0  0  0  0  0  0  0  0  0  0
   26.0860   31.6690   19.5030 C   0  0  0  0  0  0  0  0  0  0  0  0
   26.5530   31.1870   20.8790 C   0  0  0  0  0  0  0  0  0  0  0  0
   27.1300   32.3020   21.7450 C   0  0  2  0  0  0  0  0  0  0  0  0
   26.0320   33.3300   22.0030 N   0  0  0  0  0  0  0  0  0  0  0  0
   28.3370   33.0550   21.1040 C   0  0  0  0  0  0  0  0  0  0  0  0
   29.4370   32.4690   21.0500 O   0  0  0  0  0  0  0  0  0  0  0  0
   27.9390   34.1900   20.6760 O   0  0  0  0  0  0  0  0  0  0  0  0
   24.1007   29.8262   18.8548 H   0  0  0  0  0  0  0  0  0  0  0  0
   24.1730   30.7679   17.3268 H   0  0  0  0  0  0  0  0  0  0  0  0
   24.5963   29.0222   17.3268 H   0  0  0  0  0  0  0  0  0  0  0  0
   26.6482   32.5729   19.2258 H   0  0  0  0  0  0  0  0  0  0  0  0
   25.0099   31.8921   19.5498 H   0  0  0  0  0  0  0  0  0  0  0  0
   25.6933   30.7460   21.4047 H   0  0  0  0  0  0  0  0  0  0  0  0
   27.3569   30.4549   20.7122 H   0  0  0  0  0  0  0  0  0  0  0  0
   27.4977   31.8200   22.6629 H   0  0  0  0  0  0  0  0  0  0  0  0
   26.0160   34.1050   21.3430 H   0  0  0  0  0  0  0  0  0  0  0  0
   25.9810   33.6120   22.9830 H   0  0  0  0  0  0  0  0  0  0  0  0
   25.1800   32.7280   21.8630 H   0  0  0  0  0  0  0  0  0  0  0  0
  1  2  1  0
  2  3  1  0
  3  4  1  0
  4  5  1  0
  5  6  1  0
  5  7  1  0
  7  8  2  0
  7  9  1  0
  1 10  1  0
  1 11  1  0
  1 12  1  0
  3 13  1  0
  3 14  1  0
  4 15  1  0
  4 16  1  0
  5 17  1  1
  6 18  1  0
  6 19  1  0
  6 20  1  0
M  CHG  2   6   1   9  -1
M  END
>  <meeko>  (3) 
{"is_sidechain": [false], "free_energy": -4.637, "intermolecular_energy": -5.906, "internal_energy": -0.047}

$$$$
3f3d_ligand
     RDKit          3D

 20 19  0  0  0  0  0  0  0  0999 V2000
   24.5540   29.9570   17.8650 C   0  0  0  0  0  0  0  0  0  0  0  0
   26.2890   30.3190   18.2280 S   0  0  0  0  0  0  0  0  0  0  0  0
   26.0330   31.6560   19.4450 C   0  0  0  0  0  0  0  0  0  0  0  0
   26.7950   31.3560   20.7380 C   0  0  0  0  0  0  0  0  0  0  0  0
   27.8370   32.4140   21.0840 C   0  0  2  0  0  0  0  0  0  0  0  0
   28.5390   31.9970   22.3730 N   0  0  0  0  0  0  0  0  0  0  0  0
   27.2520   33.8430   21.3100 C   0  0  0  0  0  0  0  0  0  0  0  0
   26.4560   34.0120   22.2550 O   0  0  0  0  0  0  0  0  0  0  0  0
   27.7700   34.6430   20.4610 O   0  0  0  0  0  0  0  0  0  0  0  0
   23.9987   29.8411   18.8074 H   0  0  0  0  0  0  0  0  0  0  0  0
   24.1208   30.7841   17.2834 H   0  0  0  0  0  0  0  0  0  0  0  0
   24.4877   29.0257   17.2834 H   0  0  0  0  0  0  0  0  0  0  0  0
   26.3959   32.6046   19.0226 H   0  0  0  0  0  0  0  0  0  0  0  0
   24.9594   31.7291   19.6732 H   0  0  0  0  0  0  0  0  0  0  0  0
   26.0709   31.2960   21.5639 H   0  0  0  0  0  0  0  0  0  0  0  0
   27.3316   30.4077   20.5871 H   0  0  0  0  0  0  0  0  0  0  0  0
   28.5149   32.4723   20.2197 H   0  0  0  0  0  0  0  0  0  0  0  0
   29.2280   32.6640   22.7140 H   0  0  0  0  0  0  0  0  0  0  0  0
   28.8680   31.0300   22.3460 H   0  0  0  0  0  0  0  0  0  0  0  0
   27.7170   31.9690   23.0300 H   0  0  0  0  0  0  0  0  0  0  0  0
  1  2  1  0
  2  3  1  0
  3  4  1  0
  4  5  1  0
  5  6  1  0
  5  7  1  0
  7  8  2  0
  7  9  1  0
  1 10  1  0
  1 11  1  0
  1 12  1  0
  3 13  1  0
  3 14  1  0
  4 15  1  0
  4 16  1  0
  5 17  1  6
  6 18  1  0
  6 19  1  0
  6 20  1  0
M  CHG  2   6   1   9  -1
M  END
>  <meeko>  (4) 
{"is_sidechain": [false], "free_energy": -4.336, "intermolecular_energy": -5.467, "internal_energy": -0.105}

$$$$
3f3d_ligand
     RDKit          3D

 20 19  0  0  0  0  0  0  0  0999 V2000
   28.8990   32.5410   21.2180 C   0  0  0  0  0  0  0  0  0  0  0  0
   27.3850   33.1000   22.0380 S   0  0  0  0  0  0  0  0  0  0  0  0
   26.3880   31.5860   21.8140 C   0  0  0  0  0  0  0  0  0  0  0  0
   26.9400   30.7480   20.6580 C   0  0  0  0  0  0  0  0  0  0  0  0
   26.0430   30.7570   19.4240 C   0  0  2  0  0  0  0  0  0  0  0  0
   26.8170   30.1440   18.2610 N   0  0  0  0  0  0  0  0  0  0  0  0
   25.5770   32.1790   18.9790 C   0  0  0  0  0  0  0  0  0  0  0  0
   24.3770   32.4820   19.1350 O   0  0  0  0  0  0  0  0  0  0  0  0
   26.5870   32.8340   18.5550 O   0  0  0  0  0  0  0  0  0  0  0  0
   29.6463   32.2651   21.9765 H   0  0  0  0  0  0  0  0  0  0  0  0
   28.6742   31.6666   20.5896 H   0  0  0  0  0  0  0  0  0  0  0  0
   29.2964   33.3517   20.5896 H   0  0  0  0  0  0  0  0  0  0  0  0
   26.4190   30.9918   22.7392 H   0  0  0  0  0  0  0  0  0  0  0  0
   25.3516   31.8730   21.5828 H   0  0  0  0  0  0  0  0  0  0  0  0
   27.9253   31.1478   20.3763 H   0  0  0  0  0  0  0  0  0  0  0  0
   27.0000   29.7074   21.0096 H   0  0  0  0  0  0  0  0  0  0  0  0
   25.1413   30.1877   19.6939 H   0  0  0  0  0  0  0  0  0  0  0  0
   26.9010   30.7460   17.4450 H   0  0  0  0  0  0  0  0  0  0  0  0
   26.5180   29.1910   18.0500 H   0  0  0  0  0  0  0  0  0  0  0  0
   27.7610   30.0230   18.7100 H   0  0  0  0  0  0  0  0  0  0  0  0
  1  2  1  0
  2  3  1  0
  3  4  1  0
  4  5  1  0
  5  6  1  0
  5  7  1  0
  7  8  2  0
  7  9  1  0
  1 10  1  0
  1 11  1  0
  1 12  1  0
  3 13  1  0
  3 14  1  0
  4 15  1  0
  4 16  1  0
  5 17  1  1
  6 18  1  0
  6 19  1  0
  6 20  1  0
M  CHG  2   6   1   9  -1
M  END
>  <meeko>  (5) 
{"is_sidechain": [false], "free_energy": -3.452, "intermolecular_energy": -4.28, "internal_energy": -0.176}

$$$$
