1q8u_ligand
     RDKit          3D

 44 46  0  0  0  0  0  0  0  0999 V2000
    5.6440    9.8440    1.0920 C   0  0  0  0  0  0  0  0  0  0  0  0
    5.2130    9.8170    2.5300 C   0  0  0  0  0  0  0  0  0  0  0  0
    3.8390    9.6440    2.7390 C   0  0  0  0  0  0  0  0  0  0  0  0
    3.2320    9.7280    3.9300 N   0  0  0  0  0  0  0  0  0  0  0  0
    4.0140   10.0560    4.9710 C   0  0  0  0  0  0  0  0  0  0  0  0
    5.3970   10.2300    4.9060 C   0  0  0  0  0  0  0  0  0  0  0  0
    6.0820   10.6150    6.0710 C   0  0  0  0  0  0  0  0  0  0  0  0
    7.4550   10.8100    6.0660 C   0  0  0  0  0  0  0  0  0  0  0  0
    8.1670   10.5460    4.9100 C   0  0  0  0  0  0  0  0  0  0  0  0
    7.5030   10.1040    3.7460 C   0  0  0  0  0  0  0  0  0  0  0  0
    8.5700    9.4910    2.4680 S   0  0  0  0  0  0  0  0  0  0  0  0
    8.3730    8.0700    2.2430 O   0  0  0  0  0  0  0  0  0  0  0  0
    8.5560   10.4210    1.3640 O   0  0  0  0  0  0  0  0  0  0  0  0
   10.1570    9.4990    3.1380 N   0  0  0  0  0  0  0  0  0  0  0  0
   10.6440    8.2230    3.7430 C   0  0  0  0  0  0  0  0  0  0  0  0
   11.5590    7.3720    2.8710 C   0  0  0  0  0  0  0  0  0  0  0  0
   13.0250    7.7640    2.8850 C   0  0  0  0  0  0  0  0  0  0  0  0
   13.2900    9.0360    2.1650 N   0  0  0  0  0  0  0  0  0  0  0  0
   12.1340    9.6870    1.4690 C   0  0  0  0  0  0  0  0  0  0  0  0
   11.1390   10.4000    2.4430 C   0  0  2  0  0  0  0  0  0  0  0  0
   11.8450   11.3020    3.4550 C   0  0  0  0  0  0  0  0  0  0  0  0
    6.0700   10.0270    3.6690 C   0  0  0  0  0  0  0  0  0  0  0  0
    6.7406    9.9127    1.0391 H   0  0  0  0  0  0  0  0  0  0  0  0
    5.3097    8.9232    0.5917 H   0  0  0  0  0  0  0  0  0  0  0  0
    5.1974   10.7159    0.5917 H   0  0  0  0  0  0  0  0  0  0  0  0
    3.2132    9.4232    1.8617 H   0  0  0  0  0  0  0  0  0  0  0  0
    3.5283   10.1981    5.9477 H   0  0  0  0  0  0  0  0  0  0  0  0
    5.5188   10.7644    7.0040 H   0  0  0  0  0  0  0  0  0  0  0  0
    7.9706   11.1696    6.9687 H   0  0  0  0  0  0  0  0  0  0  0  0
    9.2585   10.6815    4.8979 H   0  0  0  0  0  0  0  0  0  0  0  0
   11.1947    8.4755    4.6611 H   0  0  0  0  0  0  0  0  0  0  0  0
    9.7438    7.6130    3.9086 H   0  0  0  0  0  0  0  0  0  0  0  0
   11.4834    6.3303    3.2162 H   0  0  0  0  0  0  0  0  0  0  0  0
   11.2161    7.5224    1.8367 H   0  0  0  0  0  0  0  0  0  0  0  0
   13.3477    7.8785    3.9303 H   0  0  0  0  0  0  0  0  0  0  0  0
   13.5841    6.9697    2.3687 H   0  0  0  0  0  0  0  0  0  0  0  0
   14.0480    8.8470    1.4790 H   0  0  0  0  0  0  0  0  0  0  0  0
   13.7220    9.7040    2.8170 H   0  0  0  0  0  0  0  0  0  0  0  0
   12.5280   10.4349    0.7651 H   0  0  0  0  0  0  0  0  0  0  0  0
   11.5725    8.8896    0.9603 H   0  0  0  0  0  0  0  0  0  0  0  0
   10.5396   11.0270    1.7665 H   0  0  0  0  0  0  0  0  0  0  0  0
   11.5911   10.9777    4.4750 H   0  0  0  0  0  0  0  0  0  0  0  0
   12.9332   11.2352    3.3092 H   0  0  0  0  0  0  0  0  0  0  0  0
   11.5187   12.3423    3.3092 H   0  0  0  0  0  0  0  0  0  0  0  0
  1  2  1  0
  2  3  2  0
  3  4  1  0
  4  5  2  0
  5  6  1  0
  6  7  2  0
  7  8  1  0
  8  9  2  0
  9 10  1  0
 10 11  1  0
 11 12  2  0
 11 13  2  0
 11 14  1  0
 14 15  1  0
 15 16  1  0
 16 17  1  0
 17 18  1  0
 18 19  1  0
 19 20  1  0
 20 21  1  0
 10 22  2  0
 22  2  1  0
 22  6  1  0
 20 14  1  0
  1 23  1  0
  1 24  1  0
  1 25  1  0
  3 26  1  0
  5 27  1  0
  7 28  1  0
  8 29  1  0
  9 30  1  0
 15 31  1  0
 15 32  1  0
 16 33  1  0
 16 34  1  0
 17 35  1  0
 17 36  1  0
 18 37  1  0
 18 38  1  0
 19 39  1  0
 19 40  1  0
 20 41  1  6
 21 42  1  0
 21 43  1  0
 21 44  1  0
M  CHG  1  18   1
M  END
>  <meeko>  (1) 
{"is_sidechain": [false], "free_energy": -7.013, "intermolecular_energy": -10.293, "internal_energy": 0.39}

$$$$
1q8u_ligand
     RDKit          3D

 44 46  0  0  0  0  0  0  0  0999 V2000
    8.1750    9.1740    6.0060 C   0  0  0  0  0  0  0  0  0  0  0  0
    7.2460    9.7200    4.9590 C   0  0  0  0  0  0  0  0  0  0  0  0
    5.9350    9.9570    5.3910 C   0  0  0  0  0  0  0  0  0  0  0  0
    4.9210   10.3100    4.5900 N   0  0  0  0  0  0  0  0  0  0  0  0
    5.2000   10.3810    3.2780 C   0  0  0  0  0  0  0  0  0  0  0  0
    6.4650   10.1950    2.7210 C   0  0  0  0  0  0  0  0  0  0  0  0
    6.6000   10.2580    1.3230 C   0  0  0  0  0  0  0  0  0  0  0  0
    7.8310   10.0740    0.7110 C   0  0  0  0  0  0  0  0  0  0  0  0
    8.9540    9.9000    1.5000 C   0  0  0  0  0  0  0  0  0  0  0  0
    8.8460    9.8910    2.9060 C   0  0  0  0  0  0  0  0  0  0  0  0
   10.3910   10.0000    3.7720 S   0  0  0  0  0  0  0  0  0  0  0  0
   10.5240   11.2660    4.4720 O   0  0  0  0  0  0  0  0  0  0  0  0
   10.6310    8.7510    4.4550 O   0  0  0  0  0  0  0  0  0  0  0  0
   11.5990   10.1700    2.5560 N   0  0  0  0  0  0  0  0  0  0  0  0
   12.2000   11.5270    2.3830 C   0  0  0  0  0  0  0  0  0  0  0  0
   12.5450   11.9320    0.9560 C   0  0  0  0  0  0  0  0  0  0  0  0
   13.8520   11.3810    0.4170 C   0  0  0  0  0  0  0  0  0  0  0  0
   13.9110    9.8960    0.4500 N   0  0  0  0  0  0  0  0  0  0  0  0
   13.8960    9.2370    1.7950 C   0  0  0  0  0  0  0  0  0  0  0  0
   12.4570    8.9570    2.3350 C   0  0  2  0  0  0  0  0  0  0  0  0
   11.7080    7.9150    1.5050 C   0  0  0  0  0  0  0  0  0  0  0  0
    7.5740    9.9360    3.5740 C   0  0  0  0  0  0  0  0  0  0  0  0
    7.7787    9.4069    7.0053 H   0  0  0  0  0  0  0  0  0  0  0  0
    8.2582    8.0833    5.8896 H   0  0  0  0  0  0  0  0  0  0  0  0
    9.1683    9.6320    5.8896 H   0  0  0  0  0  0  0  0  0  0  0  0
    5.7229    9.8453    6.4646 H   0  0  0  0  0  0  0  0  0  0  0  0
    4.3691   10.6023    2.5920 H   0  0  0  0  0  0  0  0  0  0  0  0
    5.7132   10.4568    0.7033 H   0  0  0  0  0  0  0  0  0  0  0  0
    7.9132   10.0665   -0.3859 H   0  0  0  0  0  0  0  0  0  0  0  0
    9.9383    9.7677    1.0272 H   0  0  0  0  0  0  0  0  0  0  0  0
   11.4847   12.2637    2.7775 H   0  0  0  0  0  0  0  0  0  0  0  0
   13.1593   11.4951    2.9203 H   0  0  0  0  0  0  0  0  0  0  0  0
   11.7341   11.5832    0.2996 H   0  0  0  0  0  0  0  0  0  0  0  0
   12.6632   13.0255    0.9733 H   0  0  0  0  0  0  0  0  0  0  0  0
   13.9703   11.7139   -0.6247 H   0  0  0  0  0  0  0  0  0  0  0  0
   14.6599   11.7579    1.0614 H   0  0  0  0  0  0  0  0  0  0  0  0
   14.7670    9.6130   -0.0670 H   0  0  0  0  0  0  0  0  0  0  0  0
   13.1490    9.5200   -0.1280 H   0  0  0  0  0  0  0  0  0  0  0  0
   14.4322    8.2795    1.7197 H   0  0  0  0  0  0  0  0  0  0  0  0
   14.3775    9.9300    2.5006 H   0  0  0  0  0  0  0  0  0  0  0  0
   12.6464    8.5449    3.3372 H   0  0  0  0  0  0  0  0  0  0  0  0
   11.1996    7.2077    2.1767 H   0  0  0  0  0  0  0  0  0  0  0  0
   10.9634    8.4179    0.8705 H   0  0  0  0  0  0  0  0  0  0  0  0
   12.4220    7.3695    0.8705 H   0  0  0  0  0  0  0  0  0  0  0  0
  1  2  1  0
  2  3  2  0
  3  4  1  0
  4  5  2  0
  5  6  1  0
  6  7  2  0
  7  8  1  0
  8  9  2  0
  9 10  1  0
 10 11  1  0
 11 12  2  0
 11 13  2  0
 11 14  1  0
 14 15  1  0
 15 16  1  0
 16 17  1  0
 17 18  1  0
 18 19  1  0
 19 20  1  0
 20 21  1  0
 10 22  2  0
 22  2  1  0
 22  6  1  0
 20 14  1  0
  1 23  1  0
  1 24  1  0
  1 25  1  0
  3 26  1  0
  5 27  1  0
  7 28  1  0
  8 29  1  0
  9 30  1  0
 15 31  1  0
 15 32  1  0
 16 33  1  0
 16 34  1  0
 17 35  1  0
 17 36  1  0
 18 37  1  0
 18 38  1  0
 19 39  1  0
 19 40  1  0
 20 41  1  1
 21 42  1  0
 21 43  1  0
 21 44  1  0
M  CHG  1  18   1
M  END
>  <meeko>  (2) 
{"is_sidechain": [false], "free_energy": -5.997, "intermolecular_energy": -9.087, "internal_energy": 0.675}

$$$$
1q8u_ligand
     RDKit          3D

 44 46  0  0  0  0  0  0  0  0999 V2000
    7.6610    9.3020    0.7760 C   0  0  0  0  0  0  0  0  0  0  0  0
    6.5090    9.5260    1.7140 C   0  0  0  0  0  0  0  0  0  0  0  0
    5.2600    9.6770    1.1000 C   0  0  0  0  0  0  0  0  0  0  0  0
    4.1320   10.0200    1.7370 N   0  0  0  0  0  0  0  0  0  0  0  0
    4.2510   10.2830    3.0500 C   0  0  0  0  0  0  0  0  0  0  0  0
    5.4280   10.1450    3.7870 C   0  0  0  0  0  0  0  0  0  0  0  0
    5.4140   10.4970    5.1470 C   0  0  0  0  0  0  0  0  0  0  0  0
    6.5550   10.3890    5.9290 C   0  0  0  0  0  0  0  0  0  0  0  0
    7.7020    9.8540    5.3730 C   0  0  0  0  0  0  0  0  0  0  0  0
    7.7180    9.4420    4.0240 C   0  0  0  0  0  0  0  0  0  0  0  0
    9.1320    8.4770    3.5570 S   0  0  0  0  0  0  0  0  0  0  0  0
    9.9390    8.1170    4.7100 O   0  0  0  0  0  0  0  0  0  0  0  0
    8.7180    7.4750    2.6040 O   0  0  0  0  0  0  0  0  0  0  0  0
   10.1930    9.5640    2.7430 N   0  0  0  0  0  0  0  0  0  0  0  0
   10.8500   10.6190    3.5720 C   0  0  0  0  0  0  0  0  0  0  0  0
   12.3720   10.5830    3.6220 C   0  0  0  0  0  0  0  0  0  0  0  0
   12.9780    9.2940    4.1460 C   0  0  0  0  0  0  0  0  0  0  0  0
   12.5120    8.0940    3.4050 N   0  0  0  0  0  0  0  0  0  0  0  0
   12.2740    8.2420    1.9330 C   0  0  0  0  0  0  0  0  0  0  0  0
   10.9430    8.9740    1.5820 C   0  0  2  0  0  0  0  0  0  0  0  0
   11.1220   10.0150    0.4760 C   0  0  0  0  0  0  0  0  0  0  0  0
    6.6040    9.6690    3.1440 C   0  0  0  0  0  0  0  0  0  0  0  0
    8.5778    9.1237    1.3572 H   0  0  0  0  0  0  0  0  0  0  0  0
    7.4529    8.4275    0.1420 H   0  0  0  0  0  0  0  0  0  0  0  0
    7.7958   10.1908    0.1420 H   0  0  0  0  0  0  0  0  0  0  0  0
    5.2002    9.5013    0.0158 H   0  0  0  0  0  0  0  0  0  0  0  0
    3.3544   10.6328    3.5828 H   0  0  0  0  0  0  0  0  0  0  0  0
    4.4816   10.8649    5.6001 H   0  0  0  0  0  0  0  0  0  0  0  0
    6.5470   10.7244    6.9766 H   0  0  0  0  0  0  0  0  0  0  0  0
    8.6087    9.7488    5.9869 H   0  0  0  0  0  0  0  0  0  0  0  0
   10.5503   11.5977    3.1691 H   0  0  0  0  0  0  0  0  0  0  0  0
   10.5167   10.4333    4.6037 H   0  0  0  0  0  0  0  0  0  0  0  0
   12.7486   10.7441    2.6011 H   0  0  0  0  0  0  0  0  0  0  0  0
   12.6695   11.3677    4.3332 H   0  0  0  0  0  0  0  0  0  0  0  0
   14.0724    9.3588    4.0566 H   0  0  0  0  0  0  0  0  0  0  0  0
   12.6591    9.1805    5.1926 H   0  0  0  0  0  0  0  0  0  0  0  0
   11.6380    7.7700    3.8680 H   0  0  0  0  0  0  0  0  0  0  0  0
   13.1690    7.3220    3.5740 H   0  0  0  0  0  0  0  0  0  0  0  0
   13.1088    8.8145    1.5024 H   0  0  0  0  0  0  0  0  0  0  0  0
   12.2011    7.2266    1.5163 H   0  0  0  0  0  0  0  0  0  0  0  0
   10.3054    8.1580    1.2110 H   0  0  0  0  0  0  0  0  0  0  0  0
   11.2920   11.0037    0.9271 H   0  0  0  0  0  0  0  0  0  0  0  0
   11.9865    9.7428   -0.1473 H   0  0  0  0  0  0  0  0  0  0  0  0
   10.2162   10.0472   -0.1473 H   0  0  0  0  0  0  0  0  0  0  0  0
  1  2  1  0
  2  3  2  0
  3  4  1  0
  4  5  2  0
  5  6  1  0
  6  7  2  0
  7  8  1  0
  8  9  2  0
  9 10  1  0
 10 11  1  0
 11 12  2  0
 11 13  2  0
 11 14  1  0
 14 15  1  0
 15 16  1  0
 16 17  1  0
 17 18  1  0
 18 19  1  0
 19 20  1  0
 20 21  1  0
 10 22  2  0
 22  2  1  0
 22  6  1  0
 20 14  1  0
  1 23  1  0
  1 24  1  0
  1 25  1  0
  3 26  1  0
  5 27  1  0
  7 28  1  0
  8 29  1  0
  9 30  1  0
 15 31  1  0
 15 32  1  0
 16 33  1  0
 16 34  1  0
 17 35  1  0
 17 36  1  0
 18 37  1  0
 18 38  1  0
 19 39  1  0
 19 40  1  0
 20 41  1  6
 21 42  1  0
 21 43  1  0
 21 44  1  0
M  CHG  1  18   1
M  END
>  <meeko>  (3) 
{"is_sidechain": [false], "free_energy": -5.818, "intermolecular_energy": -9.164, "internal_energy": 1.015}

$$$$
1q8u_ligand
     RDKit          3D

 44 46  0  0  0  0  0  0  0  0999 V2000
    9.0940    9.8430    6.0930 C   0  0  0  0  0  0  0  0  0  0  0  0
    7.8200   10.1440    5.3560 C   0  0  0  0  0  0  0  0  0  0  0  0
    6.7010   10.3720    6.1670 C   0  0  0  0  0  0  0  0  0  0  0  0
    5.4490   10.5190    5.7150 N   0  0  0  0  0  0  0  0  0  0  0  0
    5.2780   10.3810    4.3890 C   0  0  0  0  0  0  0  0  0  0  0  0
    6.3080   10.1800    3.4700 C   0  0  0  0  0  0  0  0  0  0  0  0
    5.9750   10.0110    2.1150 C   0  0  0  0  0  0  0  0  0  0  0  0
    6.9540    9.8000    1.1550 C   0  0  0  0  0  0  0  0  0  0  0  0
    8.2840    9.8330    1.5340 C   0  0  0  0  0  0  0  0  0  0  0  0
    8.6390   10.0580    2.8810 C   0  0  0  0  0  0  0  0  0  0  0  0
   10.3570   10.4080    3.1490 S   0  0  0  0  0  0  0  0  0  0  0  0
   11.0810   10.5260    1.8960 O   0  0  0  0  0  0  0  0  0  0  0  0
   10.4720   11.4250    4.1670 O   0  0  0  0  0  0  0  0  0  0  0  0
   11.0370    8.9570    3.7830 N   0  0  0  0  0  0  0  0  0  0  0  0
   10.2180    7.7130    3.6580 C   0  0  0  0  0  0  0  0  0  0  0  0
   10.5010    6.8430    2.4400 C   0  0  0  0  0  0  0  0  0  0  0  0
   10.9800    7.5830    1.2050 C   0  0  0  0  0  0  0  0  0  0  0  0
   12.4000    8.0090    1.3010 N   0  0  0  0  0  0  0  0  0  0  0  0
   13.0730    7.8650    2.6310 C   0  0  0  0  0  0  0  0  0  0  0  0
   12.5330    8.8590    3.6910 C   0  0  2  0  0  0  0  0  0  0  0  0
   13.1410    8.6250    5.0740 C   0  0  0  0  0  0  0  0  0  0  0  0
    7.6550   10.1390    3.9260 C   0  0  0  0  0  0  0  0  0  0  0  0
    8.9098    9.8865    7.1766 H   0  0  0  0  0  0  0  0  0  0  0  0
    9.4460    8.8370    5.8210 H   0  0  0  0  0  0  0  0  0  0  0  0
    9.8590   10.5851    5.8210 H   0  0  0  0  0  0  0  0  0  0  0  0
    6.8622   10.4348    7.2533 H   0  0  0  0  0  0  0  0  0  0  0  0
    4.2503   10.4302    3.9999 H   0  0  0  0  0  0  0  0  0  0  0  0
    4.9187   10.0467    1.8101 H   0  0  0  0  0  0  0  0  0  0  0  0
    6.6767    9.6092    0.1077 H   0  0  0  0  0  0  0  0  0  0  0  0
    9.0705    9.6828    0.7798 H   0  0  0  0  0  0  0  0  0  0  0  0
   10.3955    7.1024    4.5556 H   0  0  0  0  0  0  0  0  0  0  0  0
    9.1788    8.0543    3.5419 H   0  0  0  0  0  0  0  0  0  0  0  0
   11.2744    6.1120    2.7182 H   0  0  0  0  0  0  0  0  0  0  0  0
    9.5384    6.3875    2.1644 H   0  0  0  0  0  0  0  0  0  0  0  0
   10.8705    6.9201    0.3340 H   0  0  0  0  0  0  0  0  0  0  0  0
   10.3685    8.4921    1.1068 H   0  0  0  0  0  0  0  0  0  0  0  0
   12.4430    9.0020    0.9940 H   0  0  0  0  0  0  0  0  0  0  0  0
   12.9450    7.5150    0.5820 H   0  0  0  0  0  0  0  0  0  0  0  0
   12.9120    6.8401    2.9967 H   0  0  0  0  0  0  0  0  0  0  0  0
   14.1410    8.0849    2.4861 H   0  0  0  0  0  0  0  0  0  0  0  0
   12.8680    9.8361    3.3128 H   0  0  0  0  0  0  0  0  0  0  0  0
   12.4112    8.9059    5.8477 H   0  0  0  0  0  0  0  0  0  0  0  0
   13.4020    7.5622    5.1847 H   0  0  0  0  0  0  0  0  0  0  0  0
   14.0472    9.2386    5.1847 H   0  0  0  0  0  0  0  0  0  0  0  0
  1  2  1  0
  2  3  2  0
  3  4  1  0
  4  5  2  0
  5  6  1  0
  6  7  2  0
  7  8  1  0
  8  9  2  0
  9 10  1  0
 10 11  1  0
 11 12  2  0
 11 13  2  0
 11 14  1  0
 14 15  1  0
 15 16  1  0
 16 17  1  0
 17 18  1  0
 18 19  1  0
 19 20  1  0
 20 21  1  0
 10 22  2  0
 22  2  1  0
 22  6  1  0
 20 14  1  0
  1 23  1  0
  1 24  1  0
  1 25  1  0
  3 26  1  0
  5 27  1  0
  7 28  1  0
  8 29  1  0
  9 30  1  0
 15 31  1  0
 15 32  1  0
 16 33  1  0
 16 34  1  0
 17 35  1  0
 17 36  1  0
 18 37  1  0
 18 38  1  0
 19 39  1  0
 19 40  1  0
 20 41  1  6
 21 42  1  0
 21 43  1  0
 21 44  1  0
M  CHG  1  18   1
M  END
>  <meeko>  (4) 
{"is_sidechain": [false], "free_energy": -5.582, "intermolecular_energy": -9.056, "internal_energy": 1.253}

$$$$
1q8u_ligand
     RDKit          3D

 44 46  0  0  0  0  0  0  0  0999 V2000
    8.6820    7.8060    5.2210 C   0  0  0  0  0  0  0  0  0  0  0  0
    7.8670    9.0060    4.8290 C   0  0  0  0  0  0  0  0  0  0  0  0
    7.3020    9.7170    5.8950 C   0  0  0  0  0  0  0  0  0  0  0  0
    6.4340   10.7290    5.7610 N   0  0  0  0  0  0  0  0  0  0  0  0
    6.0580   11.0250    4.5050 C   0  0  0  0  0  0  0  0  0  0  0  0
    6.5640   10.4140    3.3570 C   0  0  0  0  0  0  0  0  0  0  0  0
    6.0460   10.7970    2.1090 C   0  0  0  0  0  0  0  0  0  0  0  0
    6.5040   10.2200    0.9330 C   0  0  0  0  0  0  0  0  0  0  0  0
    7.5410    9.3070    0.9930 C   0  0  0  0  0  0  0  0  0  0  0  0
    8.1120    8.9530    2.2330 C   0  0  0  0  0  0  0  0  0  0  0  0
    9.6330    8.0460    2.1210 S   0  0  0  0  0  0  0  0  0  0  0  0
    9.5160    6.7290    2.7220 O   0  0  0  0  0  0  0  0  0  0  0  0
   10.1730    8.2050    0.7920 O   0  0  0  0  0  0  0  0  0  0  0  0
   10.7170    8.8110    3.2190 N   0  0  0  0  0  0  0  0  0  0  0  0
   11.4570    7.9260    4.1690 C   0  0  0  0  0  0  0  0  0  0  0  0
   12.7230    7.2720    3.6300 C   0  0  0  0  0  0  0  0  0  0  0  0
   13.9940    8.0900    3.7760 C   0  0  0  0  0  0  0  0  0  0  0  0
   13.7870    9.5340    3.4920 N   0  0  0  0  0  0  0  0  0  0  0  0
   12.9090    9.8890    2.3320 C   0  0  0  0  0  0  0  0  0  0  0  0
   11.3930   10.0460    2.6940 C   0  0  2  0  0  0  0  0  0  0  0  0
   11.1210   11.2370    3.6120 C   0  0  0  0  0  0  0  0  0  0  0  0
    7.5730    9.4190    3.4820 C   0  0  0  0  0  0  0  0  0  0  0  0
    8.7289    7.7370    6.3178 H   0  0  0  0  0  0  0  0  0  0  0  0
    8.2139    6.8967    4.8161 H   0  0  0  0  0  0  0  0  0  0  0  0
    9.6999    7.9059    4.8161 H   0  0  0  0  0  0  0  0  0  0  0  0
    7.5914    9.4238    6.9150 H   0  0  0  0  0  0  0  0  0  0  0  0
    5.2953   11.8064    4.3723 H   0  0  0  0  0  0  0  0  0  0  0  0
    5.2631   11.5683    2.0629 H   0  0  0  0  0  0  0  0  0  0  0  0
    6.0489   10.4849   -0.0328 H   0  0  0  0  0  0  0  0  0  0  0  0
    7.9233    8.8535    0.0666 H   0  0  0  0  0  0  0  0  0  0  0  0
   11.7380    8.5320    5.0429 H   0  0  0  0  0  0  0  0  0  0  0  0
   10.7703    7.0970    4.3955 H   0  0  0  0  0  0  0  0  0  0  0  0
   12.8680    6.3220    4.1652 H   0  0  0  0  0  0  0  0  0  0  0  0
   12.5638    7.1515    2.5483 H   0  0  0  0  0  0  0  0  0  0  0  0
   14.3632    7.9842    4.8068 H   0  0  0  0  0  0  0  0  0  0  0  0
   14.7185    7.7091    3.0411 H   0  0  0  0  0  0  0  0  0  0  0  0
   14.7280    9.9570    3.3590 H   0  0  0  0  0  0  0  0  0  0  0  0
   13.4400    9.9940    4.3430 H   0  0  0  0  0  0  0  0  0  0  0  0
   13.2630   10.8417    1.9112 H   0  0  0  0  0  0  0  0  0  0  0  0
   12.9773    9.0543    1.6188 H   0  0  0  0  0  0  0  0  0  0  0  0
   10.9303   10.2403    1.7151 H   0  0  0  0  0  0  0  0  0  0  0  0
   11.1944   10.9154    4.6614 H   0  0  0  0  0  0  0  0  0  0  0  0
   11.8620   12.0264    3.4177 H   0  0  0  0  0  0  0  0  0  0  0  0
   10.1108   11.6265    3.4177 H   0  0  0  0  0  0  0  0  0  0  0  0
  1  2  1  0
  2  3  2  0
  3  4  1  0
  4  5  2  0
  5  6  1  0
  6  7  2  0
  7  8  1  0
  8  9  2  0
  9 10  1  0
 10 11  1  0
 11 12  2  0
 11 13  2  0
 11 14  1  0
 14 15  1  0
 15 16  1  0
 16 17  1  0
 17 18  1  0
 18 19  1  0
 19 20  1  0
 20 21  1  0
 10 22  2  0
 22  2  1  0
 22  6  1  0
 20 14  1  0
  1 23  1  0
  1 24  1  0
  1 25  1  0
  3 26  1  0
  5 27  1  0
  7 28  1  0
  8 29  1  0
  9 30  1  0
 15 31  1  0
 15 32  1  0
 16 33  1  0
 16 34  1  0
 17 35  1  0
 17 36  1  0
 18 37  1  0
 18 38  1  0
 19 39  1  0
 19 40  1  0
 20 41  1  6
 21 42  1  0
 21 43  1  0
 21 44  1  0
M  CHG  1  18   1
M  END
>  <meeko>  (5) 
{"is_sidechain": [false], "free_energy": -5.119, "intermolecular_energy": -8.488, "internal_energy": 1.366}

$$$$
1q8u_ligand
     RDKit          3D

 44 46  0  0  0  0  0  0  0  0999 V2000
   11.0000   11.0330    0.6610 C   0  0  0  0  0  0  0  0  0  0  0  0
    9.6680   10.3500    0.5320 C   0  0  0  0  0  0  0  0  0  0  0  0
    9.3370    9.9280   -0.7610 C   0  0  0  0  0  0  0  0  0  0  0  0
    8.1470    9.4250   -1.1180 N   0  0  0  0  0  0  0  0  0  0  0  0
    7.2090    9.3850   -0.1570 C   0  0  0  0  0  0  0  0  0  0  0  0
    7.4160    9.7480    1.1740 C   0  0  0  0  0  0  0  0  0  0  0  0
    6.3280    9.6940    2.0620 C   0  0  0  0  0  0  0  0  0  0  0  0
    6.4700   10.0510    3.3950 C   0  0  0  0  0  0  0  0  0  0  0  0
    7.7240   10.3920    3.8690 C   0  0  0  0  0  0  0  0  0  0  0  0
    8.8390   10.3960    3.0040 C   0  0  0  0  0  0  0  0  0  0  0  0
   10.4100   10.5210    3.8170 S   0  0  0  0  0  0  0  0  0  0  0  0
   11.1030   11.7460    3.4590 O   0  0  0  0  0  0  0  0  0  0  0  0
   10.2510   10.1410    5.2010 O   0  0  0  0  0  0  0  0  0  0  0  0
   11.4210    9.3430    3.0670 N   0  0  0  0  0  0  0  0  0  0  0  0
   12.8930    9.5940    3.1000 C   0  0  0  0  0  0  0  0  0  0  0  0
   13.6080    9.2300    4.3950 C   0  0  0  0  0  0  0  0  0  0  0  0
   14.0400    7.7810    4.5190 C   0  0  0  0  0  0  0  0  0  0  0  0
   13.0750    6.8360    3.9000 N   0  0  0  0  0  0  0  0  0  0  0  0
   11.6200    7.0560    4.1790 C   0  0  0  0  0  0  0  0  0  0  0  0
   10.9180    7.9290    3.1420 C   0  0  2  0  0  0  0  0  0  0  0  0
   10.8890    7.2980    1.7510 C   0  0  0  0  0  0  0  0  0  0  0  0
    8.7080   10.1730    1.5900 C   0  0  0  0  0  0  0  0  0  0  0  0
   11.2458   11.1591    1.7257 H   0  0  0  0  0  0  0  0  0  0  0  0
   11.7745   10.4208    0.1759 H   0  0  0  0  0  0  0  0  0  0  0  0
   10.9549   12.0192    0.1759 H   0  0  0  0  0  0  0  0  0  0  0  0
   10.1088   10.0155   -1.5399 H   0  0  0  0  0  0  0  0  0  0  0  0
    6.2035    9.0406   -0.4406 H   0  0  0  0  0  0  0  0  0  0  0  0
    5.3460    9.3626    1.6934 H   0  0  0  0  0  0  0  0  0  0  0  0
    5.5980   10.0627    4.0654 H   0  0  0  0  0  0  0  0  0  0  0  0
    7.8530   10.6619    4.9275 H   0  0  0  0  0  0  0  0  0  0  0  0
   13.3513    9.0104    2.2880 H   0  0  0  0  0  0  0  0  0  0  0  0
   13.0086   10.6829    2.9957 H   0  0  0  0  0  0  0  0  0  0  0  0
   14.5068    9.8593    4.4740 H   0  0  0  0  0  0  0  0  0  0  0  0
   12.8770    9.3965    5.2000 H   0  0  0  0  0  0  0  0  0  0  0  0
   15.0151    7.6617    4.0240 H   0  0  0  0  0  0  0  0  0  0  0  0
   14.0941    7.5429    5.5915 H   0  0  0  0  0  0  0  0  0  0  0  0
   13.3470    5.8790    4.2050 H   0  0  0  0  0  0  0  0  0  0  0  0
   13.2340    6.8140    2.8850 H   0  0  0  0  0  0  0  0  0  0  0  0
   11.1198    6.0766    4.2034 H   0  0  0  0  0  0  0  0  0  0  0  0
   11.5552    7.5865    5.1405 H   0  0  0  0  0  0  0  0  0  0  0  0
    9.8853    7.9875    3.5163 H   0  0  0  0  0  0  0  0  0  0  0  0
   10.8387    6.2033    1.8460 H   0  0  0  0  0  0  0  0  0  0  0  0
   10.0065    7.6594    1.2027 H   0  0  0  0  0  0  0  0  0  0  0  0
   11.8009    7.5770    1.2027 H   0  0  0  0  0  0  0  0  0  0  0  0
  1  2  1  0
  2  3  2  0
  3  4  1  0
  4  5  2  0
  5  6  1  0
  6  7  2  0
  7  8  1  0
  8  9  2  0
  9 10  1  0
 10 11  1  0
 11 12  2  0
 11 13  2  0
 11 14  1  0
 14 15  1  0
 15 16  1  0
 16 17  1  0
 17 18  1  0
 18 19  1  0
 19 20  1  0
 20 21  1  0
 10 22  2  0
 22  2  1  0
 22  6  1  0
 20 14  1  0
  1 23  1  0
  1 24  1  0
  1 25  1  0
  3 26  1  0
  5 27  1  0
  7 28  1  0
  8 29  1  0
  9 30  1  0
 15 31  1  0
 15 32  1  0
 16 33  1  0
 16 34  1  0
 17 35  1  0
 17 36  1  0
 18 37  1  0
 18 38  1  0
 19 39  1  0
 19 40  1  0
 20 41  1  1
 21 42  1  0
 21 43  1  0
 21 44  1  0
M  CHG  1  18   1
M  END
>  <meeko>  (6) 
{"is_sidechain": [false], "free_energy": -4.739, "intermolecular_energy": -7.604, "internal_energy": 1.038}

$$$$
1q8u_ligand
     RDKit          3D

 44 46  0  0  0  0  0  0  0  0999 V2000
    8.8520   10.4490   -1.0280 C   0  0  0  0  0  0  0  0  0  0  0  0
    9.8290   10.1400    0.0710 C   0  0  0  0  0  0  0  0  0  0  0  0
   11.1660   10.4390   -0.2170 C   0  0  0  0  0  0  0  0  0  0  0  0
   12.2050   10.1160    0.5640 N   0  0  0  0  0  0  0  0  0  0  0  0
   11.9180    9.4100    1.6700 C   0  0  0  0  0  0  0  0  0  0  0  0
   10.6300    9.0700    2.0860 C   0  0  0  0  0  0  0  0  0  0  0  0
   10.4830    8.2890    3.2450 C   0  0  0  0  0  0  0  0  0  0  0  0
    9.2280    7.9130    3.7040 C   0  0  0  0  0  0  0  0  0  0  0  0
    8.1050    8.3820    3.0470 C   0  0  0  0  0  0  0  0  0  0  0  0
    8.2330    9.2140    1.9150 C   0  0  0  0  0  0  0  0  0  0  0  0
    6.7300    9.9990    1.3950 S   0  0  0  0  0  0  0  0  0  0  0  0
    6.9100   11.4280    1.2070 O   0  0  0  0  0  0  0  0  0  0  0  0
    6.1130    9.1920    0.3700 O   0  0  0  0  0  0  0  0  0  0  0  0
    5.6910    9.9800    2.7700 N   0  0  0  0  0  0  0  0  0  0  0  0
    6.1300   10.7640    3.9630 C   0  0  0  0  0  0  0  0  0  0  0  0
    6.0650   10.0420    5.3020 C   0  0  0  0  0  0  0  0  0  0  0  0
    4.6690    9.7250    5.8070 C   0  0  0  0  0  0  0  0  0  0  0  0
    3.6010   10.2420    4.9130 N   0  0  0  0  0  0  0  0  0  0  0  0
    3.3240    9.4760    3.6560 C   0  0  0  0  0  0  0  0  0  0  0  0
    4.2240    9.8820    2.4590 C   0  0  2  0  0  0  0  0  0  0  0  0
    3.9950    9.0110    1.2240 C   0  0  0  0  0  0  0  0  0  0  0  0
    9.5100    9.5080    1.3260 C   0  0  0  0  0  0  0  0  0  0  0  0
    7.8904   10.7531   -0.5889 H   0  0  0  0  0  0  0  0  0  0  0  0
    9.2460   11.2664   -1.6498 H   0  0  0  0  0  0  0  0  0  0  0  0
    8.7044    9.5537   -1.6498 H   0  0  0  0  0  0  0  0  0  0  0  0
   11.3785   10.9780   -1.1520 H   0  0  0  0  0  0  0  0  0  0  0  0
   12.7600    9.0752    2.2937 H   0  0  0  0  0  0  0  0  0  0  0  0
   11.3785    7.9699    3.7984 H   0  0  0  0  0  0  0  0  0  0  0  0
    9.1282    7.2518    4.5774 H   0  0  0  0  0  0  0  0  0  0  0  0
    7.1044    8.1042    3.4099 H   0  0  0  0  0  0  0  0  0  0  0  0
    7.1732   11.0713    3.7975 H   0  0  0  0  0  0  0  0  0  0  0  0
    5.4196   11.5999    4.0441 H   0  0  0  0  0  0  0  0  0  0  0  0
    6.6128    9.0933    5.2023 H   0  0  0  0  0  0  0  0  0  0  0  0
    6.5029   10.7319    6.0384 H   0  0  0  0  0  0  0  0  0  0  0  0
    4.5634    8.6329    5.8853 H   0  0  0  0  0  0  0  0  0  0  0  0
    4.5506   10.2180    6.7832 H   0  0  0  0  0  0  0  0  0  0  0  0
    3.8500   11.2230    4.6750 H   0  0  0  0  0  0  0  0  0  0  0  0
    2.7330   10.3430    5.4550 H   0  0  0  0  0  0  0  0  0  0  0  0
    3.4818    8.4068    3.8605 H   0  0  0  0  0  0  0  0  0  0  0  0
    2.2874    9.7031    3.3665 H   0  0  0  0  0  0  0  0  0  0  0  0
    3.8947   10.9065    2.2312 H   0  0  0  0  0  0  0  0  0  0  0  0
    3.7270    7.9917    1.5388 H   0  0  0  0  0  0  0  0  0  0  0  0
    3.1780    9.4356    0.6222 H   0  0  0  0  0  0  0  0  0  0  0  0
    4.9152    8.9789    0.6222 H   0  0  0  0  0  0  0  0  0  0  0  0
  1  2  1  0
  2  3  2  0
  3  4  1  0
  4  5  2  0
  5  6  1  0
  6  7  2  0
  7  8  1  0
  8  9  2  0
  9 10  1  0
 10 11  1  0
 11 12  2  0
 11 13  2  0
 11 14  1  0
 14 15  1  0
 15 16  1  0
 16 17  1  0
 17 18  1  0
 18 19  1  0
 19 20  1  0
 20 21  1  0
 10 22  2  0
 22  2  1  0
 22  6  1  0
 20 14  1  0
  1 23  1  0
  1 24  1  0
  1 25  1  0
  3 26  1  0
  5 27  1  0
  7 28  1  0
  8 29  1  0
  9 30  1  0
 15 31  1  0
 15 32  1  0
 16 33  1  0
 16 34  1  0
 17 35  1  0
 17 36  1  0
 18 37  1  0
 18 38  1  0
 19 39  1  0
 19 40  1  0
 20 41  1  6
 21 42  1  0
 21 43  1  0
 21 44  1  0
M  CHG  1  18   1
M  END
>  <meeko>  (7) 
{"is_sidechain": [false], "free_energy": -4.701, "intermolecular_energy": -8.405, "internal_energy": 1.895}

$$$$
1q8u_ligand
     RDKit          3D

 44 46  0  0  0  0  0  0  0  0999 V2000
    9.9260   10.1310    5.4260 C   0  0  0  0  0  0  0  0  0  0  0  0
    8.5610   10.3350    4.8330 C   0  0  0  0  0  0  0  0  0  0  0  0
    7.5370   10.5690    5.7590 C   0  0  0  0  0  0  0  0  0  0  0  0
    6.2340   10.6400    5.4540 N   0  0  0  0  0  0  0  0  0  0  0  0
    5.9140   10.4130    4.1690 C   0  0  0  0  0  0  0  0  0  0  0  0
    6.8360   10.1950    3.1440 C   0  0  0  0  0  0  0  0  0  0  0  0
    6.3530    9.9290    1.8510 C   0  0  0  0  0  0  0  0  0  0  0  0
    7.2200    9.6960    0.7940 C   0  0  0  0  0  0  0  0  0  0  0  0
    8.5830    9.8050    1.0070 C   0  0  0  0  0  0  0  0  0  0  0  0
    9.0840   10.1270    2.2860 C   0  0  0  0  0  0  0  0  0  0  0  0
   10.8040   10.5590    2.3240 S   0  0  0  0  0  0  0  0  0  0  0  0
   11.2320   11.1660    1.0760 O   0  0  0  0  0  0  0  0  0  0  0  0
   11.0980   11.1900    3.5890 O   0  0  0  0  0  0  0  0  0  0  0  0
   11.6630    9.0670    2.2730 N   0  0  0  0  0  0  0  0  0  0  0  0
   13.1410    9.1270    2.4850 C   0  0  0  0  0  0  0  0  0  0  0  0
   13.6160    9.0670    3.9310 C   0  0  0  0  0  0  0  0  0  0  0  0
   13.8450    7.6740    4.4860 C   0  0  0  0  0  0  0  0  0  0  0  0
   12.7190    6.7460    4.2030 N   0  0  0  0  0  0  0  0  0  0  0  0
   11.3380    7.3270    4.1780 C   0  0  0  0  0  0  0  0  0  0  0  0
   10.9010    7.8740    2.7770 C   0  0  2  0  0  0  0  0  0  0  0  0
   10.8380    6.7870    1.7040 C   0  0  0  0  0  0  0  0  0  0  0  0
    8.2280   10.2340    3.4350 C   0  0  0  0  0  0  0  0  0  0  0  0
    9.8543   10.1417    6.5236 H   0  0  0  0  0  0  0  0  0  0  0  0
   10.3289    9.1627    5.0943 H   0  0  0  0  0  0  0  0  0  0  0  0
   10.5944   10.9392    5.0943 H   0  0  0  0  0  0  0  0  0  0  0  0
    7.8227   10.7043    6.8126 H   0  0  0  0  0  0  0  0  0  0  0  0
    4.8462   10.3978    3.9052 H   0  0  0  0  0  0  0  0  0  0  0  0
    5.2675    9.9052    1.6743 H   0  0  0  0  0  0  0  0  0  0  0  0
    6.8300    9.4285   -0.1991 H   0  0  0  0  0  0  0  0  0  0  0  0
    9.2809    9.6394    0.1730 H   0  0  0  0  0  0  0  0  0  0  0  0
   13.5917    8.2792    1.9483 H   0  0  0  0  0  0  0  0  0  0  0  0
   13.4517   10.1148    2.1138 H   0  0  0  0  0  0  0  0  0  0  0  0
   14.5649    9.6192    3.9992 H   0  0  0  0  0  0  0  0  0  0  0  0
   12.8052    9.5025    4.5335 H   0  0  0  0  0  0  0  0  0  0  0  0
   14.7604    7.2628    4.0354 H   0  0  0  0  0  0  0  0  0  0  0  0
   13.9314    7.7643    5.5789 H   0  0  0  0  0  0  0  0  0  0  0  0
   12.7640    5.9860    4.9110 H   0  0  0  0  0  0  0  0  0  0  0  0
   12.9050    6.2570    3.3180 H   0  0  0  0  0  0  0  0  0  0  0  0
   10.6277    6.5432    4.4800 H   0  0  0  0  0  0  0  0  0  0  0  0
   11.3416    8.1845    4.8669 H   0  0  0  0  0  0  0  0  0  0  0  0
    9.8817    8.2385    2.9724 H   0  0  0  0  0  0  0  0  0  0  0  0
   10.7808    5.7995    2.1853 H   0  0  0  0  0  0  0  0  0  0  0  0
    9.9473    6.9416    1.0773 H   0  0  0  0  0  0  0  0  0  0  0  0
   11.7406    6.8377    1.0773 H   0  0  0  0  0  0  0  0  0  0  0  0
  1  2  1  0
  2  3  2  0
  3  4  1  0
  4  5  2  0
  5  6  1  0
  6  7  2  0
  7  8  1  0
  8  9  2  0
  9 10  1  0
 10 11  1  0
 11 12  2  0
 11 13  2  0
 11 14  1  0
 14 15  1  0
 15 16  1  0
 16 17  1  0
 17 18  1  0
 18 19  1  0
 19 20  1  0
 20 21  1  0
 10 22  2  0
 22  2  1  0
 22  6  1  0
 20 14  1  0
  1 23  1  0
  1 24  1  0
  1 25  1  0
  3 26  1  0
  5 27  1  0
  7 28  1  0
  8 29  1  0
  9 30  1  0
 15 31  1  0
 15 32  1  0
 16 33  1  0
 16 34  1  0
 17 35  1  0
 17 36  1  0
 18 37  1  0
 18 38  1  0
 19 39  1  0
 19 40  1  0
 20 41  1  1
 21 42  1  0
 21 43  1  0
 21 44  1  0
M  CHG  1  18   1
M  END
>  <meeko>  (8) 
{"is_sidechain": [false], "free_energy": -4.674, "intermolecular_energy": -8.044, "internal_energy": 1.574}

$$$$
1q8u_ligand
     RDKit          3D

 44 46  0  0  0  0  0  0  0  0999 V2000
   10.0830   10.0470   -0.0900 C   0  0  0  0  0  0  0  0  0  0  0  0
   11.4500   10.1500    0.5240 C   0  0  0  0  0  0  0  0  0  0  0  0
   12.2870   11.1190   -0.0430 C   0  0  0  0  0  0  0  0  0  0  0  0
   13.5820   11.2810    0.2610 N   0  0  0  0  0  0  0  0  0  0  0  0
   14.0980   10.4020    1.1360 C   0  0  0  0  0  0  0  0  0  0  0  0
   13.3700    9.4080    1.7920 C   0  0  0  0  0  0  0  0  0  0  0  0
   14.0540    8.5310    2.6510 C   0  0  0  0  0  0  0  0  0  0  0  0
   13.3860    7.5190    3.3250 C   0  0  0  0  0  0  0  0  0  0  0  0
   12.0110    7.4250    3.2030 C   0  0  0  0  0  0  0  0  0  0  0  0
   11.3010    8.3330    2.3890 C   0  0  0  0  0  0  0  0  0  0  0  0
    9.5400    8.3000    2.5990 S   0  0  0  0  0  0  0  0  0  0  0  0
    8.8510    8.2120    1.3230 O   0  0  0  0  0  0  0  0  0  0  0  0
    9.2160    7.3950    3.6760 O   0  0  0  0  0  0  0  0  0  0  0  0
    9.0980    9.8880    3.1000 N   0  0  0  0  0  0  0  0  0  0  0  0
    7.8090   10.4310    2.5740 C   0  0  0  0  0  0  0  0  0  0  0  0
    6.5460    9.9850    3.2980 C   0  0  0  0  0  0  0  0  0  0  0  0
    6.7570    9.4160    4.6890 C   0  0  0  0  0  0  0  0  0  0  0  0
    7.2680   10.4240    5.6540 N   0  0  0  0  0  0  0  0  0  0  0  0
    8.5310   11.1440    5.2920 C   0  0  0  0  0  0  0  0  0  0  0  0
    9.5380   10.2660    4.4860 C   0  0  2  0  0  0  0  0  0  0  0  0
   10.9440   10.8640    4.4570 C   0  0  0  0  0  0  0  0  0  0  0  0
   11.9700    9.3020    1.5650 C   0  0  0  0  0  0  0  0  0  0  0  0
    9.3266    9.9900    0.7066 H   0  0  0  0  0  0  0  0  0  0  0  0
    9.8932   10.9334   -0.7131 H   0  0  0  0  0  0  0  0  0  0  0  0
   10.0282    9.1422   -0.7131 H   0  0  0  0  0  0  0  0  0  0  0  0
   11.8500   11.7959   -0.7919 H   0  0  0  0  0  0  0  0  0  0  0  0
   15.1745   10.4707    1.3516 H   0  0  0  0  0  0  0  0  0  0  0  0
   15.1386    8.6491    2.7915 H   0  0  0  0  0  0  0  0  0  0  0  0
   13.9414    6.8018    3.9473 H   0  0  0  0  0  0  0  0  0  0  0  0
   11.4674    6.6368    3.7445 H   0  0  0  0  0  0  0  0  0  0  0  0
    7.8589   11.5284    2.6314 H   0  0  0  0  0  0  0  0  0  0  0  0
    7.7179   10.0345    1.5520 H   0  0  0  0  0  0  0  0  0  0  0  0
    5.8800   10.8561    3.3855 H   0  0  0  0  0  0  0  0  0  0  0  0
    6.1266    9.1650    2.6966 H   0  0  0  0  0  0  0  0  0  0  0  0
    5.7960    9.0303    5.0601 H   0  0  0  0  0  0  0  0  0  0  0  0
    7.5135    8.6213    4.6097 H   0  0  0  0  0  0  0  0  0  0  0  0
    7.3940    9.9380    6.5650 H   0  0  0  0  0  0  0  0  0  0  0  0
    6.5240   11.1060    5.8500 H   0  0  0  0  0  0  0  0  0  0  0  0
    8.2692   12.0218    4.6830 H   0  0  0  0  0  0  0  0  0  0  0  0
    9.0262   11.4228    6.2338 H   0  0  0  0  0  0  0  0  0  0  0  0
    9.5623    9.3250    5.0552 H   0  0  0  0  0  0  0  0  0  0  0  0
   11.2995   11.0152    5.4869 H   0  0  0  0  0  0  0  0  0  0  0  0
   11.6238   10.1771    3.9316 H   0  0  0  0  0  0  0  0  0  0  0  0
   10.9208   11.8301    3.9316 H   0  0  0  0  0  0  0  0  0  0  0  0
  1  2  1  0
  2  3  2  0
  3  4  1  0
  4  5  2  0
  5  6  1  0
  6  7  2  0
  7  8  1  0
  8  9  2  0
  9 10  1  0
 10 11  1  0
 11 12  2  0
 11 13  2  0
 11 14  1  0
 14 15  1  0
 15 16  1  0
 16 17  1  0
 17 18  1  0
 18 19  1  0
 19 20  1  0
 20 21  1  0
 10 22  2  0
 22  2  1  0
 22  6  1  0
 20 14  1  0
  1 23  1  0
  1 24  1  0
  1 25  1  0
  3 26  1  0
  5 27  1  0
  7 28  1  0
  8 29  1  0
  9 30  1  0
 15 31  1  0
 15 32  1  0
 16 33  1  0
 16 34  1  0
 17 35  1  0
 17 36  1  0
 18 37  1  0
 18 38  1  0
 19 39  1  0
 19 40  1  0
 20 41  1  1
 21 42  1  0
 21 43  1  0
 21 44  1  0
M  CHG  1  18   1
M  END
>  <meeko>  (9) 
{"is_sidechain": [false], "free_energy": -4.394, "intermolecular_energy": -7.949, "internal_energy": 1.89}

$$$$
