4w9i_ligand
     RDKit          3D

 61 64  0  0  0  0  0  0  0  0999 V2000
   10.3630   50.7660   91.1840 C   0  0  0  0  0  0  0  0  0  0  0  0
   11.8660   50.8510   91.1680 C   0  0  0  0  0  0  0  0  0  0  0  0
   12.5090   50.4170   90.2130 O   0  0  0  0  0  0  0  0  0  0  0  0
   12.4800   51.4180   92.2620 N   0  0  0  0  0  0  0  0  0  0  0  0
   13.3310   50.5990   93.1170 C   0  0  0  0  0  0  0  0  0  0  0  0
   13.7630   51.5240   94.2520 C   0  0  2  0  0  0  0  0  0  0  0  0
   13.9910   50.8420   95.4730 O   0  0  0  0  0  0  0  0  0  0  0  0
   12.5920   52.4920   94.3690 C   0  0  0  0  0  0  0  0  0  0  0  0
   12.1080   52.6670   92.9240 C   0  0  1  0  0  0  0  0  0  0  0  0
   12.5910   54.0300   92.3600 C   0  0  0  0  0  0  0  0  0  0  0  0
   12.4080   55.0390   93.0530 O   0  0  0  0  0  0  0  0  0  0  0  0
   13.2200   54.1510   91.1380 N   0  0  0  0  0  0  0  0  0  0  0  0
   14.6480   54.0920   90.8440 C   0  0  0  0  0  0  0  0  0  0  0  0
   14.8410   55.0770   89.6910 C   0  0  2  0  0  0  0  0  0  0  0  0
   15.0220   56.4020   90.1880 O   0  0  0  0  0  0  0  0  0  0  0  0
   13.5380   54.9810   88.9190 C   0  0  0  0  0  0  0  0  0  0  0  0
   12.4800   54.7560   90.0080 C   0  0  1  0  0  0  0  0  0  0  0  0
   11.3650   53.8660   89.4260 C   0  0  0  0  0  0  0  0  0  0  0  0
   10.1840   54.0280   89.7240 O   0  0  0  0  0  0  0  0  0  0  0  0
   11.7790   53.0140   88.4270 N   0  0  0  0  0  0  0  0  0  0  0  0
   10.8510   52.2770   87.6040 C   0  0  0  0  0  0  0  0  0  0  0  0
   11.4940   51.9250   86.2880 C   0  0  0  0  0  0  0  0  0  0  0  0
   11.4410   50.6180   85.7880 C   0  0  0  0  0  0  0  0  0  0  0  0
   12.0700   50.2950   84.5820 C   0  0  0  0  0  0  0  0  0  0  0  0
   12.7670   51.2700   83.8550 C   0  0  0  0  0  0  0  0  0  0  0  0
   13.4370   50.9370   82.6000 C   0  0  0  0  0  0  0  0  0  0  0  0
   12.6860   49.8760   81.4730 S   0  0  0  0  0  0  0  0  0  0  0  0
   14.0190   50.0690   80.4190 C   0  0  0  0  0  0  0  0  0  0  0  0
   14.9800   50.8590   80.8380 N   0  0  0  0  0  0  0  0  0  0  0  0
   14.6580   51.3630   82.0910 C   0  0  0  0  0  0  0  0  0  0  0  0
   15.6310   52.2780   82.7460 C   0  0  0  0  0  0  0  0  0  0  0  0
   12.8260   52.5750   84.3610 C   0  0  0  0  0  0  0  0  0  0  0  0
   12.1980   52.8990   85.5660 C   0  0  0  0  0  0  0  0  0  0  0  0
   10.0079   50.7459   92.2249 H   0  0  0  0  0  0  0  0  0  0  0  0
    9.9407   51.6417   90.6694 H   0  0  0  0  0  0  0  0  0  0  0  0
   10.0421   49.8483   90.6694 H   0  0  0  0  0  0  0  0  0  0  0  0
   12.7690   49.7398   93.5118 H   0  0  0  0  0  0  0  0  0  0  0  0
   14.1923   50.1888   92.5694 H   0  0  0  0  0  0  0  0  0  0  0  0
   14.7257   52.0126   94.0412 H   0  0  0  0  0  0  0  0  0  0  0  0
   14.0980   51.4970   96.1850 H   0  0  0  0  0  0  0  0  0  0  0  0
   11.7961   52.0683   94.9991 H   0  0  0  0  0  0  0  0  0  0  0  0
   12.8766   53.4454   94.8381 H   0  0  0  0  0  0  0  0  0  0  0  0
   11.0246   52.7782   92.7694 H   0  0  0  0  0  0  0  0  0  0  0  0
   15.2386   54.3980   91.7201 H   0  0  0  0  0  0  0  0  0  0  0  0
   14.9810   53.0757   90.5868 H   0  0  0  0  0  0  0  0  0  0  0  0
   15.7258   54.8490   89.0785 H   0  0  0  0  0  0  0  0  0  0  0  0
   15.0490   57.0200   89.4380 H   0  0  0  0  0  0  0  0  0  0  0  0
   13.3403   55.9120   88.3675 H   0  0  0  0  0  0  0  0  0  0  0  0
   13.5490   54.1793   88.1659 H   0  0  0  0  0  0  0  0  0  0  0  0
   11.9746   55.6676   90.3594 H   0  0  0  0  0  0  0  0  0  0  0  0
   12.7400   53.0790   88.1270 H   0  0  0  0  0  0  0  0  0  0  0  0
   10.5573   51.3533   88.1242 H   0  0  0  0  0  0  0  0  0  0  0  0
    9.9633   52.8989   87.4164 H   0  0  0  0  0  0  0  0  0  0  0  0
   10.9009   49.8403   86.3479 H   0  0  0  0  0  0  0  0  0  0  0  0
   12.0174   49.2650   84.1996 H   0  0  0  0  0  0  0  0  0  0  0  0
   14.0683   49.5600   79.4451 H   0  0  0  0  0  0  0  0  0  0  0  0
   15.5382   52.1907   83.8386 H   0  0  0  0  0  0  0  0  0  0  0  0
   16.6524   52.0057   82.4419 H   0  0  0  0  0  0  0  0  0  0  0  0
   15.4219   53.3142   82.4419 H   0  0  0  0  0  0  0  0  0  0  0  0
   13.3716   53.3513   83.8046 H   0  0  0  0  0  0  0  0  0  0  0  0
   12.2564   53.9275   85.9518 H   0  0  0  0  0  0  0  0  0  0  0  0
  1  2  1  0
  2  3  2  0
  2  4  1  0
  4  5  1  0
  5  6  1  0
  6  7  1  0
  6  8  1  0
  8  9  1  0
  9 10  1  0
 10 11  2  0
 10 12  1  0
 12 13  1  0
 13 14  1  0
 14 15  1  0
 14 16  1  0
 16 17  1  0
 17 18  1  0
 18 19  2  0
 18 20  1  0
 20 21  1  0
 21 22  1  0
 22 23  2  0
 23 24  1  0
 24 25  2  0
 25 26  1  0
 26 27  1  0
 27 28  1  0
 28 29  2  0
 29 30  1  0
 30 31  1  0
 25 32  1  0
 32 33  2  0
  9  4  1  0
 17 12  1  0
 33 22  1  0
 30 26  2  0
  1 34  1  0
  1 35  1  0
  1 36  1  0
  5 37  1  0
  5 38  1  0
  6 39  1  6
  7 40  1  0
  8 41  1  0
  8 42  1  0
  9 43  1  1
 13 44  1  0
 13 45  1  0
 14 46  1  6
 15 47  1  0
 16 48  1  0
 16 49  1  0
 17 50  1  1
 20 51  1  0
 21 52  1  0
 21 53  1  0
 23 54  1  0
 24 55  1  0
 28 56  1  0
 31 57  1  0
 31 58  1  0
 31 59  1  0
 32 60  1  0
 33 61  1  0
M  END
>  <meeko>  (1) 
{"is_sidechain": [false], "free_energy": -7.531, "intermolecular_energy": -11.053, "internal_energy": -1.789}

$$$$
4w9i_ligand
     RDKit          3D

 61 64  0  0  0  0  0  0  0  0999 V2000
   11.4530   56.6370   95.0370 C   0  0  0  0  0  0  0  0  0  0  0  0
   10.5680   55.4330   94.8540 C   0  0  0  0  0  0  0  0  0  0  0  0
    9.3530   55.5150   95.0330 O   0  0  0  0  0  0  0  0  0  0  0  0
   11.1730   54.2500   94.4950 N   0  0  0  0  0  0  0  0  0  0  0  0
   11.0380   53.0800   95.3540 C   0  0  0  0  0  0  0  0  0  0  0  0
   11.8930   52.0010   94.6940 C   0  0  2  0  0  0  0  0  0  0  0  0
   12.4450   51.0820   95.6200 O   0  0  0  0  0  0  0  0  0  0  0  0
   12.9820   52.8060   93.9960 C   0  0  0  0  0  0  0  0  0  0  0  0
   12.2660   54.0830   93.5370 C   0  0  1  0  0  0  0  0  0  0  0  0
   11.9730   54.0130   92.0150 C   0  0  0  0  0  0  0  0  0  0  0  0
   10.7970   53.8670   91.6590 O   0  0  0  0  0  0  0  0  0  0  0  0
   12.9620   54.1200   91.0590 N   0  0  0  0  0  0  0  0  0  0  0  0
   14.3800   54.4110   91.2510 C   0  0  0  0  0  0  0  0  0  0  0  0
   14.7710   55.2300   90.0210 C   0  0  2  0  0  0  0  0  0  0  0  0
   14.4820   56.6130   90.2260 O   0  0  0  0  0  0  0  0  0  0  0  0
   13.8850   54.6680   88.9230 C   0  0  0  0  0  0  0  0  0  0  0  0
   12.5750   54.3250   89.6450 C   0  0  1  0  0  0  0  0  0  0  0  0
   11.9560   53.0880   88.9680 C   0  0  0  0  0  0  0  0  0  0  0  0
   12.1780   51.9480   89.3710 O   0  0  0  0  0  0  0  0  0  0  0  0
   11.0080   53.3760   88.0120 N   0  0  0  0  0  0  0  0  0  0  0  0
   10.1550   52.3650   87.4380 C   0  0  0  0  0  0  0  0  0  0  0  0
   10.7550   51.8480   86.1560 C   0  0  0  0  0  0  0  0  0  0  0  0
   11.3700   50.5910   86.1050 C   0  0  0  0  0  0  0  0  0  0  0  0
   11.9540   50.1360   84.9190 C   0  0  0  0  0  0  0  0  0  0  0  0
   11.9390   50.9300   83.7640 C   0  0  0  0  0  0  0  0  0  0  0  0
   12.5580   50.4660   82.5240 C   0  0  0  0  0  0  0  0  0  0  0  0
   11.7420   49.3320   81.5200 S   0  0  0  0  0  0  0  0  0  0  0  0
   13.0440   49.3900   80.4130 C   0  0  0  0  0  0  0  0  0  0  0  0
   14.0400   50.1850   80.7300 N   0  0  0  0  0  0  0  0  0  0  0  0
   13.7720   50.8090   81.9420 C   0  0  0  0  0  0  0  0  0  0  0  0
   14.7910   51.7480   82.4820 C   0  0  0  0  0  0  0  0  0  0  0  0
   11.3320   52.1910   83.8190 C   0  0  0  0  0  0  0  0  0  0  0  0
   10.7480   52.6460   85.0040 C   0  0  0  0  0  0  0  0  0  0  0  0
   11.5939   56.8287   96.1110 H   0  0  0  0  0  0  0  0  0  0  0  0
   12.4296   56.4491   94.5669 H   0  0  0  0  0  0  0  0  0  0  0  0
   10.9822   57.5130   94.5669 H   0  0  0  0  0  0  0  0  0  0  0  0
   11.4074   53.2997   96.3666 H   0  0  0  0  0  0  0  0  0  0  0  0
    9.9891   52.7663   95.4612 H   0  0  0  0  0  0  0  0  0  0  0  0
   11.3042   51.3668   94.0150 H   0  0  0  0  0  0  0  0  0  0  0  0
   12.8770   50.3610   95.1290 H   0  0  0  0  0  0  0  0  0  0  0  0
   13.7986   53.0451   94.6931 H   0  0  0  0  0  0  0  0  0  0  0  0
   13.4440   52.2575   93.1619 H   0  0  0  0  0  0  0  0  0  0  0  0
   12.8419   55.0196   93.5701 H   0  0  0  0  0  0  0  0  0  0  0  0
   14.5367   54.9925   92.1715 H   0  0  0  0  0  0  0  0  0  0  0  0
   14.9845   53.4980   91.3558 H   0  0  0  0  0  0  0  0  0  0  0  0
   15.8443   55.1652   89.7889 H   0  0  0  0  0  0  0  0  0  0  0  0
   13.8550   56.9090   89.5450 H   0  0  0  0  0  0  0  0  0  0  0  0
   13.7136   55.4175   88.1363 H   0  0  0  0  0  0  0  0  0  0  0  0
   14.3327   53.7980   88.4204 H   0  0  0  0  0  0  0  0  0  0  0  0
   11.8007   55.1048   89.5960 H   0  0  0  0  0  0  0  0  0  0  0  0
   10.7640   54.3450   87.8740 H   0  0  0  0  0  0  0  0  0  0  0  0
   10.0462   51.5336   88.1500 H   0  0  0  0  0  0  0  0  0  0  0  0
    9.1700   52.8048   87.2228 H   0  0  0  0  0  0  0  0  0  0  0  0
   11.3938   49.9574   87.0039 H   0  0  0  0  0  0  0  0  0  0  0  0
   12.4301   49.1448   84.8920 H   0  0  0  0  0  0  0  0  0  0  0  0
   13.0471   48.7951   79.4878 H   0  0  0  0  0  0  0  0  0  0  0  0
   14.7653   51.7243   83.5814 H   0  0  0  0  0  0  0  0  0  0  0  0
   15.7893   51.4466   82.1320 H   0  0  0  0  0  0  0  0  0  0  0  0
   14.5721   52.7676   82.1320 H   0  0  0  0  0  0  0  0  0  0  0  0
   11.3149   52.8281   82.9224 H   0  0  0  0  0  0  0  0  0  0  0  0
   10.2782   53.6402   85.0330 H   0  0  0  0  0  0  0  0  0  0  0  0
  1  2  1  0
  2  3  2  0
  2  4  1  0
  4  5  1  0
  5  6  1  0
  6  7  1  0
  6  8  1  0
  8  9  1  0
  9 10  1  0
 10 11  2  0
 10 12  1  0
 12 13  1  0
 13 14  1  0
 14 15  1  0
 14 16  1  0
 16 17  1  0
 17 18  1  0
 18 19  2  0
 18 20  1  0
 20 21  1  0
 21 22  1  0
 22 23  2  0
 23 24  1  0
 24 25  2  0
 25 26  1  0
 26 27  1  0
 27 28  1  0
 28 29  2  0
 29 30  1  0
 30 31  1  0
 25 32  1  0
 32 33  2  0
  9  4  1  0
 17 12  1  0
 33 22  1  0
 30 26  2  0
  1 34  1  0
  1 35  1  0
  1 36  1  0
  5 37  1  0
  5 38  1  0
  6 39  1  6
  7 40  1  0
  8 41  1  0
  8 42  1  0
  9 43  1  6
 13 44  1  0
 13 45  1  0
 14 46  1  6
 15 47  1  0
 16 48  1  0
 16 49  1  0
 17 50  1  1
 20 51  1  0
 21 52  1  0
 21 53  1  0
 23 54  1  0
 24 55  1  0
 28 56  1  0
 31 57  1  0
 31 58  1  0
 31 59  1  0
 32 60  1  0
 33 61  1  0
M  END
>  <meeko>  (2) 
{"is_sidechain": [false], "free_energy": -7.18, "intermolecular_energy": -11.326, "internal_energy": -1.0}

$$$$
4w9i_ligand
     RDKit          3D

 61 64  0  0  0  0  0  0  0  0999 V2000
   13.7330   50.6210   93.1030 C   0  0  0  0  0  0  0  0  0  0  0  0
   13.4480   51.4890   94.2990 C   0  0  0  0  0  0  0  0  0  0  0  0
   14.1190   51.3840   95.3250 O   0  0  0  0  0  0  0  0  0  0  0  0
   12.4070   52.3850   94.1980 N   0  0  0  0  0  0  0  0  0  0  0  0
   11.4320   52.4840   95.2780 C   0  0  0  0  0  0  0  0  0  0  0  0
   10.4000   53.4970   94.7910 C   0  0  2  0  0  0  0  0  0  0  0  0
    9.1000   53.2600   95.3020 O   0  0  0  0  0  0  0  0  0  0  0  0
   10.4390   53.3240   93.2770 C   0  0  0  0  0  0  0  0  0  0  0  0
   11.9100   53.0130   92.9750 C   0  0  1  0  0  0  0  0  0  0  0  0
   12.6130   54.2700   92.3950 C   0  0  0  0  0  0  0  0  0  0  0  0
   12.6140   55.2990   93.0820 O   0  0  0  0  0  0  0  0  0  0  0  0
   13.2380   54.2740   91.1660 N   0  0  0  0  0  0  0  0  0  0  0  0
   14.6680   54.2150   90.8760 C   0  0  0  0  0  0  0  0  0  0  0  0
   14.8390   55.0750   89.6250 C   0  0  2  0  0  0  0  0  0  0  0  0
   14.9920   56.4500   89.9780 O   0  0  0  0  0  0  0  0  0  0  0  0
   13.5380   54.8700   88.8700 C   0  0  0  0  0  0  0  0  0  0  0  0
   12.4850   54.7390   89.9790 C   0  0  1  0  0  0  0  0  0  0  0  0
   11.3900   53.7690   89.4980 C   0  0  0  0  0  0  0  0  0  0  0  0
   10.1950   54.0270   89.6210 O   0  0  0  0  0  0  0  0  0  0  0  0
   11.8570   52.6970   88.7710 N   0  0  0  0  0  0  0  0  0  0  0  0
   10.9790   51.8150   88.0420 C   0  0  0  0  0  0  0  0  0  0  0  0
   11.5070   51.5960   86.6470 C   0  0  0  0  0  0  0  0  0  0  0  0
   11.6220   50.3060   86.1160 C   0  0  0  0  0  0  0  0  0  0  0  0
   12.1450   50.1120   84.8340 C   0  0  0  0  0  0  0  0  0  0  0  0
   12.5670   51.2030   84.0610 C   0  0  0  0  0  0  0  0  0  0  0  0
   13.1270   51.0070   82.7250 C   0  0  0  0  0  0  0  0  0  0  0  0
   12.2410   50.1350   81.5350 S   0  0  0  0  0  0  0  0  0  0  0  0
   13.5020   50.4060   80.4130 C   0  0  0  0  0  0  0  0  0  0  0  0
   14.5320   51.0920   80.8520 N   0  0  0  0  0  0  0  0  0  0  0  0
   14.3280   51.4430   82.1800 C   0  0  0  0  0  0  0  0  0  0  0  0
   15.3930   52.2220   82.8660 C   0  0  0  0  0  0  0  0  0  0  0  0
   12.4600   52.4920   84.5980 C   0  0  0  0  0  0  0  0  0  0  0  0
   11.9380   52.6870   85.8790 C   0  0  0  0  0  0  0  0  0  0  0  0
   14.0595   49.6265   93.4412 H   0  0  0  0  0  0  0  0  0  0  0  0
   12.8206   50.5209   92.4968 H   0  0  0  0  0  0  0  0  0  0  0  0
   14.5272   51.0812   92.4968 H   0  0  0  0  0  0  0  0  0  0  0  0
   10.9585   51.5082   95.4613 H   0  0  0  0  0  0  0  0  0  0  0  0
   11.8971   52.7929   96.2258 H   0  0  0  0  0  0  0  0  0  0  0  0
   10.6329   54.5174   95.1295 H   0  0  0  0  0  0  0  0  0  0  0  0
    8.7370   54.0980   95.6400 H   0  0  0  0  0  0  0  0  0  0  0  0
    9.7913   52.4926   92.9620 H   0  0  0  0  0  0  0  0  0  0  0  0
   10.0763   54.2132   92.7405 H   0  0  0  0  0  0  0  0  0  0  0  0
   12.1143   52.2975   92.1648 H   0  0  0  0  0  0  0  0  0  0  0  0
   15.2520   54.6254   91.7130 H   0  0  0  0  0  0  0  0  0  0  0  0
   15.0231   53.1845   90.7276 H   0  0  0  0  0  0  0  0  0  0  0  0
   15.7282   54.8015   89.0381 H   0  0  0  0  0  0  0  0  0  0  0  0
   14.5860   56.5990   90.8490 H   0  0  0  0  0  0  0  0  0  0  0  0
   13.3204   55.7330   88.2235 H   0  0  0  0  0  0  0  0  0  0  0  0
   13.5662   53.9936   88.2059 H   0  0  0  0  0  0  0  0  0  0  0  0
   11.9597   55.6717   90.2323 H   0  0  0  0  0  0  0  0  0  0  0  0
   12.8460   52.6650   88.5710 H   0  0  0  0  0  0  0  0  0  0  0  0
   10.9185   50.8487   88.5641 H   0  0  0  0  0  0  0  0  0  0  0  0
    9.9797   52.2707   87.9815 H   0  0  0  0  0  0  0  0  0  0  0  0
   11.2988   49.4393   86.7112 H   0  0  0  0  0  0  0  0  0  0  0  0
   12.2262   49.0930   84.4276 H   0  0  0  0  0  0  0  0  0  0  0  0
   13.4533   50.0271   79.3815 H   0  0  0  0  0  0  0  0  0  0  0  0
   15.2695   52.1316   83.9553 H   0  0  0  0  0  0  0  0  0  0  0  0
   16.3789   51.8304   82.5751 H   0  0  0  0  0  0  0  0  0  0  0  0
   15.3184   53.2802   82.5751 H   0  0  0  0  0  0  0  0  0  0  0  0
   12.7899   53.3584   84.0059 H   0  0  0  0  0  0  0  0  0  0  0  0
   11.8645   53.7052   86.2887 H   0  0  0  0  0  0  0  0  0  0  0  0
  1  2  1  0
  2  3  2  0
  2  4  1  0
  4  5  1  0
  5  6  1  0
  6  7  1  0
  6  8  1  0
  8  9  1  0
  9 10  1  0
 10 11  2  0
 10 12  1  0
 12 13  1  0
 13 14  1  0
 14 15  1  0
 14 16  1  0
 16 17  1  0
 17 18  1  0
 18 19  2  0
 18 20  1  0
 20 21  1  0
 21 22  1  0
 22 23  2  0
 23 24  1  0
 24 25  2  0
 25 26  1  0
 26 27  1  0
 27 28  1  0
 28 29  2  0
 29 30  1  0
 30 31  1  0
 25 32  1  0
 32 33  2  0
  9  4  1  0
 17 12  1  0
 33 22  1  0
 30 26  2  0
  1 34  1  0
  1 35  1  0
  1 36  1  0
  5 37  1  0
  5 38  1  0
  6 39  1  6
  7 40  1  0
  8 41  1  0
  8 42  1  0
  9 43  1  6
 13 44  1  0
 13 45  1  0
 14 46  1  6
 15 47  1  0
 16 48  1  0
 16 49  1  0
 17 50  1  1
 20 51  1  0
 21 52  1  0
 21 53  1  0
 23 54  1  0
 24 55  1  0
 28 56  1  0
 31 57  1  0
 31 58  1  0
 31 59  1  0
 32 60  1  0
 33 61  1  0
M  END
>  <meeko>  (3) 
{"is_sidechain": [false], "free_energy": -7.019, "intermolecular_energy": -10.686, "internal_energy": -1.405}

$$$$
4w9i_ligand
     RDKit          3D

 61 64  0  0  0  0  0  0  0  0999 V2000
   13.1180   53.7090   93.8790 C   0  0  0  0  0  0  0  0  0  0  0  0
   12.8000   53.0170   92.5810 C   0  0  0  0  0  0  0  0  0  0  0  0
   12.3030   51.8910   92.5750 O   0  0  0  0  0  0  0  0  0  0  0  0
   13.1010   53.6860   91.4160 N   0  0  0  0  0  0  0  0  0  0  0  0
   14.4220   54.2780   91.2430 C   0  0  0  0  0  0  0  0  0  0  0  0
   14.3650   54.9940   89.8960 C   0  0  2  0  0  0  0  0  0  0  0  0
   15.2060   56.1320   89.8320 O   0  0  0  0  0  0  0  0  0  0  0  0
   12.8960   55.3840   89.7780 C   0  0  0  0  0  0  0  0  0  0  0  0
   12.1480   54.2230   90.4450 C   0  0  1  0  0  0  0  0  0  0  0  0
   11.5210   53.3010   89.3660 C   0  0  0  0  0  0  0  0  0  0  0  0
   12.2850   52.5980   88.6930 O   0  0  0  0  0  0  0  0  0  0  0  0
   10.1620   53.2300   89.1430 N   0  0  0  0  0  0  0  0  0  0  0  0
    9.1930   54.3200   89.0970 C   0  0  0  0  0  0  0  0  0  0  0  0
    7.9150   53.7190   89.6830 C   0  0  2  0  0  0  0  0  0  0  0  0
    7.9220   53.8160   91.1070 O   0  0  0  0  0  0  0  0  0  0  0  0
    7.9780   52.2640   89.2570 C   0  0  0  0  0  0  0  0  0  0  0  0
    9.4750   51.9290   89.3080 C   0  0  1  0  0  0  0  0  0  0  0  0
    9.7820   50.9010   88.2030 C   0  0  0  0  0  0  0  0  0  0  0  0
   10.3050   49.8170   88.4520 O   0  0  0  0  0  0  0  0  0  0  0  0
    9.2610   51.2190   86.9680 N   0  0  0  0  0  0  0  0  0  0  0  0
    9.2390   50.2800   85.8730 C   0  0  0  0  0  0  0  0  0  0  0  0
   10.4090   50.5280   84.9560 C   0  0  0  0  0  0  0  0  0  0  0  0
   10.3210   51.4600   83.9140 C   0  0  0  0  0  0  0  0  0  0  0  0
   11.4010   51.6570   83.0490 C   0  0  0  0  0  0  0  0  0  0  0  0
   12.5860   50.9260   83.2050 C   0  0  0  0  0  0  0  0  0  0  0  0
   13.7150   51.1180   82.2960 C   0  0  0  0  0  0  0  0  0  0  0  0
   13.7770   50.2670   80.8020 S   0  0  0  0  0  0  0  0  0  0  0  0
   15.2520   51.0490   80.4310 C   0  0  0  0  0  0  0  0  0  0  0  0
   15.7040   51.8920   81.3300 N   0  0  0  0  0  0  0  0  0  0  0  0
   14.8290   51.9400   82.4070 C   0  0  0  0  0  0  0  0  0  0  0  0
   15.1710   52.8370   83.5430 C   0  0  0  0  0  0  0  0  0  0  0  0
   12.6690   49.9880   84.2420 C   0  0  0  0  0  0  0  0  0  0  0  0
   11.5900   49.7900   85.1070 C   0  0  0  0  0  0  0  0  0  0  0  0
   12.8220   53.0648   94.7201 H   0  0  0  0  0  0  0  0  0  0  0  0
   14.1983   53.9090   93.9328 H   0  0  0  0  0  0  0  0  0  0  0  0
   12.5661   54.6590   93.9328 H   0  0  0  0  0  0  0  0  0  0  0  0
   14.6334   54.9932   92.0516 H   0  0  0  0  0  0  0  0  0  0  0  0
   15.2195   53.5210   91.2734 H   0  0  0  0  0  0  0  0  0  0  0  0
   14.7244   54.3562   89.0750 H   0  0  0  0  0  0  0  0  0  0  0  0
   14.6530   56.9320   89.8000 H   0  0  0  0  0  0  0  0  0  0  0  0
   12.6992   56.3296   90.3045 H   0  0  0  0  0  0  0  0  0  0  0  0
   12.5836   55.5452   88.7357 H   0  0  0  0  0  0  0  0  0  0  0  0
   11.2438   54.4744   91.0187 H   0  0  0  0  0  0  0  0  0  0  0  0
    9.5361   55.1714   89.7032 H   0  0  0  0  0  0  0  0  0  0  0  0
    9.0451   54.7063   88.0777 H   0  0  0  0  0  0  0  0  0  0  0  0
    7.0051   54.2325   89.3389 H   0  0  0  0  0  0  0  0  0  0  0  0
    7.3990   54.5920   91.3740 H   0  0  0  0  0  0  0  0  0  0  0  0
    7.4107   51.6277   89.9522 H   0  0  0  0  0  0  0  0  0  0  0  0
    7.5387   52.0936   88.2630 H   0  0  0  0  0  0  0  0  0  0  0  0
    9.8139   51.4623   90.2447 H   0  0  0  0  0  0  0  0  0  0  0  0
    8.6910   52.0480   86.9020 H   0  0  0  0  0  0  0  0  0  0  0  0
    9.2986   49.2560   86.2703 H   0  0  0  0  0  0  0  0  0  0  0  0
    8.3042   50.4076   85.3074 H   0  0  0  0  0  0  0  0  0  0  0  0
    9.3967   52.0401   83.7757 H   0  0  0  0  0  0  0  0  0  0  0  0
   11.3197   52.3942   82.2367 H   0  0  0  0  0  0  0  0  0  0  0  0
   15.7915   50.8564   79.4920 H   0  0  0  0  0  0  0  0  0  0  0  0
   14.9731   52.3180   84.4925 H   0  0  0  0  0  0  0  0  0  0  0  0
   16.2356   53.1083   83.4884 H   0  0  0  0  0  0  0  0  0  0  0  0
   14.5572   53.7482   83.4884 H   0  0  0  0  0  0  0  0  0  0  0  0
   13.5907   49.4029   84.3763 H   0  0  0  0  0  0  0  0  0  0  0  0
   11.6686   49.0473   85.9146 H   0  0  0  0  0  0  0  0  0  0  0  0
  1  2  1  0
  2  3  2  0
  2  4  1  0
  4  5  1  0
  5  6  1  0
  6  7  1  0
  6  8  1  0
  8  9  1  0
  9 10  1  0
 10 11  2  0
 10 12  1  0
 12 13  1  0
 13 14  1  0
 14 15  1  0
 14 16  1  0
 16 17  1  0
 17 18  1  0
 18 19  2  0
 18 20  1  0
 20 21  1  0
 21 22  1  0
 22 23  2  0
 23 24  1  0
 24 25  2  0
 25 26  1  0
 26 27  1  0
 27 28  1  0
 28 29  2  0
 29 30  1  0
 30 31  1  0
 25 32  1  0
 32 33  2  0
  9  4  1  0
 17 12  1  0
 33 22  1  0
 30 26  2  0
  1 34  1  0
  1 35  1  0
  1 36  1  0
  5 37  1  0
  5 38  1  0
  6 39  1  6
  7 40  1  0
  8 41  1  0
  8 42  1  0
  9 43  1  1
 13 44  1  0
 13 45  1  0
 14 46  1  6
 15 47  1  0
 16 48  1  0
 16 49  1  0
 17 50  1  1
 20 51  1  0
 21 52  1  0
 21 53  1  0
 23 54  1  0
 24 55  1  0
 28 56  1  0
 31 57  1  0
 31 58  1  0
 31 59  1  0
 32 60  1  0
 33 61  1  0
M  END
>  <meeko>  (4) 
{"is_sidechain": [false], "free_energy": -6.918, "intermolecular_energy": -10.629, "internal_energy": -1.313}

$$$$
4w9i_ligand
     RDKit          3D

 61 64  0  0  0  0  0  0  0  0999 V2000
   15.9950   51.8940   82.2130 C   0  0  0  0  0  0  0  0  0  0  0  0
   14.6060   51.3150   82.2470 C   0  0  0  0  0  0  0  0  0  0  0  0
   14.2820   50.4140   81.4740 O   0  0  0  0  0  0  0  0  0  0  0  0
   13.7220   51.8420   83.1620 N   0  0  0  0  0  0  0  0  0  0  0  0
   14.0960   53.0240   83.9290 C   0  0  0  0  0  0  0  0  0  0  0  0
   12.9290   53.2660   84.8830 C   0  0  2  0  0  0  0  0  0  0  0  0
   13.3200   53.8690   86.1030 O   0  0  0  0  0  0  0  0  0  0  0  0
   12.3770   51.8630   85.1110 C   0  0  0  0  0  0  0  0  0  0  0  0
   12.5740   51.1620   83.7610 C   0  0  1  0  0  0  0  0  0  0  0  0
   11.2240   51.0790   83.0000 C   0  0  0  0  0  0  0  0  0  0  0  0
   11.1700   51.5730   81.8660 O   0  0  0  0  0  0  0  0  0  0  0  0
   10.1050   50.4710   83.5300 N   0  0  0  0  0  0  0  0  0  0  0  0
    9.8970   49.0580   83.8280 C   0  0  0  0  0  0  0  0  0  0  0  0
    8.4150   48.8210   83.5390 C   0  0  2  0  0  0  0  0  0  0  0  0
    8.2130   48.5350   82.1560 O   0  0  0  0  0  0  0  0  0  0  0  0
    7.7660   50.1450   83.9000 C   0  0  0  0  0  0  0  0  0  0  0  0
    8.8130   51.1920   83.4930 C   0  0  1  0  0  0  0  0  0  0  0  0
    8.7170   52.3800   84.4690 C   0  0  0  0  0  0  0  0  0  0  0  0
    8.9220   53.5360   84.1050 O   0  0  0  0  0  0  0  0  0  0  0  0
    8.2130   52.0600   85.7100 N   0  0  0  0  0  0  0  0  0  0  0  0
    7.8310   53.0640   86.6720 C   0  0  0  0  0  0  0  0  0  0  0  0
    8.9090   53.2180   87.7140 C   0  0  0  0  0  0  0  0  0  0  0  0
    8.7500   54.1010   88.7890 C   0  0  0  0  0  0  0  0  0  0  0  0
    9.7700   54.2610   89.7310 C   0  0  0  0  0  0  0  0  0  0  0  0
   10.9710   53.5460   89.6140 C   0  0  0  0  0  0  0  0  0  0  0  0
   12.0470   53.7190   90.5880 C   0  0  0  0  0  0  0  0  0  0  0  0
   11.9610   52.9400   92.1190 S   0  0  0  0  0  0  0  0  0  0  0  0
   13.4820   53.6030   92.5300 C   0  0  0  0  0  0  0  0  0  0  0  0
   14.0500   54.3600   91.6200 N   0  0  0  0  0  0  0  0  0  0  0  0
   13.2350   54.4340   90.4990 C   0  0  0  0  0  0  0  0  0  0  0  0
   13.7000   55.2580   89.3510 C   0  0  0  0  0  0  0  0  0  0  0  0
   11.1320   52.6710   88.5320 C   0  0  0  0  0  0  0  0  0  0  0  0
   10.1130   52.5100   87.5900 C   0  0  0  0  0  0  0  0  0  0  0  0
   16.3550   52.0441   83.2415 H   0  0  0  0  0  0  0  0  0  0  0  0
   16.6681   51.2015   81.6863 H   0  0  0  0  0  0  0  0  0  0  0  0
   15.9770   52.8595   81.6863 H   0  0  0  0  0  0  0  0  0  0  0  0
   15.0232   52.8414   84.4919 H   0  0  0  0  0  0  0  0  0  0  0  0
   14.2850   53.8925   83.2810 H   0  0  0  0  0  0  0  0  0  0  0  0
   12.1956   53.9715   84.4655 H   0  0  0  0  0  0  0  0  0  0  0  0
   14.2080   53.5510   86.3430 H   0  0  0  0  0  0  0  0  0  0  0  0
   12.9369   51.3469   85.9048 H   0  0  0  0  0  0  0  0  0  0  0  0
   11.3258   51.8694   85.4350 H   0  0  0  0  0  0  0  0  0  0  0  0
   12.8364   50.0940   83.7853 H   0  0  0  0  0  0  0  0  0  0  0  0
   10.5251   48.4276   83.1814 H   0  0  0  0  0  0  0  0  0  0  0  0
   10.1673   48.8044   84.8637 H   0  0  0  0  0  0  0  0  0  0  0  0
    8.0020   47.9686   84.0984 H   0  0  0  0  0  0  0  0  0  0  0  0
    8.9230   47.9450   81.8480 H   0  0  0  0  0  0  0  0  0  0  0  0
    6.8306   50.2882   83.3392 H   0  0  0  0  0  0  0  0  0  0  0  0
    7.4939   50.2082   84.9639 H   0  0  0  0  0  0  0  0  0  0  0  0
    8.6732   51.6236   82.4909 H   0  0  0  0  0  0  0  0  0  0  0  0
    7.9060   51.1110   85.8570 H   0  0  0  0  0  0  0  0  0  0  0  0
    7.6831   54.0244   86.1566 H   0  0  0  0  0  0  0  0  0  0  0  0
    6.8963   52.7556   87.1631 H   0  0  0  0  0  0  0  0  0  0  0  0
    7.8160   54.6726   88.8928 H   0  0  0  0  0  0  0  0  0  0  0  0
    9.6294   54.9549   90.5729 H   0  0  0  0  0  0  0  0  0  0  0  0
   13.9580   53.4065   93.5020 H   0  0  0  0  0  0  0  0  0  0  0  0
   14.2079   56.1581   89.7276 H   0  0  0  0  0  0  0  0  0  0  0  0
   14.4001   54.6712   88.7382 H   0  0  0  0  0  0  0  0  0  0  0  0
   12.8358   55.5540   88.7382 H   0  0  0  0  0  0  0  0  0  0  0  0
   12.0692   52.1056   88.4231 H   0  0  0  0  0  0  0  0  0  0  0  0
   10.2564   51.8220   86.7438 H   0  0  0  0  0  0  0  0  0  0  0  0
  1  2  1  0
  2  3  2  0
  2  4  1  0
  4  5  1  0
  5  6  1  0
  6  7  1  0
  6  8  1  0
  8  9  1  0
  9 10  1  0
 10 11  2  0
 10 12  1  0
 12 13  1  0
 13 14  1  0
 14 15  1  0
 14 16  1  0
 16 17  1  0
 17 18  1  0
 18 19  2  0
 18 20  1  0
 20 21  1  0
 21 22  1  0
 22 23  2  0
 23 24  1  0
 24 25  2  0
 25 26  1  0
 26 27  1  0
 27 28  1  0
 28 29  2  0
 29 30  1  0
 30 31  1  0
 25 32  1  0
 32 33  2  0
  9  4  1  0
 17 12  1  0
 33 22  1  0
 30 26  2  0
  1 34  1  0
  1 35  1  0
  1 36  1  0
  5 37  1  0
  5 38  1  0
  6 39  1  6
  7 40  1  0
  8 41  1  0
  8 42  1  0
  9 43  1  1
 13 44  1  0
 13 45  1  0
 14 46  1  1
 15 47  1  0
 16 48  1  0
 16 49  1  0
 17 50  1  6
 20 51  1  0
 21 52  1  0
 21 53  1  0
 23 54  1  0
 24 55  1  0
 28 56  1  0
 31 57  1  0
 31 58  1  0
 31 59  1  0
 32 60  1  0
 33 61  1  0
M  END
>  <meeko>  (5) 
{"is_sidechain": [false], "free_energy": -6.434, "intermolecular_energy": -9.368, "internal_energy": -1.864}

$$$$
4w9i_ligand
     RDKit          3D

 61 64  0  0  0  0  0  0  0  0999 V2000
    9.0390   54.3180   89.3150 C   0  0  0  0  0  0  0  0  0  0  0  0
    9.2360   53.4640   90.5390 C   0  0  0  0  0  0  0  0  0  0  0  0
    8.9710   53.9010   91.6580 O   0  0  0  0  0  0  0  0  0  0  0  0
    9.7320   52.1940   90.3520 N   0  0  0  0  0  0  0  0  0  0  0  0
    9.1940   51.3580   89.2850 C   0  0  0  0  0  0  0  0  0  0  0  0
    9.9090   50.0170   89.4300 C   0  0  2  0  0  0  0  0  0  0  0  0
    9.1260   48.9170   89.0040 O   0  0  0  0  0  0  0  0  0  0  0  0
   10.2010   49.9440   90.9240 C   0  0  0  0  0  0  0  0  0  0  0  0
   10.4870   51.3980   91.3190 C   0  0  1  0  0  0  0  0  0  0  0  0
   12.0150   51.6140   91.4920 C   0  0  0  0  0  0  0  0  0  0  0  0
   12.7770   50.8950   90.8330 O   0  0  0  0  0  0  0  0  0  0  0  0
   12.5430   52.5710   92.3330 N   0  0  0  0  0  0  0  0  0  0  0  0
   12.8130   52.4720   93.7640 C   0  0  0  0  0  0  0  0  0  0  0  0
   12.5330   53.8750   94.3030 C   0  0  2  0  0  0  0  0  0  0  0  0
   11.1460   54.0320   94.5990 O   0  0  0  0  0  0  0  0  0  0  0  0
   12.9300   54.7830   93.1530 C   0  0  0  0  0  0  0  0  0  0  0  0
   12.5360   53.9870   91.9010 C   0  0  1  0  0  0  0  0  0  0  0  0
   13.5380   54.3170   90.7790 C   0  0  0  0  0  0  0  0  0  0  0  0
   14.7510   54.1970   90.9370 O   0  0  0  0  0  0  0  0  0  0  0  0
   12.9610   54.5740   89.5560 N   0  0  0  0  0  0  0  0  0  0  0  0
   13.7320   54.6710   88.3410 C   0  0  0  0  0  0  0  0  0  0  0  0
   13.1060   53.8260   87.2620 C   0  0  0  0  0  0  0  0  0  0  0  0
   12.1380   52.8630   87.5740 C   0  0  0  0  0  0  0  0  0  0  0  0
   11.5880   52.0620   86.5690 C   0  0  0  0  0  0  0  0  0  0  0  0
   11.9970   52.2040   85.2360 C   0  0  0  0  0  0  0  0  0  0  0  0
   11.4360   51.3610   84.1820 C   0  0  0  0  0  0  0  0  0  0  0  0
   12.1070   49.8080   83.8660 S   0  0  0  0  0  0  0  0  0  0  0  0
   10.9350   49.5610   82.6460 C   0  0  0  0  0  0  0  0  0  0  0  0
   10.0840   50.5420   82.4530 N   0  0  0  0  0  0  0  0  0  0  0  0
   10.3610   51.5820   83.3290 C   0  0  0  0  0  0  0  0  0  0  0  0
    9.5080   52.7980   83.2610 C   0  0  0  0  0  0  0  0  0  0  0  0
   12.9720   53.1610   84.9280 C   0  0  0  0  0  0  0  0  0  0  0  0
   13.5220   53.9630   85.9310 C   0  0  0  0  0  0  0  0  0  0  0  0
    8.8015   55.3476   89.6207 H   0  0  0  0  0  0  0  0  0  0  0  0
    9.9609   54.3171   88.7150 H   0  0  0  0  0  0  0  0  0  0  0  0
    8.2106   53.9133   88.7150 H   0  0  0  0  0  0  0  0  0  0  0  0
    8.1079   51.2312   89.4044 H   0  0  0  0  0  0  0  0  0  0  0  0
    9.3533   51.8043   88.2923 H   0  0  0  0  0  0  0  0  0  0  0  0
   10.8071   49.9590   88.7975 H   0  0  0  0  0  0  0  0  0  0  0  0
    9.7060   48.2620   88.5780 H   0  0  0  0  0  0  0  0  0  0  0  0
    9.3317   49.5536   91.4734 H   0  0  0  0  0  0  0  0  0  0  0  0
   11.0377   49.2696   91.1589 H   0  0  0  0  0  0  0  0  0  0  0  0
   10.1413   51.7233   92.3113 H   0  0  0  0  0  0  0  0  0  0  0  0
   12.1472   51.7341   94.2354 H   0  0  0  0  0  0  0  0  0  0  0  0
   13.8403   52.1399   93.9744 H   0  0  0  0  0  0  0  0  0  0  0  0
   13.0771   54.0912   95.2343 H   0  0  0  0  0  0  0  0  0  0  0  0
   11.0550   54.5370   95.4250 H   0  0  0  0  0  0  0  0  0  0  0  0
   12.3821   55.7357   93.1995 H   0  0  0  0  0  0  0  0  0  0  0  0
   13.9979   55.0463   93.1696 H   0  0  0  0  0  0  0  0  0  0  0  0
   11.5453   54.2299   91.4894 H   0  0  0  0  0  0  0  0  0  0  0  0
   11.9600   54.4750   89.4830 H   0  0  0  0  0  0  0  0  0  0  0  0
   13.7607   55.7199   88.0110 H   0  0  0  0  0  0  0  0  0  0  0  0
   14.7536   54.3111   88.5330 H   0  0  0  0  0  0  0  0  0  0  0  0
   11.8087   52.7363   88.6159 H   0  0  0  0  0  0  0  0  0  0  0  0
   10.8259   51.3120   86.8272 H   0  0  0  0  0  0  0  0  0  0  0  0
   10.8961   48.6332   82.0564 H   0  0  0  0  0  0  0  0  0  0  0  0
    9.2704   53.1367   84.2802 H   0  0  0  0  0  0  0  0  0  0  0  0
   10.0465   53.5942   82.7262 H   0  0  0  0  0  0  0  0  0  0  0  0
    8.5760   52.5627   82.7262 H   0  0  0  0  0  0  0  0  0  0  0  0
   13.3076   53.2822   83.8875 H   0  0  0  0  0  0  0  0  0  0  0  0
   14.2885   54.7087   85.6735 H   0  0  0  0  0  0  0  0  0  0  0  0
  1  2  1  0
  2  3  2  0
  2  4  1  0
  4  5  1  0
  5  6  1  0
  6  7  1  0
  6  8  1  0
  8  9  1  0
  9 10  1  0
 10 11  2  0
 10 12  1  0
 12 13  1  0
 13 14  1  0
 14 15  1  0
 14 16  1  0
 16 17  1  0
 17 18  1  0
 18 19  2  0
 18 20  1  0
 20 21  1  0
 21 22  1  0
 22 23  2  0
 23 24  1  0
 24 25  2  0
 25 26  1  0
 26 27  1  0
 27 28  1  0
 28 29  2  0
 29 30  1  0
 30 31  1  0
 25 32  1  0
 32 33  2  0
  9  4  1  0
 17 12  1  0
 33 22  1  0
 30 26  2  0
  1 34  1  0
  1 35  1  0
  1 36  1  0
  5 37  1  0
  5 38  1  0
  6 39  1  6
  7 40  1  0
  8 41  1  0
  8 42  1  0
  9 43  1  1
 13 44  1  0
 13 45  1  0
 14 46  1  1
 15 47  1  0
 16 48  1  0
 16 49  1  0
 17 50  1  6
 20 51  1  0
 21 52  1  0
 21 53  1  0
 23 54  1  0
 24 55  1  0
 28 56  1  0
 31 57  1  0
 31 58  1  0
 31 59  1  0
 32 60  1  0
 33 61  1  0
M  END
>  <meeko>  (6) 
{"is_sidechain": [false], "free_energy": -6.351, "intermolecular_energy": -8.965, "internal_energy": -2.145}

$$$$
4w9i_ligand
     RDKit          3D

 61 64  0  0  0  0  0  0  0  0999 V2000
   13.1110   53.4930   94.1810 C   0  0  0  0  0  0  0  0  0  0  0  0
   12.2310   54.0190   93.0790 C   0  0  0  0  0  0  0  0  0  0  0  0
   11.0480   54.2820   93.2930 O   0  0  0  0  0  0  0  0  0  0  0  0
   12.7990   54.1790   91.8360 N   0  0  0  0  0  0  0  0  0  0  0  0
   14.0870   54.8520   91.7120 C   0  0  0  0  0  0  0  0  0  0  0  0
   14.3580   54.9190   90.2110 C   0  0  2  0  0  0  0  0  0  0  0  0
   15.1270   56.0470   89.8320 O   0  0  0  0  0  0  0  0  0  0  0  0
   12.9580   54.9770   89.6120 C   0  0  0  0  0  0  0  0  0  0  0  0
   12.1170   54.0960   90.5450 C   0  0  1  0  0  0  0  0  0  0  0  0
   11.8520   52.7180   89.8830 C   0  0  0  0  0  0  0  0  0  0  0  0
   12.3100   52.5240   88.7500 O   0  0  0  0  0  0  0  0  0  0  0  0
   11.1460   51.7130   90.5100 N   0  0  0  0  0  0  0  0  0  0  0  0
    9.7450   51.7100   90.9210 C   0  0  0  0  0  0  0  0  0  0  0  0
    9.7270   50.8840   92.2070 C   0  0  2  0  0  0  0  0  0  0  0  0
   10.0320   51.7040   93.3340 O   0  0  0  0  0  0  0  0  0  0  0  0
   10.8280   49.8620   91.9900 C   0  0  0  0  0  0  0  0  0  0  0  0
   11.8910   50.6290   91.1900 C   0  0  1  0  0  0  0  0  0  0  0  0
   12.5900   49.6410   90.2380 C   0  0  0  0  0  0  0  0  0  0  0  0
   13.6730   49.1290   90.5150 O   0  0  0  0  0  0  0  0  0  0  0  0
   11.8270   49.2490   89.1610 N   0  0  0  0  0  0  0  0  0  0  0  0
   12.2110   48.1620   88.2950 C   0  0  0  0  0  0  0  0  0  0  0  0
   12.1680   48.6080   86.8560 C   0  0  0  0  0  0  0  0  0  0  0  0
   12.5560   47.7460   85.8230 C   0  0  0  0  0  0  0  0  0  0  0  0
   12.5440   48.1810   84.4950 C   0  0  0  0  0  0  0  0  0  0  0  0
   12.1480   49.4870   84.1740 C   0  0  0  0  0  0  0  0  0  0  0  0
   12.1460   49.9530   82.7880 C   0  0  0  0  0  0  0  0  0  0  0  0
   10.8370   49.5550   81.7440 S   0  0  0  0  0  0  0  0  0  0  0  0
   11.5830   50.4450   80.4880 C   0  0  0  0  0  0  0  0  0  0  0  0
   12.7300   51.0130   80.7820 N   0  0  0  0  0  0  0  0  0  0  0  0
   13.0640   50.7370   82.1010 C   0  0  0  0  0  0  0  0  0  0  0  0
   14.3410   51.2890   82.6260 C   0  0  0  0  0  0  0  0  0  0  0  0
   11.7700   50.3510   85.2090 C   0  0  0  0  0  0  0  0  0  0  0  0
   11.7820   49.9170   86.5370 C   0  0  0  0  0  0  0  0  0  0  0  0
   12.6736   53.7544   95.1559 H   0  0  0  0  0  0  0  0  0  0  0  0
   13.1904   52.3992   94.0963 H   0  0  0  0  0  0  0  0  0  0  0  0
   14.1121   53.9410   94.0963 H   0  0  0  0  0  0  0  0  0  0  0  0
   14.0369   55.8637   92.1409 H   0  0  0  0  0  0  0  0  0  0  0  0
   14.8840   54.3191   92.2513 H   0  0  0  0  0  0  0  0  0  0  0  0
   14.9564   54.0645   89.8622 H   0  0  0  0  0  0  0  0  0  0  0  0
   15.7250   55.7920   89.1080 H   0  0  0  0  0  0  0  0  0  0  0  0
   12.5792   56.0097   89.6031 H   0  0  0  0  0  0  0  0  0  0  0  0
   12.9304   54.6335   88.5674 H   0  0  0  0  0  0  0  0  0  0  0  0
   11.0801   54.4121   90.7318 H   0  0  0  0  0  0  0  0  0  0  0  0
    9.3932   52.7346   91.1117 H   0  0  0  0  0  0  0  0  0  0  0  0
    9.0823   51.2951   90.1473 H   0  0  0  0  0  0  0  0  0  0  0  0
    8.7461   50.4283   92.4075 H   0  0  0  0  0  0  0  0  0  0  0  0
   10.8740   51.4090   93.7210 H   0  0  0  0  0  0  0  0  0  0  0  0
   11.2357   49.5158   92.9512 H   0  0  0  0  0  0  0  0  0  0  0  0
   10.4734   48.9604   91.4690 H   0  0  0  0  0  0  0  0  0  0  0  0
   12.6959   51.0730   91.7942 H   0  0  0  0  0  0  0  0  0  0  0  0
   10.8780   49.5890   89.1140 H   0  0  0  0  0  0  0  0  0  0  0  0
   13.2324   47.8400   88.5460 H   0  0  0  0  0  0  0  0  0  0  0  0
   11.5106   47.3253   88.4343 H   0  0  0  0  0  0  0  0  0  0  0  0
   12.8725   46.7192   86.0585 H   0  0  0  0  0  0  0  0  0  0  0  0
   12.8483   47.4918   83.6935 H   0  0  0  0  0  0  0  0  0  0  0  0
   11.1279   50.5364   79.4908 H   0  0  0  0  0  0  0  0  0  0  0  0
   14.3198   51.2798   83.7258 H   0  0  0  0  0  0  0  0  0  0  0  0
   15.1803   50.6733   82.2703 H   0  0  0  0  0  0  0  0  0  0  0  0
   14.4676   52.3222   82.2703 H   0  0  0  0  0  0  0  0  0  0  0  0
   11.4609   51.3803   84.9745 H   0  0  0  0  0  0  0  0  0  0  0  0
   11.4859   50.6088   87.3393 H   0  0  0  0  0  0  0  0  0  0  0  0
  1  2  1  0
  2  3  2  0
  2  4  1  0
  4  5  1  0
  5  6  1  0
  6  7  1  0
  6  8  1  0
  8  9  1  0
  9 10  1  0
 10 11  2  0
 10 12  1  0
 12 13  1  0
 13 14  1  0
 14 15  1  0
 14 16  1  0
 16 17  1  0
 17 18  1  0
 18 19  2  0
 18 20  1  0
 20 21  1  0
 21 22  1  0
 22 23  2  0
 23 24  1  0
 24 25  2  0
 25 26  1  0
 26 27  1  0
 27 28  1  0
 28 29  2  0
 29 30  1  0
 30 31  1  0
 25 32  1  0
 32 33  2  0
  9  4  1  0
 17 12  1  0
 33 22  1  0
 30 26  2  0
  1 34  1  0
  1 35  1  0
  1 36  1  0
  5 37  1  0
  5 38  1  0
  6 39  1  6
  7 40  1  0
  8 41  1  0
  8 42  1  0
  9 43  1  1
 13 44  1  0
 13 45  1  0
 14 46  1  1
 15 47  1  0
 16 48  1  0
 16 49  1  0
 17 50  1  1
 20 51  1  0
 21 52  1  0
 21 53  1  0
 23 54  1  0
 24 55  1  0
 28 56  1  0
 31 57  1  0
 31 58  1  0
 31 59  1  0
 32 60  1  0
 33 61  1  0
M  END
>  <meeko>  (7) 
{"is_sidechain": [false], "free_energy": -6.319, "intermolecular_energy": -9.269, "internal_energy": -1.794}

$$$$
4w9i_ligand
     RDKit          3D

 61 64  0  0  0  0  0  0  0  0999 V2000
   12.8110   53.4960   85.3500 C   0  0  0  0  0  0  0  0  0  0  0  0
   11.5690   53.0610   84.6210 C   0  0  0  0  0  0  0  0  0  0  0  0
   10.4810   53.5810   84.8670 O   0  0  0  0  0  0  0  0  0  0  0  0
   11.7010   52.0580   83.6870 N   0  0  0  0  0  0  0  0  0  0  0  0
   13.0120   51.4710   83.4380 C   0  0  0  0  0  0  0  0  0  0  0  0
   12.7930   50.4720   82.3050 C   0  0  2  0  0  0  0  0  0  0  0  0
   13.9320   50.3060   81.4780 O   0  0  0  0  0  0  0  0  0  0  0  0
   11.6310   51.0820   81.5300 C   0  0  0  0  0  0  0  0  0  0  0  0
   10.7620   51.7330   82.6140 C   0  0  1  0  0  0  0  0  0  0  0  0
    9.5160   50.8510   82.8990 C   0  0  0  0  0  0  0  0  0  0  0  0
    9.7000   49.7430   83.4190 O   0  0  0  0  0  0  0  0  0  0  0  0
    8.2310   51.2600   82.6110 N   0  0  0  0  0  0  0  0  0  0  0  0
    7.4750   51.0690   81.3770 C   0  0  0  0  0  0  0  0  0  0  0  0
    6.6200   52.3300   81.2540 C   0  0  2  0  0  0  0  0  0  0  0  0
    7.3550   53.3730   80.6140 O   0  0  0  0  0  0  0  0  0  0  0  0
    6.3280   52.7050   82.6960 C   0  0  0  0  0  0  0  0  0  0  0  0
    7.6080   52.3120   83.4460 C   0  0  1  0  0  0  0  0  0  0  0  0
    7.2200   51.8540   84.8640 C   0  0  0  0  0  0  0  0  0  0  0  0
    6.5530   50.8400   85.0580 O   0  0  0  0  0  0  0  0  0  0  0  0
    7.8280   52.5600   85.8780 N   0  0  0  0  0  0  0  0  0  0  0  0
    7.7760   52.1350   87.2560 C   0  0  0  0  0  0  0  0  0  0  0  0
    8.9900   52.6340   87.9960 C   0  0  0  0  0  0  0  0  0  0  0  0
    8.9500   53.8340   88.7160 C   0  0  0  0  0  0  0  0  0  0  0  0
   10.0920   54.3050   89.3720 C   0  0  0  0  0  0  0  0  0  0  0  0
   11.2950   53.5890   89.3150 C   0  0  0  0  0  0  0  0  0  0  0  0
   12.4960   54.0820   89.9870 C   0  0  0  0  0  0  0  0  0  0  0  0
   13.7380   54.8560   89.0820 S   0  0  0  0  0  0  0  0  0  0  0  0
   14.6240   55.0990   90.5250 C   0  0  0  0  0  0  0  0  0  0  0  0
   14.0710   54.6480   91.6270 N   0  0  0  0  0  0  0  0  0  0  0  0
   12.8480   54.0610   91.3310 C   0  0  0  0  0  0  0  0  0  0  0  0
   12.0650   53.4780   92.4530 C   0  0  0  0  0  0  0  0  0  0  0  0
   11.3360   52.3940   88.5870 C   0  0  0  0  0  0  0  0  0  0  0  0
   10.1950   51.9220   87.9310 C   0  0  0  0  0  0  0  0  0  0  0  0
   12.6394   53.4359   86.4349 H   0  0  0  0  0  0  0  0  0  0  0  0
   13.6477   52.8374   85.0741 H   0  0  0  0  0  0  0  0  0  0  0  0
   13.0540   54.5327   85.0741 H   0  0  0  0  0  0  0  0  0  0  0  0
   13.7309   52.2465   83.1352 H   0  0  0  0  0  0  0  0  0  0  0  0
   13.4251   50.9900   84.3369 H   0  0  0  0  0  0  0  0  0  0  0  0
   12.5933   49.4585   82.6830 H   0  0  0  0  0  0  0  0  0  0  0  0
   13.7570   49.5920   80.8400 H   0  0  0  0  0  0  0  0  0  0  0  0
   11.9914   51.8349   80.8135 H   0  0  0  0  0  0  0  0  0  0  0  0
   11.0803   50.3369   80.9372 H   0  0  0  0  0  0  0  0  0  0  0  0
   10.2632   52.6787   82.3552 H   0  0  0  0  0  0  0  0  0  0  0  0
    8.1532   50.9734   80.5162 H   0  0  0  0  0  0  0  0  0  0  0  0
    6.8680   50.1518   81.3956 H   0  0  0  0  0  0  0  0  0  0  0  0
    5.7113   52.1727   80.6545 H   0  0  0  0  0  0  0  0  0  0  0  0
    7.6380   53.0670   79.7360 H   0  0  0  0  0  0  0  0  0  0  0  0
    6.1359   53.7841   82.7885 H   0  0  0  0  0  0  0  0  0  0  0  0
    5.4331   52.2028   83.0921 H   0  0  0  0  0  0  0  0  0  0  0  0
    8.3307   53.1288   83.5892 H   0  0  0  0  0  0  0  0  0  0  0  0
    8.5000   53.2640   85.6170 H   0  0  0  0  0  0  0  0  0  0  0  0
    6.8693   52.5409   87.7283 H   0  0  0  0  0  0  0  0  0  0  0  0
    7.7567   51.0358   87.2941 H   0  0  0  0  0  0  0  0  0  0  0  0
    8.0143   54.4102   88.7661 H   0  0  0  0  0  0  0  0  0  0  0  0
   10.0452   55.2469   89.9383 H   0  0  0  0  0  0  0  0  0  0  0  0
   15.6011   55.6042   90.5293 H   0  0  0  0  0  0  0  0  0  0  0  0
   12.4995   53.8015   93.4104 H   0  0  0  0  0  0  0  0  0  0  0  0
   11.0218   53.8210   92.3893 H   0  0  0  0  0  0  0  0  0  0  0  0
   12.0946   52.3802   92.3893 H   0  0  0  0  0  0  0  0  0  0  0  0
   12.2736   51.8216   88.5306 H   0  0  0  0  0  0  0  0  0  0  0  0
   10.2438   50.9837   87.3590 H   0  0  0  0  0  0  0  0  0  0  0  0
  1  2  1  0
  2  3  2  0
  2  4  1  0
  4  5  1  0
  5  6  1  0
  6  7  1  0
  6  8  1  0
  8  9  1  0
  9 10  1  0
 10 11  2  0
 10 12  1  0
 12 13  1  0
 13 14  1  0
 14 15  1  0
 14 16  1  0
 16 17  1  0
 17 18  1  0
 18 19  2  0
 18 20  1  0
 20 21  1  0
 21 22  1  0
 22 23  2  0
 23 24  1  0
 24 25  2  0
 25 26  1  0
 26 27  1  0
 27 28  1  0
 28 29  2  0
 29 30  1  0
 30 31  1  0
 25 32  1  0
 32 33  2  0
  9  4  1  0
 17 12  1  0
 33 22  1  0
 30 26  2  0
  1 34  1  0
  1 35  1  0
  1 36  1  0
  5 37  1  0
  5 38  1  0
  6 39  1  1
  7 40  1  0
  8 41  1  0
  8 42  1  0
  9 43  1  6
 13 44  1  0
 13 45  1  0
 14 46  1  6
 15 47  1  0
 16 48  1  0
 16 49  1  0
 17 50  1  1
 20 51  1  0
 21 52  1  0
 21 53  1  0
 23 54  1  0
 24 55  1  0
 28 56  1  0
 31 57  1  0
 31 58  1  0
 31 59  1  0
 32 60  1  0
 33 61  1  0
M  END
>  <meeko>  (8) 
{"is_sidechain": [false], "free_energy": -6.299, "intermolecular_energy": -8.788, "internal_energy": -2.247}

$$$$
4w9i_ligand
     RDKit          3D

 61 64  0  0  0  0  0  0  0  0999 V2000
    7.2360   52.6360   89.8260 C   0  0  0  0  0  0  0  0  0  0  0  0
    8.3010   53.4820   90.4700 C   0  0  0  0  0  0  0  0  0  0  0  0
    8.8090   54.4240   89.8620 O   0  0  0  0  0  0  0  0  0  0  0  0
    8.6850   53.1510   91.7500 N   0  0  0  0  0  0  0  0  0  0  0  0
    7.6720   52.8040   92.7410 C   0  0  0  0  0  0  0  0  0  0  0  0
    8.4440   52.5810   94.0390 C   0  0  2  0  0  0  0  0  0  0  0  0
    7.6950   52.9010   95.1970 O   0  0  0  0  0  0  0  0  0  0  0  0
    9.6460   53.5060   93.8850 C   0  0  0  0  0  0  0  0  0  0  0  0
    9.9660   53.4550   92.3860 C   0  0  1  0  0  0  0  0  0  0  0  0
   11.2030   52.5510   92.1340 C   0  0  0  0  0  0  0  0  0  0  0  0
   11.1540   51.3820   92.5360 O   0  0  0  0  0  0  0  0  0  0  0  0
   12.3310   52.9960   91.4760 N   0  0  0  0  0  0  0  0  0  0  0  0
   13.6500   53.2810   92.0320 C   0  0  0  0  0  0  0  0  0  0  0  0
   14.1650   54.4580   91.2040 C   0  0  2  0  0  0  0  0  0  0  0  0
   13.6960   55.6940   91.7420 O   0  0  0  0  0  0  0  0  0  0  0  0
   13.5600   54.2210   89.8320 C   0  0  0  0  0  0  0  0  0  0  0  0
   12.1850   53.6090   90.1370 C   0  0  1  0  0  0  0  0  0  0  0  0
   11.8370   52.6140   89.0140 C   0  0  0  0  0  0  0  0  0  0  0  0
   12.2080   51.4420   89.0470 O   0  0  0  0  0  0  0  0  0  0  0  0
   10.9390   53.0920   88.0870 N   0  0  0  0  0  0  0  0  0  0  0  0
   10.3150   52.2410   87.1030 C   0  0  0  0  0  0  0  0  0  0  0  0
   11.2590   52.0020   85.9530 C   0  0  0  0  0  0  0  0  0  0  0  0
   11.8100   53.0730   85.2400 C   0  0  0  0  0  0  0  0  0  0  0  0
   12.6580   52.8390   84.1540 C   0  0  0  0  0  0  0  0  0  0  0  0
   12.9670   51.5300   83.7570 C   0  0  0  0  0  0  0  0  0  0  0  0
   13.8430   51.2780   82.6140 C   0  0  0  0  0  0  0  0  0  0  0  0
   15.4060   51.9940   82.5470 S   0  0  0  0  0  0  0  0  0  0  0  0
   15.6890   51.2090   81.0540 C   0  0  0  0  0  0  0  0  0  0  0  0
   14.7130   50.4570   80.5990 N   0  0  0  0  0  0  0  0  0  0  0  0
   13.6460   50.4890   81.4870 C   0  0  0  0  0  0  0  0  0  0  0  0
   12.4310   49.7030   81.1450 C   0  0  0  0  0  0  0  0  0  0  0  0
   12.4070   50.4600   84.4650 C   0  0  0  0  0  0  0  0  0  0  0  0
   11.5590   50.6930   85.5510 C   0  0  0  0  0  0  0  0  0  0  0  0
    6.6290   52.1538   90.6064 H   0  0  0  0  0  0  0  0  0  0  0  0
    6.5916   53.2712   89.2004 H   0  0  0  0  0  0  0  0  0  0  0  0
    7.7089   51.8646   89.2004 H   0  0  0  0  0  0  0  0  0  0  0  0
    6.9492   53.6249   92.8579 H   0  0  0  0  0  0  0  0  0  0  0  0
    7.0957   51.9145   92.4467 H   0  0  0  0  0  0  0  0  0  0  0  0
    8.7101   51.5234   94.1831 H   0  0  0  0  0  0  0  0  0  0  0  0
    6.7530   52.7270   95.0220 H   0  0  0  0  0  0  0  0  0  0  0  0
    9.3930   54.5304   94.1959 H   0  0  0  0  0  0  0  0  0  0  0  0
   10.4979   53.1996   94.5097 H   0  0  0  0  0  0  0  0  0  0  0  0
   10.3202   54.3856   91.9186 H   0  0  0  0  0  0  0  0  0  0  0  0
   13.5735   53.5562   93.0943 H   0  0  0  0  0  0  0  0  0  0  0  0
   14.3212   52.4107   91.9866 H   0  0  0  0  0  0  0  0  0  0  0  0
   15.2631   54.5201   91.1886 H   0  0  0  0  0  0  0  0  0  0  0  0
   13.9000   55.7220   92.6930 H   0  0  0  0  0  0  0  0  0  0  0  0
   13.4540   55.1677   89.2819 H   0  0  0  0  0  0  0  0  0  0  0  0
   14.1831   53.5717   89.1994 H   0  0  0  0  0  0  0  0  0  0  0  0
   11.3518   54.3268   90.1619 H   0  0  0  0  0  0  0  0  0  0  0  0
   10.5520   54.0100   88.2430 H   0  0  0  0  0  0  0  0  0  0  0  0
   10.0552   51.2780   87.5668 H   0  0  0  0  0  0  0  0  0  0  0  0
    9.4055   52.7321   86.7266 H   0  0  0  0  0  0  0  0  0  0  0  0
   11.5740   54.1057   85.5364 H   0  0  0  0  0  0  0  0  0  0  0  0
   13.0874   53.6901   83.6052 H   0  0  0  0  0  0  0  0  0  0  0  0
   16.6352   51.3273   80.5057 H   0  0  0  0  0  0  0  0  0  0  0  0
   11.9311   49.3796   82.0699 H   0  0  0  0  0  0  0  0  0  0  0  0
   11.7437   50.3281   80.5560 H   0  0  0  0  0  0  0  0  0  0  0  0
   12.7194   48.8199   80.5560 H   0  0  0  0  0  0  0  0  0  0  0  0
   12.6364   49.4272   84.1639 H   0  0  0  0  0  0  0  0  0  0  0  0
   11.1232   49.8420   86.0950 H   0  0  0  0  0  0  0  0  0  0  0  0
  1  2  1  0
  2  3  2  0
  2  4  1  0
  4  5  1  0
  5  6  1  0
  6  7  1  0
  6  8  1  0
  8  9  1  0
  9 10  1  0
 10 11  2  0
 10 12  1  0
 12 13  1  0
 13 14  1  0
 14 15  1  0
 14 16  1  0
 16 17  1  0
 17 18  1  0
 18 19  2  0
 18 20  1  0
 20 21  1  0
 21 22  1  0
 22 23  2  0
 23 24  1  0
 24 25  2  0
 25 26  1  0
 26 27  1  0
 27 28  1  0
 28 29  2  0
 29 30  1  0
 30 31  1  0
 25 32  1  0
 32 33  2  0
  9  4  1  0
 17 12  1  0
 33 22  1  0
 30 26  2  0
  1 34  1  0
  1 35  1  0
  1 36  1  0
  5 37  1  0
  5 38  1  0
  6 39  1  1
  7 40  1  0
  8 41  1  0
  8 42  1  0
  9 43  1  6
 13 44  1  0
 13 45  1  0
 14 46  1  6
 15 47  1  0
 16 48  1  0
 16 49  1  0
 17 50  1  1
 20 51  1  0
 21 52  1  0
 21 53  1  0
 23 54  1  0
 24 55  1  0
 28 56  1  0
 31 57  1  0
 31 58  1  0
 31 59  1  0
 32 60  1  0
 33 61  1  0
M  END
>  <meeko>  (9) 
{"is_sidechain": [false], "free_energy": -6.168, "intermolecular_energy": -9.21, "internal_energy": -1.632}

$$$$
