2xii_ligand
     RDKit          3D

 51 54  0  0  0  0  0  0  0  0999 V2000
  -24.3920    4.7670   26.8230 C   0  0  0  0  0  0  0  0  0  0  0  0
  -24.7490    3.3340   27.1950 C   0  0  2  0  0  0  0  0  0  0  0  0
  -26.2370    3.1580   27.0180 N   0  0  0  0  0  0  0  0  0  0  0  0
  -26.6430    1.6830   27.0350 C   0  0  2  0  0  0  0  0  0  0  0  0
  -28.1780    1.5840   27.1720 C   0  0  0  0  0  0  0  0  0  0  0  0
  -28.9890    2.0520   26.0570 N   0  0  0  0  0  0  0  0  0  0  0  0
  -29.3660    1.2910   24.9750 C   0  0  0  0  0  0  0  0  0  0  0  0
  -29.2320    0.0670   24.9950 O   0  0  0  0  0  0  0  0  0  0  0  0
  -29.9940    1.9450   23.7850 C   0  0  0  0  0  0  0  0  0  0  0  0
  -29.5600    1.4890   22.5220 C   0  0  0  0  0  0  0  0  0  0  0  0
  -30.0650    2.0230   21.3220 C   0  0  0  0  0  0  0  0  0  0  0  0
  -31.0210    3.0360   21.3410 C   0  0  0  0  0  0  0  0  0  0  0  0
  -31.4580    3.5020   22.5700 C   0  0  0  0  0  0  0  0  0  0  0  0
  -30.9470    2.9570   23.7750 C   0  0  0  0  0  0  0  0  0  0  0  0
  -31.6240    3.6990   24.8690 C   0  0  0  0  0  0  0  0  0  0  0  0
  -31.4690    3.5310   26.0630 O   0  0  0  0  0  0  0  0  0  0  0  0
  -32.5370    4.6790   24.2540 C   0  0  0  0  0  0  0  0  0  0  0  0
  -33.3780    5.5890   24.8630 C   0  0  0  0  0  0  0  0  0  0  0  0
  -34.1410    6.4040   24.0260 C   0  0  0  0  0  0  0  0  0  0  0  0
  -34.0430    6.2860   22.6270 C   0  0  0  0  0  0  0  0  0  0  0  0
  -33.1800    5.3510   22.0370 C   0  0  0  0  0  0  0  0  0  0  0  0
  -32.4220    4.5410   22.8670 C   0  0  0  0  0  0  0  0  0  0  0  0
  -25.8670    0.9410   28.1620 C   0  0  1  0  0  0  0  0  0  0  0  0
  -24.7160    0.2980   27.5980 O   0  0  0  0  0  0  0  0  0  0  0  0
  -25.3850    1.9270   29.2310 C   0  0  2  0  0  0  0  0  0  0  0  0
  -26.5270    2.6510   29.7310 O   0  0  0  0  0  0  0  0  0  0  0  0
  -24.3730    2.9400   28.6510 C   0  0  2  0  0  0  0  0  0  0  0  0
  -24.3730    4.0830   29.5190 O   0  0  0  0  0  0  0  0  0  0  0  0
  -24.2448    5.3578   27.7391 H   0  0  0  0  0  0  0  0  0  0  0  0
  -23.4652    4.7720   26.2306 H   0  0  0  0  0  0  0  0  0  0  0  0
  -25.2082    5.2062   26.2306 H   0  0  0  0  0  0  0  0  0  0  0  0
  -24.1631    2.6781   26.5343 H   0  0  0  0  0  0  0  0  0  0  0  0
  -26.5700    3.6090   26.1580 H   0  0  0  0  0  0  0  0  0  0  0  0
  -26.7000    3.6280   27.8180 H   0  0  0  0  0  0  0  0  0  0  0  0
  -26.3724    1.1852   26.0922 H   0  0  0  0  0  0  0  0  0  0  0  0
  -28.4254    0.5249   27.3363 H   0  0  0  0  0  0  0  0  0  0  0  0
  -28.4273    2.2627   28.0010 H   0  0  0  0  0  0  0  0  0  0  0  0
  -29.0310    3.0690   25.9650 H   0  0  0  0  0  0  0  0  0  0  0  0
  -28.8037    0.6917   22.4741 H   0  0  0  0  0  0  0  0  0  0  0  0
  -29.7010    1.6364   20.3587 H   0  0  0  0  0  0  0  0  0  0  0  0
  -31.4184    3.4548   20.4047 H   0  0  0  0  0  0  0  0  0  0  0  0
  -33.4435    5.6679   25.9582 H   0  0  0  0  0  0  0  0  0  0  0  0
  -34.8254    7.1456   24.4637 H   0  0  0  0  0  0  0  0  0  0  0  0
  -34.6537    6.9382   21.9853 H   0  0  0  0  0  0  0  0  0  0  0  0
  -33.1068    5.2630   20.9430 H   0  0  0  0  0  0  0  0  0  0  0  0
  -26.5441    0.2057   28.6212 H   0  0  0  0  0  0  0  0  0  0  0  0
  -24.7890    0.4150   26.6240 H   0  0  0  0  0  0  0  0  0  0  0  0
  -24.8872    1.3601   30.0315 H   0  0  0  0  0  0  0  0  0  0  0  0
  -27.3050    2.2710   29.2680 H   0  0  0  0  0  0  0  0  0  0  0  0
  -23.3669    2.4979   28.6021 H   0  0  0  0  0  0  0  0  0  0  0  0
  -24.5920    3.7740   30.4200 H   0  0  0  0  0  0  0  0  0  0  0  0
  1  2  1  0
  2  3  1  0
  3  4  1  0
  4  5  1  0
  5  6  1  0
  6  7  1  0
  7  8  2  0
  7  9  1  0
  9 10  2  0
 10 11  1  0
 11 12  2  0
 12 13  1  0
 13 14  2  0
 14 15  1  0
 15 16  2  0
 15 17  1  0
 17 18  2  0
 18 19  1  0
 19 20  2  0
 20 21  1  0
 21 22  2  0
  4 23  1  0
 23 24  1  0
 23 25  1  0
 25 26  1  0
 25 27  1  0
 27 28  1  0
 27  2  1  0
 14  9  1  0
 22 17  1  0
 22 13  1  0
  1 29  1  0
  1 30  1  0
  1 31  1  0
  2 32  1  6
  3 33  1  0
  3 34  1  0
  4 35  1  6
  5 36  1  0
  5 37  1  0
  6 38  1  0
 10 39  1  0
 11 40  1  0
 12 41  1  0
 18 42  1  0
 19 43  1  0
 20 44  1  0
 21 45  1  0
 23 46  1  1
 24 47  1  0
 25 48  1  1
 26 49  1  0
 27 50  1  6
 28 51  1  0
M  CHG  1   3   1
M  END
>  <meeko>  (1) 
{"is_sidechain": [false], "free_energy": -9.189, "intermolecular_energy": -11.606, "internal_energy": -0.623}

$$$$
2xii_ligand
     RDKit          3D

 51 54  0  0  0  0  0  0  0  0999 V2000
  -25.5070   -3.7130   27.2900 C   0  0  0  0  0  0  0  0  0  0  0  0
  -26.3050   -2.4800   26.8880 C   0  0  2  0  0  0  0  0  0  0  0  0
  -26.9200   -2.7370   25.5340 N   0  0  0  0  0  0  0  0  0  0  0  0
  -28.0040   -1.7120   25.1970 C   0  0  2  0  0  0  0  0  0  0  0  0
  -28.3610   -1.8310   23.6980 C   0  0  0  0  0  0  0  0  0  0  0  0
  -29.1220   -0.7450   23.0950 N   0  0  0  0  0  0  0  0  0  0  0  0
  -28.5820    0.3930   22.5450 C   0  0  0  0  0  0  0  0  0  0  0  0
  -27.3750    0.4640   22.3150 O   0  0  0  0  0  0  0  0  0  0  0  0
  -29.4720    1.5370   22.1750 C   0  0  0  0  0  0  0  0  0  0  0  0
  -29.4880    1.8980   20.8110 C   0  0  0  0  0  0  0  0  0  0  0  0
  -30.2780    2.9590   20.3290 C   0  0  0  0  0  0  0  0  0  0  0  0
  -31.0770    3.7010   21.1950 C   0  0  0  0  0  0  0  0  0  0  0  0
  -31.0720    3.3680   22.5400 C   0  0  0  0  0  0  0  0  0  0  0  0
  -30.2770    2.2960   23.0180 C   0  0  0  0  0  0  0  0  0  0  0  0
  -30.5130    2.2430   24.4830 C   0  0  0  0  0  0  0  0  0  0  0  0
  -30.0220    1.4570   25.2690 O   0  0  0  0  0  0  0  0  0  0  0  0
  -31.4680    3.3130   24.8260 C   0  0  0  0  0  0  0  0  0  0  0  0
  -31.9890    3.6540   26.0580 C   0  0  0  0  0  0  0  0  0  0  0  0
  -32.8850    4.7230   26.0920 C   0  0  0  0  0  0  0  0  0  0  0  0
  -33.2270    5.4090   24.9110 C   0  0  0  0  0  0  0  0  0  0  0  0
  -32.6820    5.0390   23.6740 C   0  0  0  0  0  0  0  0  0  0  0  0
  -31.7920    3.9780   23.6380 C   0  0  0  0  0  0  0  0  0  0  0  0
  -27.5270   -0.2910   25.6140 C   0  0  1  0  0  0  0  0  0  0  0  0
  -28.0640    0.0270   26.9050 O   0  0  0  0  0  0  0  0  0  0  0  0
  -25.9990   -0.2350   25.7060 C   0  0  2  0  0  0  0  0  0  0  0  0
  -25.4500   -0.6530   24.4400 O   0  0  0  0  0  0  0  0  0  0  0  0
  -25.4650   -1.1740   26.8110 C   0  0  2  0  0  0  0  0  0  0  0  0
  -24.0910   -1.4540   26.5020 O   0  0  0  0  0  0  0  0  0  0  0  0
  -25.4636   -3.7800   28.3871 H   0  0  0  0  0  0  0  0  0  0  0  0
  -25.9945   -4.6128   26.8867 H   0  0  0  0  0  0  0  0  0  0  0  0
  -24.4865   -3.6368   26.8867 H   0  0  0  0  0  0  0  0  0  0  0  0
  -27.0595   -2.3192   27.6722 H   0  0  0  0  0  0  0  0  0  0  0  0
  -27.2970   -3.6900   25.4660 H   0  0  0  0  0  0  0  0  0  0  0  0
  -26.1630   -2.6490   24.8310 H   0  0  0  0  0  0  0  0  0  0  0  0
  -28.9265   -1.9074   25.7634 H   0  0  0  0  0  0  0  0  0  0  0  0
  -27.4164   -1.9189   23.1413 H   0  0  0  0  0  0  0  0  0  0  0  0
  -29.0279   -2.7038   23.6394 H   0  0  0  0  0  0  0  0  0  0  0  0
  -30.1100   -0.7290   23.3570 H   0  0  0  0  0  0  0  0  0  0  0  0
  -28.8642    1.3332   20.1026 H   0  0  0  0  0  0  0  0  0  0  0  0
  -30.2639    3.2044   19.2568 H   0  0  0  0  0  0  0  0  0  0  0  0
  -31.6960    4.5299   20.8211 H   0  0  0  0  0  0  0  0  0  0  0  0
  -31.7105    3.1078   26.9713 H   0  0  0  0  0  0  0  0  0  0  0  0
  -33.3281    5.0326   27.0500 H   0  0  0  0  0  0  0  0  0  0  0  0
  -33.9343    6.2500   24.9601 H   0  0  0  0  0  0  0  0  0  0  0  0
  -32.9542    5.5777   22.7544 H   0  0  0  0  0  0  0  0  0  0  0  0
  -27.8736    0.4265   24.8556 H   0  0  0  0  0  0  0  0  0  0  0  0
  -28.9140   -0.4630   26.9750 H   0  0  0  0  0  0  0  0  0  0  0  0
  -25.7001    0.7947   25.9518 H   0  0  0  0  0  0  0  0  0  0  0  0
  -25.8200   -0.0340   23.7740 H   0  0  0  0  0  0  0  0  0  0  0  0
  -25.5446   -0.6951   27.7981 H   0  0  0  0  0  0  0  0  0  0  0  0
  -23.9880   -2.4250   26.4530 H   0  0  0  0  0  0  0  0  0  0  0  0
  1  2  1  0
  2  3  1  0
  3  4  1  0
  4  5  1  0
  5  6  1  0
  6  7  1  0
  7  8  2  0
  7  9  1  0
  9 10  2  0
 10 11  1  0
 11 12  2  0
 12 13  1  0
 13 14  2  0
 14 15  1  0
 15 16  2  0
 15 17  1  0
 17 18  2  0
 18 19  1  0
 19 20  2  0
 20 21  1  0
 21 22  2  0
  4 23  1  0
 23 24  1  0
 23 25  1  0
 25 26  1  0
 25 27  1  0
 27 28  1  0
 27  2  1  0
 14  9  1  0
 22 17  1  0
 22 13  1  0
  1 29  1  0
  1 30  1  0
  1 31  1  0
  2 32  1  1
  3 33  1  0
  3 34  1  0
  4 35  1  1
  5 36  1  0
  5 37  1  0
  6 38  1  0
 10 39  1  0
 11 40  1  0
 12 41  1  0
 18 42  1  0
 19 43  1  0
 20 44  1  0
 21 45  1  0
 23 46  1  6
 24 47  1  0
 25 48  1  1
 26 49  1  0
 27 50  1  1
 28 51  1  0
M  CHG  1   3   1
M  END
>  <meeko>  (2) 
{"is_sidechain": [false], "free_energy": -8.41, "intermolecular_energy": -10.235, "internal_energy": -1.011}

$$$$
2xii_ligand
     RDKit          3D

 51 54  0  0  0  0  0  0  0  0999 V2000
  -25.0260    2.1900   27.8500 C   0  0  0  0  0  0  0  0  0  0  0  0
  -25.6040    0.8100   27.5690 C   0  0  2  0  0  0  0  0  0  0  0  0
  -25.9040    0.7150   26.0930 N   0  0  0  0  0  0  0  0  0  0  0  0
  -26.1640   -0.7270   25.6550 C   0  0  2  0  0  0  0  0  0  0  0  0
  -26.7700   -0.7210   24.2340 C   0  0  0  0  0  0  0  0  0  0  0  0
  -27.6050    0.4110   23.8590 N   0  0  0  0  0  0  0  0  0  0  0  0
  -28.9560    0.3540   23.6140 C   0  0  0  0  0  0  0  0  0  0  0  0
  -29.6070   -0.6420   23.9300 O   0  0  0  0  0  0  0  0  0  0  0  0
  -29.6550    1.5300   23.0070 C   0  0  0  0  0  0  0  0  0  0  0  0
  -29.3390    1.8170   21.6620 C   0  0  0  0  0  0  0  0  0  0  0  0
  -29.9210    2.8970   20.9730 C   0  0  0  0  0  0  0  0  0  0  0  0
  -30.8380    3.7330   21.6050 C   0  0  0  0  0  0  0  0  0  0  0  0
  -31.1600    3.4720   22.9270 C   0  0  0  0  0  0  0  0  0  0  0  0
  -30.5720    2.3800   23.6140 C   0  0  0  0  0  0  0  0  0  0  0  0
  -31.1350    2.4210   24.9880 C   0  0  0  0  0  0  0  0  0  0  0  0
  -30.8910    1.6500   25.8950 O   0  0  0  0  0  0  0  0  0  0  0  0
  -32.0620    3.5650   25.0630 C   0  0  0  0  0  0  0  0  0  0  0  0
  -32.8210    4.0030   26.1300 C   0  0  0  0  0  0  0  0  0  0  0  0
  -33.6220    5.1260   25.9180 C   0  0  0  0  0  0  0  0  0  0  0  0
  -33.6390    5.7670   24.6650 C   0  0  0  0  0  0  0  0  0  0  0  0
  -32.8580    5.2980   23.6000 C   0  0  0  0  0  0  0  0  0  0  0  0
  -32.0630    4.1840   23.8080 C   0  0  0  0  0  0  0  0  0  0  0  0
  -27.0570   -1.4410   26.7110 C   0  0  1  0  0  0  0  0  0  0  0  0
  -26.2230   -2.1900   27.6060 O   0  0  0  0  0  0  0  0  0  0  0  0
  -27.8440   -0.4190   27.5380 C   0  0  2  0  0  0  0  0  0  0  0  0
  -28.6080    0.4060   26.6350 O   0  0  0  0  0  0  0  0  0  0  0  0
  -26.9020    0.4890   28.3600 C   0  0  2  0  0  0  0  0  0  0  0  0
  -27.6330    1.6850   28.6730 O   0  0  0  0  0  0  0  0  0  0  0  0
  -24.9607    2.3458   28.9370 H   0  0  0  0  0  0  0  0  0  0  0  0
  -24.0214    2.2637   27.4080 H   0  0  0  0  0  0  0  0  0  0  0  0
  -25.6782    2.9577   27.4080 H   0  0  0  0  0  0  0  0  0  0  0  0
  -24.8512    0.0775   27.8959 H   0  0  0  0  0  0  0  0  0  0  0  0
  -25.1530    1.1290   25.5290 H   0  0  0  0  0  0  0  0  0  0  0  0
  -26.7660    1.2650   25.9180 H   0  0  0  0  0  0  0  0  0  0  0  0
  -25.2273   -1.3013   25.6020 H   0  0  0  0  0  0  0  0  0  0  0  0
  -25.9341   -0.7633   23.5202 H   0  0  0  0  0  0  0  0  0  0  0  0
  -27.4502   -1.5853   24.2183 H   0  0  0  0  0  0  0  0  0  0  0  0
  -27.0850    1.2140   23.4980 H   0  0  0  0  0  0  0  0  0  0  0  0
  -28.6155    1.1768   21.1360 H   0  0  0  0  0  0  0  0  0  0  0  0
  -29.6486    3.0830   19.9236 H   0  0  0  0  0  0  0  0  0  0  0  0
  -31.2945    4.5781   21.0689 H   0  0  0  0  0  0  0  0  0  0  0  0
  -32.7955    3.4902   27.1028 H   0  0  0  0  0  0  0  0  0  0  0  0
  -34.2455    5.5136   26.7372 H   0  0  0  0  0  0  0  0  0  0  0  0
  -34.2764    6.6515   24.5191 H   0  0  0  0  0  0  0  0  0  0  0  0
  -32.8763    5.8027   22.6228 H   0  0  0  0  0  0  0  0  0  0  0  0
  -27.7587   -2.1012   26.1803 H   0  0  0  0  0  0  0  0  0  0  0  0
  -25.2980   -2.0450   27.3020 H   0  0  0  0  0  0  0  0  0  0  0  0
  -28.4979   -0.9618   28.2364 H   0  0  0  0  0  0  0  0  0  0  0  0
  -29.1050    1.0310   27.2050 H   0  0  0  0  0  0  0  0  0  0  0  0
  -26.5845   -0.0176   29.2833 H   0  0  0  0  0  0  0  0  0  0  0  0
  -28.4660    1.6680   28.1590 H   0  0  0  0  0  0  0  0  0  0  0  0
  1  2  1  0
  2  3  1  0
  3  4  1  0
  4  5  1  0
  5  6  1  0
  6  7  1  0
  7  8  2  0
  7  9  1  0
  9 10  2  0
 10 11  1  0
 11 12  2  0
 12 13  1  0
 13 14  2  0
 14 15  1  0
 15 16  2  0
 15 17  1  0
 17 18  2  0
 18 19  1  0
 19 20  2  0
 20 21  1  0
 21 22  2  0
  4 23  1  0
 23 24  1  0
 23 25  1  0
 25 26  1  0
 25 27  1  0
 27 28  1  0
 27  2  1  0
 14  9  1  0
 22 17  1  0
 22 13  1  0
  1 29  1  0
  1 30  1  0
  1 31  1  0
  2 32  1  1
  3 33  1  0
  3 34  1  0
  4 35  1  6
  5 36  1  0
  5 37  1  0
  6 38  1  0
 10 39  1  0
 11 40  1  0
 12 41  1  0
 18 42  1  0
 19 43  1  0
 20 44  1  0
 21 45  1  0
 23 46  1  6
 24 47  1  0
 25 48  1  1
 26 49  1  0
 27 50  1  1
 28 51  1  0
M  CHG  1   3   1
M  END
>  <meeko>  (3) 
{"is_sidechain": [false], "free_energy": -8.302, "intermolecular_energy": -9.833, "internal_energy": -1.275}

$$$$
2xii_ligand
     RDKit          3D

 51 54  0  0  0  0  0  0  0  0999 V2000
  -24.6760    5.0200   26.7780 C   0  0  0  0  0  0  0  0  0  0  0  0
  -24.9990    3.5690   27.1090 C   0  0  2  0  0  0  0  0  0  0  0  0
  -26.4990    3.4290   27.2010 N   0  0  0  0  0  0  0  0  0  0  0  0
  -26.9360    1.9630   27.1900 C   0  0  2  0  0  0  0  0  0  0  0  0
  -28.4230    1.8780   27.6030 C   0  0  0  0  0  0  0  0  0  0  0  0
  -29.4250    2.1630   26.5860 N   0  0  0  0  0  0  0  0  0  0  0  0
  -30.4980    1.3580   26.2810 C   0  0  0  0  0  0  0  0  0  0  0  0
  -30.8160    0.4320   27.0260 O   0  0  0  0  0  0  0  0  0  0  0  0
  -31.3180    1.6390   25.0620 C   0  0  0  0  0  0  0  0  0  0  0  0
  -32.6150    2.1470   25.2860 C   0  0  0  0  0  0  0  0  0  0  0  0
  -33.4920    2.4490   24.2280 C   0  0  0  0  0  0  0  0  0  0  0  0
  -33.1050    2.2510   22.9040 C   0  0  0  0  0  0  0  0  0  0  0  0
  -31.8370    1.7480   22.6610 C   0  0  0  0  0  0  0  0  0  0  0  0
  -30.9580    1.4490   23.7320 C   0  0  0  0  0  0  0  0  0  0  0  0
  -29.7190    0.9280   23.1010 C   0  0  0  0  0  0  0  0  0  0  0  0
  -28.7120    0.5620   23.6730 O   0  0  0  0  0  0  0  0  0  0  0  0
  -29.9160    0.9420   21.6400 C   0  0  0  0  0  0  0  0  0  0  0  0
  -29.0470    0.5540   20.6390 C   0  0  0  0  0  0  0  0  0  0  0  0
  -29.4990    0.6760   19.3250 C   0  0  0  0  0  0  0  0  0  0  0  0
  -30.7870    1.1760   19.0550 C   0  0  0  0  0  0  0  0  0  0  0  0
  -31.6470    1.5630   20.0920 C   0  0  0  0  0  0  0  0  0  0  0  0
  -31.2000    1.4410   21.3970 C   0  0  0  0  0  0  0  0  0  0  0  0
  -25.9880    1.1290   28.0990 C   0  0  1  0  0  0  0  0  0  0  0  0
  -24.9790    0.5110   27.2880 O   0  0  0  0  0  0  0  0  0  0  0  0
  -25.2900    2.0260   29.1260 C   0  0  2  0  0  0  0  0  0  0  0  0
  -26.2990    2.7290   29.8780 O   0  0  0  0  0  0  0  0  0  0  0  0
  -24.3730    3.0630   28.4390 C   0  0  2  0  0  0  0  0  0  0  0  0
  -24.1810    4.1400   29.3690 O   0  0  0  0  0  0  0  0  0  0  0  0
  -24.5493    5.5894   27.7106 H   0  0  0  0  0  0  0  0  0  0  0  0
  -23.7460    5.0642   26.1922 H   0  0  0  0  0  0  0  0  0  0  0  0
  -25.4994    5.4545   26.1922 H   0  0  0  0  0  0  0  0  0  0  0  0
  -24.5639    2.9554   26.3064 H   0  0  0  0  0  0  0  0  0  0  0  0
  -26.9720    3.9470   26.4500 H   0  0  0  0  0  0  0  0  0  0  0  0
  -26.7930    3.8460   28.1030 H   0  0  0  0  0  0  0  0  0  0  0  0
  -26.8572    1.5315   26.1812 H   0  0  0  0  0  0  0  0  0  0  0  0
  -28.6052    0.8559   27.9664 H   0  0  0  0  0  0  0  0  0  0  0  0
  -28.5502    2.6755   28.3499 H   0  0  0  0  0  0  0  0  0  0  0  0
  -29.1370    2.8600   25.8960 H   0  0  0  0  0  0  0  0  0  0  0  0
  -32.9512    2.3122   26.3203 H   0  0  0  0  0  0  0  0  0  0  0  0
  -34.4940    2.8457   24.4484 H   0  0  0  0  0  0  0  0  0  0  0  0
  -33.7875    2.4876   22.0744 H   0  0  0  0  0  0  0  0  0  0  0  0
  -28.0434    0.1661   20.8678 H   0  0  0  0  0  0  0  0  0  0  0  0
  -28.8436    0.3791   18.4929 H   0  0  0  0  0  0  0  0  0  0  0  0
  -31.1245    1.2645   18.0118 H   0  0  0  0  0  0  0  0  0  0  0  0
  -32.6520    1.9539   19.8746 H   0  0  0  0  0  0  0  0  0  0  0  0
  -26.5900    0.3725   28.6237 H   0  0  0  0  0  0  0  0  0  0  0  0
  -24.9660    1.0130   26.4420 H   0  0  0  0  0  0  0  0  0  0  0  0
  -24.6705    1.3945   29.7797 H   0  0  0  0  0  0  0  0  0  0  0  0
  -26.5430    3.5070   29.3300 H   0  0  0  0  0  0  0  0  0  0  0  0
  -23.4065    2.6096   28.1737 H   0  0  0  0  0  0  0  0  0  0  0  0
  -23.2190    4.2400   29.5150 H   0  0  0  0  0  0  0  0  0  0  0  0
  1  2  1  0
  2  3  1  0
  3  4  1  0
  4  5  1  0
  5  6  1  0
  6  7  1  0
  7  8  2  0
  7  9  1  0
  9 10  2  0
 10 11  1  0
 11 12  2  0
 12 13  1  0
 13 14  2  0
 14 15  1  0
 15 16  2  0
 15 17  1  0
 17 18  2  0
 18 19  1  0
 19 20  2  0
 20 21  1  0
 21 22  2  0
  4 23  1  0
 23 24  1  0
 23 25  1  0
 25 26  1  0
 25 27  1  0
 27 28  1  0
 27  2  1  0
 14  9  1  0
 22 17  1  0
 22 13  1  0
  1 29  1  0
  1 30  1  0
  1 31  1  0
  2 32  1  6
  3 33  1  0
  3 34  1  0
  4 35  1  6
  5 36  1  0
  5 37  1  0
  6 38  1  0
 10 39  1  0
 11 40  1  0
 12 41  1  0
 18 42  1  0
 19 43  1  0
 20 44  1  0
 21 45  1  0
 23 46  1  1
 24 47  1  0
 25 48  1  1
 26 49  1  0
 27 50  1  6
 28 51  1  0
M  CHG  1   3   1
M  END
>  <meeko>  (4) 
{"is_sidechain": [false], "free_energy": -8.144, "intermolecular_energy": -10.265, "internal_energy": -0.643}

$$$$
2xii_ligand
     RDKit          3D

 51 54  0  0  0  0  0  0  0  0999 V2000
  -27.8480   -3.7130   27.6300 C   0  0  0  0  0  0  0  0  0  0  0  0
  -27.0620   -2.4120   27.5390 C   0  0  2  0  0  0  0  0  0  0  0  0
  -27.8150   -1.4670   26.6350 N   0  0  0  0  0  0  0  0  0  0  0  0
  -27.2940   -0.0330   26.7470 C   0  0  2  0  0  0  0  0  0  0  0  0
  -27.8740    0.8060   25.5880 C   0  0  0  0  0  0  0  0  0  0  0  0
  -29.3230    0.8640   25.4510 N   0  0  0  0  0  0  0  0  0  0  0  0
  -30.1190    1.9030   25.8710 C   0  0  0  0  0  0  0  0  0  0  0  0
  -29.6210    2.9830   26.1900 O   0  0  0  0  0  0  0  0  0  0  0  0
  -31.6060    1.7420   25.8930 C   0  0  0  0  0  0  0  0  0  0  0  0
  -32.3530    2.7600   25.2630 C   0  0  0  0  0  0  0  0  0  0  0  0
  -33.7590    2.7330   25.2160 C   0  0  0  0  0  0  0  0  0  0  0  0
  -34.4710    1.6890   25.8000 C   0  0  0  0  0  0  0  0  0  0  0  0
  -33.7590    0.6810   26.4290 C   0  0  0  0  0  0  0  0  0  0  0  0
  -32.3420    0.7120   26.4700 C   0  0  0  0  0  0  0  0  0  0  0  0
  -31.9350   -0.5020   27.2220 C   0  0  0  0  0  0  0  0  0  0  0  0
  -30.7990   -0.8520   27.4750 O   0  0  0  0  0  0  0  0  0  0  0  0
  -33.1600   -1.2270   27.6060 C   0  0  0  0  0  0  0  0  0  0  0  0
  -33.2890   -2.4070   28.3120 C   0  0  0  0  0  0  0  0  0  0  0  0
  -34.5850   -2.8720   28.5350 C   0  0  0  0  0  0  0  0  0  0  0  0
  -35.6970   -2.1550   28.0520 C   0  0  0  0  0  0  0  0  0  0  0  0
  -35.5330   -0.9600   27.3380 C   0  0  0  0  0  0  0  0  0  0  0  0
  -34.2470   -0.4970   27.1160 C   0  0  0  0  0  0  0  0  0  0  0  0
  -25.7390   -0.0440   26.7920 C   0  0  1  0  0  0  0  0  0  0  0  0
  -25.3050    0.0200   28.1580 O   0  0  0  0  0  0  0  0  0  0  0  0
  -25.1860   -1.3340   26.1780 C   0  0  2  0  0  0  0  0  0  0  0  0
  -25.7010   -1.4580   24.8370 O   0  0  0  0  0  0  0  0  0  0  0  0
  -25.6170   -2.5760   26.9900 C   0  0  2  0  0  0  0  0  0  0  0  0
  -25.5170   -3.7100   26.1140 O   0  0  0  0  0  0  0  0  0  0  0  0
  -28.0052   -3.9732   28.6871 H   0  0  0  0  0  0  0  0  0  0  0  0
  -28.8220   -3.5884   27.1343 H   0  0  0  0  0  0  0  0  0  0  0  0
  -27.2845   -4.5172   27.1343 H   0  0  0  0  0  0  0  0  0  0  0  0
  -26.9636   -2.0283   28.5652 H   0  0  0  0  0  0  0  0  0  0  0  0
  -28.8240   -1.4950   26.8190 H   0  0  0  0  0  0  0  0  0  0  0  0
  -27.6650   -1.7880   25.6610 H   0  0  0  0  0  0  0  0  0  0  0  0
  -27.6275    0.4391   27.6829 H   0  0  0  0  0  0  0  0  0  0  0  0
  -27.5151    1.8376   25.7180 H   0  0  0  0  0  0  0  0  0  0  0  0
  -27.5296    0.2953   24.6767 H   0  0  0  0  0  0  0  0  0  0  0  0
  -29.7650   -0.0430   25.2860 H   0  0  0  0  0  0  0  0  0  0  0  0
  -31.8199    3.6003   24.7943 H   0  0  0  0  0  0  0  0  0  0  0  0
  -34.3018    3.5462   24.7120 H   0  0  0  0  0  0  0  0  0  0  0  0
  -35.5701    1.6652   25.7629 H   0  0  0  0  0  0  0  0  0  0  0  0
  -32.4098   -2.9551   28.6816 H   0  0  0  0  0  0  0  0  0  0  0  0
  -34.7400   -3.8071   29.0931 H   0  0  0  0  0  0  0  0  0  0  0  0
  -36.7108   -2.5392   28.2382 H   0  0  0  0  0  0  0  0  0  0  0  0
  -36.4047   -0.4035   26.9631 H   0  0  0  0  0  0  0  0  0  0  0  0
  -25.3712    0.8209   26.2204 H   0  0  0  0  0  0  0  0  0  0  0  0
  -24.3570   -0.2450   28.1550 H   0  0  0  0  0  0  0  0  0  0  0  0
  -24.0873   -1.2814   26.1822 H   0  0  0  0  0  0  0  0  0  0  0  0
  -26.1700   -0.6150   24.6550 H   0  0  0  0  0  0  0  0  0  0  0  0
  -24.9659   -2.7103   27.8664 H   0  0  0  0  0  0  0  0  0  0  0  0
  -24.5750   -3.9720   26.0720 H   0  0  0  0  0  0  0  0  0  0  0  0
  1  2  1  0
  2  3  1  0
  3  4  1  0
  4  5  1  0
  5  6  1  0
  6  7  1  0
  7  8  2  0
  7  9  1  0
  9 10  2  0
 10 11  1  0
 11 12  2  0
 12 13  1  0
 13 14  2  0
 14 15  1  0
 15 16  2  0
 15 17  1  0
 17 18  2  0
 18 19  1  0
 19 20  2  0
 20 21  1  0
 21 22  2  0
  4 23  1  0
 23 24  1  0
 23 25  1  0
 25 26  1  0
 25 27  1  0
 27 28  1  0
 27  2  1  0
 14  9  1  0
 22 17  1  0
 22 13  1  0
  1 29  1  0
  1 30  1  0
  1 31  1  0
  2 32  1  1
  3 33  1  0
  3 34  1  0
  4 35  1  1
  5 36  1  0
  5 37  1  0
  6 38  1  0
 10 39  1  0
 11 40  1  0
 12 41  1  0
 18 42  1  0
 19 43  1  0
 20 44  1  0
 21 45  1  0
 23 46  1  6
 24 47  1  0
 25 48  1  6
 26 49  1  0
 27 50  1  1
 28 51  1  0
M  CHG  1   3   1
M  END
>  <meeko>  (5) 
{"is_sidechain": [false], "free_energy": -8.096, "intermolecular_energy": -9.789, "internal_energy": -1.06}

$$$$
2xii_ligand
     RDKit          3D

 51 54  0  0  0  0  0  0  0  0999 V2000
  -24.6180    4.9680   26.7230 C   0  0  0  0  0  0  0  0  0  0  0  0
  -24.9720    3.5290   27.0730 C   0  0  2  0  0  0  0  0  0  0  0  0
  -26.4730    3.4270   27.1900 N   0  0  0  0  0  0  0  0  0  0  0  0
  -26.9470    1.9720   27.2000 C   0  0  2  0  0  0  0  0  0  0  0  0
  -28.4280    1.9270   27.6370 C   0  0  0  0  0  0  0  0  0  0  0  0
  -29.4200    1.5710   26.6330 N   0  0  0  0  0  0  0  0  0  0  0  0
  -30.4870    2.3520   26.2580 C   0  0  0  0  0  0  0  0  0  0  0  0
  -30.5430    3.5360   26.5930 O   0  0  0  0  0  0  0  0  0  0  0  0
  -31.5650    1.7790   25.3940 C   0  0  0  0  0  0  0  0  0  0  0  0
  -32.0940    0.5350   25.7990 C   0  0  0  0  0  0  0  0  0  0  0  0
  -33.1080   -0.1160   25.0740 C   0  0  0  0  0  0  0  0  0  0  0  0
  -33.6290    0.4500   23.9130 C   0  0  0  0  0  0  0  0  0  0  0  0
  -33.1210    1.6690   23.4940 C   0  0  0  0  0  0  0  0  0  0  0  0
  -32.1020    2.3220   24.2310 C   0  0  0  0  0  0  0  0  0  0  0  0
  -31.8050    3.5720   23.4870 C   0  0  0  0  0  0  0  0  0  0  0  0
  -30.9920    4.4220   23.7910 O   0  0  0  0  0  0  0  0  0  0  0  0
  -32.6870    3.6150   22.3070 C   0  0  0  0  0  0  0  0  0  0  0  0
  -32.7800    4.5790   21.3220 C   0  0  0  0  0  0  0  0  0  0  0  0
  -33.7140    4.3620   20.3100 C   0  0  0  0  0  0  0  0  0  0  0  0
  -34.5170    3.2050   20.3110 C   0  0  0  0  0  0  0  0  0  0  0  0
  -34.4010    2.2440   21.3260 C   0  0  0  0  0  0  0  0  0  0  0  0
  -33.4730    2.4580   22.3320 C   0  0  0  0  0  0  0  0  0  0  0  0
  -26.0040    1.1230   28.1010 C   0  0  1  0  0  0  0  0  0  0  0  0
  -25.0240    0.4730   27.2790 O   0  0  0  0  0  0  0  0  0  0  0  0
  -25.2670    2.0110   29.1080 C   0  0  2  0  0  0  0  0  0  0  0  0
  -26.2460    2.7460   29.8700 O   0  0  0  0  0  0  0  0  0  0  0  0
  -24.3370    3.0190   28.3970 C   0  0  2  0  0  0  0  0  0  0  0  0
  -24.1030    4.0990   29.3140 O   0  0  0  0  0  0  0  0  0  0  0  0
  -24.4758    5.5460   27.6480 H   0  0  0  0  0  0  0  0  0  0  0  0
  -23.6891    4.9842   26.1341 H   0  0  0  0  0  0  0  0  0  0  0  0
  -25.4334    5.4133   26.1341 H   0  0  0  0  0  0  0  0  0  0  0  0
  -24.5655    2.8976   26.2692 H   0  0  0  0  0  0  0  0  0  0  0  0
  -26.9450    3.9500   26.4430 H   0  0  0  0  0  0  0  0  0  0  0  0
  -26.7420    3.8590   28.0930 H   0  0  0  0  0  0  0  0  0  0  0  0
  -26.8964    1.5297   26.1941 H   0  0  0  0  0  0  0  0  0  0  0  0
  -28.5077    1.1927   28.4521 H   0  0  0  0  0  0  0  0  0  0  0  0
  -28.6688    2.9652   27.9093 H   0  0  0  0  0  0  0  0  0  0  0  0
  -29.4570    0.5720   26.4150 H   0  0  0  0  0  0  0  0  0  0  0  0
  -31.7011    0.0598   26.7099 H   0  0  0  0  0  0  0  0  0  0  0  0
  -33.4941   -1.0833   25.4279 H   0  0  0  0  0  0  0  0  0  0  0  0
  -34.4223   -0.0570   23.3441 H   0  0  0  0  0  0  0  0  0  0  0  0
  -32.1456    5.4775   21.3355 H   0  0  0  0  0  0  0  0  0  0  0  0
  -33.8248    5.1014   19.5032 H   0  0  0  0  0  0  0  0  0  0  0  0
  -35.2471    3.0525   19.5025 H   0  0  0  0  0  0  0  0  0  0  0  0
  -35.0314    1.3426   21.3233 H   0  0  0  0  0  0  0  0  0  0  0  0
  -26.6156    0.3864   28.6426 H   0  0  0  0  0  0  0  0  0  0  0  0
  -24.7190    1.1500   26.6340 H   0  0  0  0  0  0  0  0  0  0  0  0
  -24.6525    1.3697   29.7569 H   0  0  0  0  0  0  0  0  0  0  0  0
  -26.2090    2.3740   30.7780 H   0  0  0  0  0  0  0  0  0  0  0  0
  -23.3866    2.5394   28.1199 H   0  0  0  0  0  0  0  0  0  0  0  0
  -23.4340    4.6910   28.9140 H   0  0  0  0  0  0  0  0  0  0  0  0
  1  2  1  0
  2  3  1  0
  3  4  1  0
  4  5  1  0
  5  6  1  0
  6  7  1  0
  7  8  2  0
  7  9  1  0
  9 10  2  0
 10 11  1  0
 11 12  2  0
 12 13  1  0
 13 14  2  0
 14 15  1  0
 15 16  2  0
 15 17  1  0
 17 18  2  0
 18 19  1  0
 19 20  2  0
 20 21  1  0
 21 22  2  0
  4 23  1  0
 23 24  1  0
 23 25  1  0
 25 26  1  0
 25 27  1  0
 27 28  1  0
 27  2  1  0
 14  9  1  0
 22 17  1  0
 22 13  1  0
  1 29  1  0
  1 30  1  0
  1 31  1  0
  2 32  1  6
  3 33  1  0
  3 34  1  0
  4 35  1  6
  5 36  1  0
  5 37  1  0
  6 38  1  0
 10 39  1  0
 11 40  1  0
 12 41  1  0
 18 42  1  0
 19 43  1  0
 20 44  1  0
 21 45  1  0
 23 46  1  1
 24 47  1  0
 25 48  1  1
 26 49  1  0
 27 50  1  6
 28 51  1  0
M  CHG  1   3   1
M  END
>  <meeko>  (6) 
{"is_sidechain": [false], "free_energy": -8.071, "intermolecular_energy": -10.55, "internal_energy": -0.267}

$$$$
2xii_ligand
     RDKit          3D

 51 54  0  0  0  0  0  0  0  0999 V2000
  -35.8640    3.0060   24.8700 C   0  0  0  0  0  0  0  0  0  0  0  0
  -34.8710    3.7810   24.0140 C   0  0  2  0  0  0  0  0  0  0  0  0
  -33.6130    2.9580   23.8880 N   0  0  0  0  0  0  0  0  0  0  0  0
  -32.6960    3.4840   22.7820 C   0  0  2  0  0  0  0  0  0  0  0  0
  -31.3100    2.8140   22.9150 C   0  0  0  0  0  0  0  0  0  0  0  0
  -31.1170    1.8680   24.0060 N   0  0  0  0  0  0  0  0  0  0  0  0
  -30.3280    2.0820   25.1110 C   0  0  0  0  0  0  0  0  0  0  0  0
  -29.9050    3.2090   25.3690 O   0  0  0  0  0  0  0  0  0  0  0  0
  -30.0220    0.9500   26.0400 C   0  0  0  0  0  0  0  0  0  0  0  0
  -28.6560    0.6890   26.2760 C   0  0  0  0  0  0  0  0  0  0  0  0
  -28.2310   -0.3500   27.1250 C   0  0  0  0  0  0  0  0  0  0  0  0
  -29.1570   -1.1700   27.7660 C   0  0  0  0  0  0  0  0  0  0  0  0
  -30.5030   -0.9340   27.5450 C   0  0  0  0  0  0  0  0  0  0  0  0
  -30.9250    0.1160   26.6910 C   0  0  0  0  0  0  0  0  0  0  0  0
  -32.4090    0.0580   26.6860 C   0  0  0  0  0  0  0  0  0  0  0  0
  -33.1620    0.7950   26.0800 O   0  0  0  0  0  0  0  0  0  0  0  0
  -32.8210   -1.0530   27.5630 C   0  0  0  0  0  0  0  0  0  0  0  0
  -34.0930   -1.4930   27.8730 C   0  0  0  0  0  0  0  0  0  0  0  0
  -34.1910   -2.5800   28.7420 C   0  0  0  0  0  0  0  0  0  0  0  0
  -33.0330   -3.1850   29.2670 C   0  0  0  0  0  0  0  0  0  0  0  0
  -31.7550   -2.7150   28.9340 C   0  0  0  0  0  0  0  0  0  0  0  0
  -31.6560   -1.6370   28.0710 C   0  0  0  0  0  0  0  0  0  0  0  0
  -32.6450    5.0380   22.8420 C   0  0  1  0  0  0  0  0  0  0  0  0
  -33.5780    5.5780   21.8970 O   0  0  0  0  0  0  0  0  0  0  0  0
  -33.0330    5.5420   24.2360 C   0  0  2  0  0  0  0  0  0  0  0  0
  -32.1620    4.9230   25.2030 O   0  0  0  0  0  0  0  0  0  0  0  0
  -34.4940    5.1780   24.5810 C   0  0  2  0  0  0  0  0  0  0  0  0
  -34.6110    5.2100   26.0120 O   0  0  0  0  0  0  0  0  0  0  0  0
  -35.6435    3.1781   25.9339 H   0  0  0  0  0  0  0  0  0  0  0  0
  -36.8854    3.3481   24.6472 H   0  0  0  0  0  0  0  0  0  0  0  0
  -35.7802    1.9321   24.6472 H   0  0  0  0  0  0  0  0  0  0  0  0
  -35.3589    3.9598   23.0445 H   0  0  0  0  0  0  0  0  0  0  0  0
  -33.8260    1.9660   23.7310 H   0  0  0  0  0  0  0  0  0  0  0  0
  -33.1060    3.0310   24.7890 H   0  0  0  0  0  0  0  0  0  0  0  0
  -33.0842    3.2240   21.7862 H   0  0  0  0  0  0  0  0  0  0  0  0
  -31.1134    2.2766   21.9756 H   0  0  0  0  0  0  0  0  0  0  0  0
  -30.6214    3.6419   23.1398 H   0  0  0  0  0  0  0  0  0  0  0  0
  -31.3700    0.9050   23.7770 H   0  0  0  0  0  0  0  0  0  0  0  0
  -27.9000    1.3166   25.7815 H   0  0  0  0  0  0  0  0  0  0  0  0
  -27.1554   -0.5165   27.2842 H   0  0  0  0  0  0  0  0  0  0  0  0
  -28.8275   -1.9830   28.4297 H   0  0  0  0  0  0  0  0  0  0  0  0
  -34.9874   -1.0087   27.4541 H   0  0  0  0  0  0  0  0  0  0  0  0
  -35.1821   -2.9680   29.0196 H   0  0  0  0  0  0  0  0  0  0  0  0
  -33.1329   -4.0413   29.9503 H   0  0  0  0  0  0  0  0  0  0  0  0
  -30.8537   -3.1907   29.3479 H   0  0  0  0  0  0  0  0  0  0  0  0
  -31.6188    5.3591   22.6098 H   0  0  0  0  0  0  0  0  0  0  0  0
  -33.0710    5.7260   21.0670 H   0  0  0  0  0  0  0  0  0  0  0  0
  -32.9358    6.6376   24.2530 H   0  0  0  0  0  0  0  0  0  0  0  0
  -31.4450    5.5740   25.3680 H   0  0  0  0  0  0  0  0  0  0  0  0
  -35.1906    5.8961   24.1237 H   0  0  0  0  0  0  0  0  0  0  0  0
  -33.7190    5.0690   26.3880 H   0  0  0  0  0  0  0  0  0  0  0  0
  1  2  1  0
  2  3  1  0
  3  4  1  0
  4  5  1  0
  5  6  1  0
  6  7  1  0
  7  8  2  0
  7  9  1  0
  9 10  2  0
 10 11  1  0
 11 12  2  0
 12 13  1  0
 13 14  2  0
 14 15  1  0
 15 16  2  0
 15 17  1  0
 17 18  2  0
 18 19  1  0
 19 20  2  0
 20 21  1  0
 21 22  2  0
  4 23  1  0
 23 24  1  0
 23 25  1  0
 25 26  1  0
 25 27  1  0
 27 28  1  0
 27  2  1  0
 14  9  1  0
 22 17  1  0
 22 13  1  0
  1 29  1  0
  1 30  1  0
  1 31  1  0
  2 32  1  6
  3 33  1  0
  3 34  1  0
  4 35  1  6
  5 36  1  0
  5 37  1  0
  6 38  1  0
 10 39  1  0
 11 40  1  0
 12 41  1  0
 18 42  1  0
 19 43  1  0
 20 44  1  0
 21 45  1  0
 23 46  1  6
 24 47  1  0
 25 48  1  6
 26 49  1  0
 27 50  1  6
 28 51  1  0
M  CHG  1   3   1
M  END
>  <meeko>  (7) 
{"is_sidechain": [false], "free_energy": -7.984, "intermolecular_energy": -9.226, "internal_energy": -1.481}

$$$$
2xii_ligand
     RDKit          3D

 51 54  0  0  0  0  0  0  0  0999 V2000
  -27.8080   -3.2090   26.9210 C   0  0  0  0  0  0  0  0  0  0  0  0
  -27.0600   -1.9210   27.2360 C   0  0  2  0  0  0  0  0  0  0  0  0
  -28.0470   -0.7800   27.2000 N   0  0  0  0  0  0  0  0  0  0  0  0
  -27.4730    0.4910   27.8290 C   0  0  2  0  0  0  0  0  0  0  0  0
  -28.3890    1.6840   27.4790 C   0  0  0  0  0  0  0  0  0  0  0  0
  -28.6750    1.9290   26.0720 N   0  0  0  0  0  0  0  0  0  0  0  0
  -29.7880    2.5770   25.5900 C   0  0  0  0  0  0  0  0  0  0  0  0
  -30.5200    3.2110   26.3490 O   0  0  0  0  0  0  0  0  0  0  0  0
  -30.0850    2.5570   24.1240 C   0  0  0  0  0  0  0  0  0  0  0  0
  -30.4920    3.7810   23.5530 C   0  0  0  0  0  0  0  0  0  0  0  0
  -30.8070    3.8990   22.1860 C   0  0  0  0  0  0  0  0  0  0  0  0
  -30.7300    2.7960   21.3400 C   0  0  0  0  0  0  0  0  0  0  0  0
  -30.3380    1.5820   21.8800 C   0  0  0  0  0  0  0  0  0  0  0  0
  -30.0190    1.4710   23.2570 C   0  0  0  0  0  0  0  0  0  0  0  0
  -29.6610    0.0460   23.4730 C   0  0  0  0  0  0  0  0  0  0  0  0
  -29.3180   -0.4660   24.5200 O   0  0  0  0  0  0  0  0  0  0  0  0
  -29.7820   -0.6510   22.1790 C   0  0  0  0  0  0  0  0  0  0  0  0
  -29.5520   -1.9790   21.8790 C   0  0  0  0  0  0  0  0  0  0  0  0
  -29.7460   -2.3720   20.5550 C   0  0  0  0  0  0  0  0  0  0  0  0
  -30.1570   -1.4390   19.5840 C   0  0  0  0  0  0  0  0  0  0  0  0
  -30.3810   -0.0960   19.9180 C   0  0  0  0  0  0  0  0  0  0  0  0
  -30.1900    0.2950   21.2330 C   0  0  0  0  0  0  0  0  0  0  0  0
  -25.9980    0.6810   27.3700 C   0  0  1  0  0  0  0  0  0  0  0  0
  -25.1190    0.1580   28.3750 O   0  0  0  0  0  0  0  0  0  0  0  0
  -25.7330   -0.0770   26.0640 C   0  0  2  0  0  0  0  0  0  0  0  0
  -26.6820    0.3710   25.0760 O   0  0  0  0  0  0  0  0  0  0  0  0
  -25.8990   -1.6010   26.2530 C   0  0  2  0  0  0  0  0  0  0  0  0
  -26.1430   -2.1640   24.9540 O   0  0  0  0  0  0  0  0  0  0  0  0
  -28.0959   -3.7048   27.8598 H   0  0  0  0  0  0  0  0  0  0  0  0
  -28.7109   -2.9754   26.3378 H   0  0  0  0  0  0  0  0  0  0  0  0
  -27.1576   -3.8775   26.3378 H   0  0  0  0  0  0  0  0  0  0  0  0
  -26.6023   -2.0541   28.2273 H   0  0  0  0  0  0  0  0  0  0  0  0
  -28.9320   -1.0340   27.6540 H   0  0  0  0  0  0  0  0  0  0  0  0
  -28.2520   -0.5820   26.2030 H   0  0  0  0  0  0  0  0  0  0  0  0
  -27.4487    0.4159   28.9262 H   0  0  0  0  0  0  0  0  0  0  0  0
  -29.3513    1.5189   27.9858 H   0  0  0  0  0  0  0  0  0  0  0  0
  -27.8270    2.5710   27.8066 H   0  0  0  0  0  0  0  0  0  0  0  0
  -28.1460    1.3380   25.4270 H   0  0  0  0  0  0  0  0  0  0  0  0
  -30.5655    4.6707   24.1957 H   0  0  0  0  0  0  0  0  0  0  0  0
  -31.1175    4.8738   21.7817 H   0  0  0  0  0  0  0  0  0  0  0  0
  -30.9739    2.8861   20.2712 H   0  0  0  0  0  0  0  0  0  0  0  0
  -29.2302   -2.6949   22.6497 H   0  0  0  0  0  0  0  0  0  0  0  0
  -29.5764   -3.4200   20.2669 H   0  0  0  0  0  0  0  0  0  0  0  0
  -30.3049   -1.7695   18.5453 H   0  0  0  0  0  0  0  0  0  0  0  0
  -30.7004    0.6290   19.1549 H   0  0  0  0  0  0  0  0  0  0  0  0
  -25.8208    1.7551   27.2125 H   0  0  0  0  0  0  0  0  0  0  0  0
  -24.9190   -0.7680   28.1070 H   0  0  0  0  0  0  0  0  0  0  0  0
  -24.6991    0.1228   25.7460 H   0  0  0  0  0  0  0  0  0  0  0  0
  -27.1160    1.1620   25.4650 H   0  0  0  0  0  0  0  0  0  0  0  0
  -24.9912   -2.0373   26.6952 H   0  0  0  0  0  0  0  0  0  0  0  0
  -26.4050   -3.0990   25.0790 H   0  0  0  0  0  0  0  0  0  0  0  0
  1  2  1  0
  2  3  1  0
  3  4  1  0
  4  5  1  0
  5  6  1  0
  6  7  1  0
  7  8  2  0
  7  9  1  0
  9 10  2  0
 10 11  1  0
 11 12  2  0
 12 13  1  0
 13 14  2  0
 14 15  1  0
 15 16  2  0
 15 17  1  0
 17 18  2  0
 18 19  1  0
 19 20  2  0
 20 21  1  0
 21 22  2  0
  4 23  1  0
 23 24  1  0
 23 25  1  0
 25 26  1  0
 25 27  1  0
 27 28  1  0
 27  2  1  0
 14  9  1  0
 22 17  1  0
 22 13  1  0
  1 29  1  0
  1 30  1  0
  1 31  1  0
  2 32  1  1
  3 33  1  0
  3 34  1  0
  4 35  1  1
  5 36  1  0
  5 37  1  0
  6 38  1  0
 10 39  1  0
 11 40  1  0
 12 41  1  0
 18 42  1  0
 19 43  1  0
 20 44  1  0
 21 45  1  0
 23 46  1  6
 24 47  1  0
 25 48  1  6
 26 49  1  0
 27 50  1  1
 28 51  1  0
M  CHG  1   3   1
M  END
>  <meeko>  (8) 
{"is_sidechain": [false], "free_energy": -7.889, "intermolecular_energy": -8.999, "internal_energy": -1.587}

$$$$
2xii_ligand
     RDKit          3D

 51 54  0  0  0  0  0  0  0  0999 V2000
  -28.4940   -3.3920   25.9700 C   0  0  0  0  0  0  0  0  0  0  0  0
  -27.4010   -2.4280   26.4110 C   0  0  2  0  0  0  0  0  0  0  0  0
  -28.0510   -1.1210   26.7930 N   0  0  0  0  0  0  0  0  0  0  0  0
  -27.0920   -0.2120   27.5630 C   0  0  2  0  0  0  0  0  0  0  0  0
  -27.6980    1.2080   27.6420 C   0  0  0  0  0  0  0  0  0  0  0  0
  -28.3160    1.7480   26.4390 N   0  0  0  0  0  0  0  0  0  0  0  0
  -29.5870    1.4580   26.0020 C   0  0  0  0  0  0  0  0  0  0  0  0
  -30.3880    0.8870   26.7420 O   0  0  0  0  0  0  0  0  0  0  0  0
  -30.0210    1.8850   24.6350 C   0  0  0  0  0  0  0  0  0  0  0  0
  -29.4350    1.1970   23.5510 C   0  0  0  0  0  0  0  0  0  0  0  0
  -29.7510    1.5020   22.2150 C   0  0  0  0  0  0  0  0  0  0  0  0
  -30.6630    2.5100   21.9120 C   0  0  0  0  0  0  0  0  0  0  0  0
  -31.2470    3.2030   22.9600 C   0  0  0  0  0  0  0  0  0  0  0  0
  -30.9260    2.8870   24.3050 C   0  0  0  0  0  0  0  0  0  0  0  0
  -31.7200    3.8270   25.1380 C   0  0  0  0  0  0  0  0  0  0  0  0
  -31.7360    3.8830   26.3510 O   0  0  0  0  0  0  0  0  0  0  0  0
  -32.5040    4.6840   24.2300 C   0  0  0  0  0  0  0  0  0  0  0  0
  -33.3860    5.7010   24.5360 C   0  0  0  0  0  0  0  0  0  0  0  0
  -33.9970    6.3520   23.4650 C   0  0  0  0  0  0  0  0  0  0  0  0
  -33.7130    5.9740   22.1390 C   0  0  0  0  0  0  0  0  0  0  0  0
  -32.8120    4.9370   21.8590 C   0  0  0  0  0  0  0  0  0  0  0  0
  -32.2040    4.2890   22.9220 C   0  0  0  0  0  0  0  0  0  0  0  0
  -25.6850   -0.2540   26.9000 C   0  0  1  0  0  0  0  0  0  0  0  0
  -24.8610   -1.1960   27.6000 O   0  0  0  0  0  0  0  0  0  0  0  0
  -25.7860   -0.7030   25.4390 C   0  0  2  0  0  0  0  0  0  0  0  0
  -26.6950    0.1810   24.7520 O   0  0  0  0  0  0  0  0  0  0  0  0
  -26.3230   -2.1470   25.3270 C   0  0  2  0  0  0  0  0  0  0  0  0
  -26.8600   -2.2990   24.0040 O   0  0  0  0  0  0  0  0  0  0  0  0
  -28.9825   -3.8228   26.8564 H   0  0  0  0  0  0  0  0  0  0  0  0
  -29.2387   -2.8512   25.3675 H   0  0  0  0  0  0  0  0  0  0  0  0
  -28.0505   -4.1984   25.3675 H   0  0  0  0  0  0  0  0  0  0  0  0
  -26.8782   -2.9034   27.2540 H   0  0  0  0  0  0  0  0  0  0  0  0
  -28.9110   -1.2720   27.3330 H   0  0  0  0  0  0  0  0  0  0  0  0
  -28.3140   -0.6390   25.9130 H   0  0  0  0  0  0  0  0  0  0  0  0
  -26.9569   -0.5618   28.5971 H   0  0  0  0  0  0  0  0  0  0  0  0
  -28.4670    1.1937   28.4284 H   0  0  0  0  0  0  0  0  0  0  0  0
  -26.8382    1.8671   27.8328 H   0  0  0  0  0  0  0  0  0  0  0  0
  -27.6540    2.1380   25.7650 H   0  0  0  0  0  0  0  0  0  0  0  0
  -28.7085    0.3973   23.7575 H   0  0  0  0  0  0  0  0  0  0  0  0
  -29.2726    0.9383   21.4005 H   0  0  0  0  0  0  0  0  0  0  0  0
  -30.9131    2.7497   20.8680 H   0  0  0  0  0  0  0  0  0  0  0  0
  -33.5972    5.9849   25.5775 H   0  0  0  0  0  0  0  0  0  0  0  0
  -34.7079    7.1689   23.6581 H   0  0  0  0  0  0  0  0  0  0  0  0
  -34.2062    6.5010   21.3089 H   0  0  0  0  0  0  0  0  0  0  0  0
  -32.5933    4.6451   20.8212 H   0  0  0  0  0  0  0  0  0  0  0  0
  -25.2520    0.7563   26.9433 H   0  0  0  0  0  0  0  0  0  0  0  0
  -24.6650   -1.9150   26.9570 H   0  0  0  0  0  0  0  0  0  0  0  0
  -24.7810   -0.6714   24.9928 H   0  0  0  0  0  0  0  0  0  0  0  0
  -27.5180    0.1830   25.2870 H   0  0  0  0  0  0  0  0  0  0  0  0
  -25.5154   -2.8742   25.4970 H   0  0  0  0  0  0  0  0  0  0  0  0
  -27.8340   -2.3320   24.0790 H   0  0  0  0  0  0  0  0  0  0  0  0
  1  2  1  0
  2  3  1  0
  3  4  1  0
  4  5  1  0
  5  6  1  0
  6  7  1  0
  7  8  2  0
  7  9  1  0
  9 10  2  0
 10 11  1  0
 11 12  2  0
 12 13  1  0
 13 14  2  0
 14 15  1  0
 15 16  2  0
 15 17  1  0
 17 18  2  0
 18 19  1  0
 19 20  2  0
 20 21  1  0
 21 22  2  0
  4 23  1  0
 23 24  1  0
 23 25  1  0
 25 26  1  0
 25 27  1  0
 27 28  1  0
 27  2  1  0
 14  9  1  0
 22 17  1  0
 22 13  1  0
  1 29  1  0
  1 30  1  0
  1 31  1  0
  2 32  1  1
  3 33  1  0
  3 34  1  0
  4 35  1  1
  5 36  1  0
  5 37  1  0
  6 38  1  0
 10 39  1  0
 11 40  1  0
 12 41  1  0
 18 42  1  0
 19 43  1  0
 20 44  1  0
 21 45  1  0
 23 46  1  6
 24 47  1  0
 25 48  1  6
 26 49  1  0
 27 50  1  1
 28 51  1  0
M  CHG  1   3   1
M  END
>  <meeko>  (9) 
{"is_sidechain": [false], "free_energy": -7.717, "intermolecular_energy": -9.666, "internal_energy": -0.704}

$$$$
