1bcu_ligand
     RDKit          3D

 28 30  0  0  0  0  0  0  0  0999 V2000
   11.5790   22.9690   46.8990 N   0  0  0  0  0  0  0  0  0  0  0  0
   10.8320   22.6730   48.0390 C   0  0  0  0  0  0  0  0  0  0  0  0
    9.8410   23.5550   48.4760 C   0  0  0  0  0  0  0  0  0  0  0  0
    8.9930   23.2220   49.5380 C   0  0  0  0  0  0  0  0  0  0  0  0
    9.0950   21.9680   50.1510 C   0  0  0  0  0  0  0  0  0  0  0  0
    8.2670   21.5870   51.2130 C   0  0  0  0  0  0  0  0  0  0  0  0
    8.3920   20.3140   51.7790 C   0  0  0  0  0  0  0  0  0  0  0  0
    7.6030   19.8930   52.8560 C   0  0  0  0  0  0  0  0  0  0  0  0
    7.7690   18.6120   53.3910 C   0  0  0  0  0  0  0  0  0  0  0  0
    8.6820   17.7110   52.8380 C   0  0  0  0  0  0  0  0  0  0  0  0
    8.9260   16.4900   53.4640 N   0  0  0  0  0  0  0  0  0  0  0  0
    9.5060   18.1430   51.7970 C   0  0  0  0  0  0  0  0  0  0  0  0
    9.3580   19.4270   51.2570 C   0  0  0  0  0  0  0  0  0  0  0  0
   10.1380   19.8360   50.2410 N   0  0  0  0  0  0  0  0  0  0  0  0
   10.0560   21.0520   49.6730 C   0  0  0  0  0  0  0  0  0  0  0  0
   10.9050   21.4030   48.6160 C   0  0  0  0  0  0  0  0  0  0  0  0
   12.5340   23.2750   47.0730 H   0  0  0  0  0  0  0  0  0  0  0  0
   11.5350   22.3010   46.1350 H   0  0  0  0  0  0  0  0  0  0  0  0
    9.7252   24.5282   47.9766 H   0  0  0  0  0  0  0  0  0  0  0  0
    8.2450   23.9469   49.8916 H   0  0  0  0  0  0  0  0  0  0  0  0
    7.5164   22.2900   51.6034 H   0  0  0  0  0  0  0  0  0  0  0  0
    6.8501   20.5721   53.2826 H   0  0  0  0  0  0  0  0  0  0  0  0
    7.1703   18.3084   54.2624 H   0  0  0  0  0  0  0  0  0  0  0  0
    8.2840   15.7390   53.2160 H   0  0  0  0  0  0  0  0  0  0  0  0
    9.8880   16.1670   53.4810 H   0  0  0  0  0  0  0  0  0  0  0  0
   10.2782   17.4692   51.3974 H   0  0  0  0  0  0  0  0  0  0  0  0
   10.8330   19.1860   49.8800 H   0  0  0  0  0  0  0  0  0  0  0  0
   11.6352   20.6727   48.2371 H   0  0  0  0  0  0  0  0  0  0  0  0
  1  2  1  0
  2  3  2  0
  3  4  1  0
  4  5  2  0
  5  6  1  0
  6  7  2  0
  7  8  1  0
  8  9  2  0
  9 10  1  0
 10 11  1  0
 10 12  2  0
 12 13  1  0
 13 14  2  0
 14 15  1  0
 15 16  2  0
 16  2  1  0
 15  5  1  0
 13  7  1  0
  1 17  1  0
  1 18  1  0
  3 19  1  0
  4 20  1  0
  6 21  1  0
  8 22  1  0
  9 23  1  0
 11 24  1  0
 11 25  1  0
 12 26  1  0
 14 27  1  0
 16 28  1  0
M  CHG  1  14   1
M  END
>  <meeko>  (1) 
{"is_sidechain": [false], "free_energy": -7.193, "intermolecular_energy": -7.613, "internal_energy": 0.0}

$$$$
1bcu_ligand
     RDKit          3D

 28 30  0  0  0  0  0  0  0  0999 V2000
    8.9010   16.4190   53.4760 N   0  0  0  0  0  0  0  0  0  0  0  0
    8.6560   17.6400   52.8490 C   0  0  0  0  0  0  0  0  0  0  0  0
    7.7290   18.5330   53.3910 C   0  0  0  0  0  0  0  0  0  0  0  0
    7.5610   19.8150   52.8560 C   0  0  0  0  0  0  0  0  0  0  0  0
    8.3610   20.2410   51.7890 C   0  0  0  0  0  0  0  0  0  0  0  0
    8.2330   21.5150   51.2230 C   0  0  0  0  0  0  0  0  0  0  0  0
    9.0710   21.9030   50.1720 C   0  0  0  0  0  0  0  0  0  0  0  0
    8.9690   23.1570   49.5590 C   0  0  0  0  0  0  0  0  0  0  0  0
    9.8260   23.4970   48.5080 C   0  0  0  0  0  0  0  0  0  0  0  0
   10.8290   22.6240   48.0820 C   0  0  0  0  0  0  0  0  0  0  0  0
   11.5860   22.9260   46.9520 N   0  0  0  0  0  0  0  0  0  0  0  0
   10.9030   21.3530   48.6580 C   0  0  0  0  0  0  0  0  0  0  0  0
   10.0440   20.9950   49.7040 C   0  0  0  0  0  0  0  0  0  0  0  0
   10.1280   19.7790   50.2720 N   0  0  0  0  0  0  0  0  0  0  0  0
    9.3390   19.3620   51.2780 C   0  0  0  0  0  0  0  0  0  0  0  0
    9.4890   18.0790   51.8170 C   0  0  0  0  0  0  0  0  0  0  0  0
    9.8490   16.0610   53.3740 H   0  0  0  0  0  0  0  0  0  0  0  0
    8.5640   16.3170   54.4290 H   0  0  0  0  0  0  0  0  0  0  0  0
    7.1204   18.2232   54.2534 H   0  0  0  0  0  0  0  0  0  0  0  0
    6.7992   20.4892   53.2744 H   0  0  0  0  0  0  0  0  0  0  0  0
    7.4725   22.2119   51.6051 H   0  0  0  0  0  0  0  0  0  0  0  0
    8.2127   23.8769   49.9050 H   0  0  0  0  0  0  0  0  0  0  0  0
    9.7080   24.4696   48.0078 H   0  0  0  0  0  0  0  0  0  0  0  0
   11.8260   22.1290   46.3640 H   0  0  0  0  0  0  0  0  0  0  0  0
   11.2860   23.7190   46.3960 H   0  0  0  0  0  0  0  0  0  0  0  0
   11.6421   20.6279   48.2866 H   0  0  0  0  0  0  0  0  0  0  0  0
   10.8320   19.1340   49.9190 H   0  0  0  0  0  0  0  0  0  0  0  0
   10.2695   17.4106   51.4246 H   0  0  0  0  0  0  0  0  0  0  0  0
  1  2  1  0
  2  3  2  0
  3  4  1  0
  4  5  2  0
  5  6  1  0
  6  7  2  0
  7  8  1  0
  8  9  2  0
  9 10  1  0
 10 11  1  0
 10 12  2  0
 12 13  1  0
 13 14  2  0
 14 15  1  0
 15 16  2  0
 16  2  1  0
 15  5  1  0
 13  7  1  0
  1 17  1  0
  1 18  1  0
  3 19  1  0
  4 20  1  0
  6 21  1  0
  8 22  1  0
  9 23  1  0
 11 24  1  0
 11 25  1  0
 12 26  1  0
 14 27  1  0
 16 28  1  0
M  CHG  1  14   1
M  END
>  <meeko>  (2) 
{"is_sidechain": [false], "free_energy": -7.169, "intermolecular_energy": -7.588, "internal_energy": 0.0}

$$$$
1bcu_ligand
     RDKit          3D

 28 30  0  0  0  0  0  0  0  0999 V2000
   10.2240   25.1490   46.7600 N   0  0  0  0  0  0  0  0  0  0  0  0
   10.1650   23.9200   47.4140 C   0  0  0  0  0  0  0  0  0  0  0  0
   11.0550   22.8990   47.0710 C   0  0  0  0  0  0  0  0  0  0  0  0
   11.1020   21.7050   47.7980 C   0  0  0  0  0  0  0  0  0  0  0  0
   10.2850   21.5340   48.9210 C   0  0  0  0  0  0  0  0  0  0  0  0
   10.3000   20.3600   49.6830 C   0  0  0  0  0  0  0  0  0  0  0  0
    9.4790   20.2450   50.8100 C   0  0  0  0  0  0  0  0  0  0  0  0
    9.4410   19.0850   51.5920 C   0  0  0  0  0  0  0  0  0  0  0  0
    8.6010   19.0150   52.7070 C   0  0  0  0  0  0  0  0  0  0  0  0
    7.8230   20.1090   53.0950 C   0  0  0  0  0  0  0  0  0  0  0  0
    6.8970   19.9770   54.1280 N   0  0  0  0  0  0  0  0  0  0  0  0
    7.8190   21.2500   52.2900 C   0  0  0  0  0  0  0  0  0  0  0  0
    8.6490   21.3300   51.1640 C   0  0  0  0  0  0  0  0  0  0  0  0
    8.6600   22.4370   50.4000 N   0  0  0  0  0  0  0  0  0  0  0  0
    9.4270   22.5860   49.3060 C   0  0  0  0  0  0  0  0  0  0  0  0
    9.3830   23.7720   48.5620 C   0  0  0  0  0  0  0  0  0  0  0  0
   10.1670   25.1030   45.7440 H   0  0  0  0  0  0  0  0  0  0  0  0
    9.6460   25.8960   47.1320 H   0  0  0  0  0  0  0  0  0  0  0  0
   11.7307   23.0366   46.2140 H   0  0  0  0  0  0  0  0  0  0  0  0
   11.7825   20.8989   47.4863 H   0  0  0  0  0  0  0  0  0  0  0  0
   10.9581   19.5268   49.3954 H   0  0  0  0  0  0  0  0  0  0  0  0
   10.0745   18.2253   51.3282 H   0  0  0  0  0  0  0  0  0  0  0  0
    8.5515   18.0829   53.2890 H   0  0  0  0  0  0  0  0  0  0  0  0
    6.8850   20.7430   54.8000 H   0  0  0  0  0  0  0  0  0  0  0  0
    5.9570   19.6960   53.8690 H   0  0  0  0  0  0  0  0  0  0  0  0
    7.1588   22.0930   52.5420 H   0  0  0  0  0  0  0  0  0  0  0  0
    8.0520   23.2070   50.6670 H   0  0  0  0  0  0  0  0  0  0  0  0
    8.7270   24.5939   48.8845 H   0  0  0  0  0  0  0  0  0  0  0  0
  1  2  1  0
  2  3  2  0
  3  4  1  0
  4  5  2  0
  5  6  1  0
  6  7  2  0
  7  8  1  0
  8  9  2  0
  9 10  1  0
 10 11  1  0
 10 12  2  0
 12 13  1  0
 13 14  2  0
 14 15  1  0
 15 16  2  0
 16  2  1  0
 15  5  1  0
 13  7  1  0
  1 17  1  0
  1 18  1  0
  3 19  1  0
  4 20  1  0
  6 21  1  0
  8 22  1  0
  9 23  1  0
 11 24  1  0
 11 25  1  0
 12 26  1  0
 14 27  1  0
 16 28  1  0
M  CHG  1  14   1
M  END
>  <meeko>  (3) 
{"is_sidechain": [false], "free_energy": -6.987, "intermolecular_energy": -7.396, "internal_energy": 0.0}

$$$$
1bcu_ligand
     RDKit          3D

 28 30  0  0  0  0  0  0  0  0999 V2000
    6.8590   19.9970   54.1360 N   0  0  0  0  0  0  0  0  0  0  0  0
    7.7900   20.1290   53.1060 C   0  0  0  0  0  0  0  0  0  0  0  0
    8.5640   19.0330   52.7160 C   0  0  0  0  0  0  0  0  0  0  0  0
    9.4100   19.1030   51.6050 C   0  0  0  0  0  0  0  0  0  0  0  0
    9.4570   20.2690   50.8310 C   0  0  0  0  0  0  0  0  0  0  0  0
   10.2840   20.3850   49.7080 C   0  0  0  0  0  0  0  0  0  0  0  0
   10.2800   21.5640   48.9530 C   0  0  0  0  0  0  0  0  0  0  0  0
   11.1040   21.7380   47.8350 C   0  0  0  0  0  0  0  0  0  0  0  0
   11.0680   22.9360   47.1150 C   0  0  0  0  0  0  0  0  0  0  0  0
   10.1830   23.9600   47.4600 C   0  0  0  0  0  0  0  0  0  0  0  0
   10.2530   25.1930   46.8150 N   0  0  0  0  0  0  0  0  0  0  0  0
    9.3960   23.8110   48.6040 C   0  0  0  0  0  0  0  0  0  0  0  0
    9.4280   22.6190   49.3410 C   0  0  0  0  0  0  0  0  0  0  0  0
    8.6560   22.4690   50.4310 N   0  0  0  0  0  0  0  0  0  0  0  0
    8.6330   21.3570   51.1880 C   0  0  0  0  0  0  0  0  0  0  0  0
    7.7990   21.2760   52.3100 C   0  0  0  0  0  0  0  0  0  0  0  0
    6.1120   20.6890   54.1360 H   0  0  0  0  0  0  0  0  0  0  0  0
    6.5030   19.0630   54.3160 H   0  0  0  0  0  0  0  0  0  0  0  0
    8.5067   18.0984   53.2933 H   0  0  0  0  0  0  0  0  0  0  0  0
   10.0394   18.2411   51.3386 H   0  0  0  0  0  0  0  0  0  0  0  0
   10.9377   19.5491   49.4183 H   0  0  0  0  0  0  0  0  0  0  0  0
   11.7817   20.9301   47.5220 H   0  0  0  0  0  0  0  0  0  0  0  0
   11.7485   23.0745   46.2620 H   0  0  0  0  0  0  0  0  0  0  0  0
    9.3750   25.7070   46.7630 H   0  0  0  0  0  0  0  0  0  0  0  0
   11.0250   25.8010   47.0690 H   0  0  0  0  0  0  0  0  0  0  0  0
    8.7454   24.6361   48.9296 H   0  0  0  0  0  0  0  0  0  0  0  0
    8.0510   23.2410   50.6990 H   0  0  0  0  0  0  0  0  0  0  0  0
    7.1456   22.1230   52.5663 H   0  0  0  0  0  0  0  0  0  0  0  0
  1  2  1  0
  2  3  2  0
  3  4  1  0
  4  5  2  0
  5  6  1  0
  6  7  2  0
  7  8  1  0
  8  9  2  0
  9 10  1  0
 10 11  1  0
 10 12  2  0
 12 13  1  0
 13 14  2  0
 14 15  1  0
 15 16  2  0
 16  2  1  0
 15  5  1  0
 13  7  1  0
  1 17  1  0
  1 18  1  0
  3 19  1  0
  4 20  1  0
  6 21  1  0
  8 22  1  0
  9 23  1  0
 11 24  1  0
 11 25  1  0
 12 26  1  0
 14 27  1  0
 16 28  1  0
M  CHG  1  14   1
M  END
>  <meeko>  (4) 
{"is_sidechain": [false], "free_energy": -6.973, "intermolecular_energy": -7.381, "internal_energy": 0.0}

$$$$
1bcu_ligand
     RDKit          3D

 28 30  0  0  0  0  0  0  0  0999 V2000
   10.2360   23.7770   47.7980 N   0  0  0  0  0  0  0  0  0  0  0  0
    9.9010   22.7050   48.6260 C   0  0  0  0  0  0  0  0  0  0  0  0
   10.6870   21.5510   48.6310 C   0  0  0  0  0  0  0  0  0  0  0  0
   10.4490   20.5170   49.5430 C   0  0  0  0  0  0  0  0  0  0  0  0
    9.4400   20.6470   50.5040 C   0  0  0  0  0  0  0  0  0  0  0  0
    9.1680   19.6430   51.4400 C   0  0  0  0  0  0  0  0  0  0  0  0
    8.1620   19.8280   52.3950 C   0  0  0  0  0  0  0  0  0  0  0  0
    7.8370   18.8470   53.3380 C   0  0  0  0  0  0  0  0  0  0  0  0
    6.8210   19.0770   54.2710 C   0  0  0  0  0  0  0  0  0  0  0  0
    6.1460   20.2990   54.3170 C   0  0  0  0  0  0  0  0  0  0  0  0
    5.0520   20.4620   55.1640 N   0  0  0  0  0  0  0  0  0  0  0  0
    6.4330   21.2620   53.3470 C   0  0  0  0  0  0  0  0  0  0  0  0
    7.4420   21.0410   52.4010 C   0  0  0  0  0  0  0  0  0  0  0  0
    7.7310   21.9770   51.4790 N   0  0  0  0  0  0  0  0  0  0  0  0
    8.6830   21.8370   50.5390 C   0  0  0  0  0  0  0  0  0  0  0  0
    8.9260   22.8600   49.6140 C   0  0  0  0  0  0  0  0  0  0  0  0
   11.0940   23.6590   47.2620 H   0  0  0  0  0  0  0  0  0  0  0  0
    9.4910   24.1680   47.2290 H   0  0  0  0  0  0  0  0  0  0  0  0
   11.5077   21.4531   47.9052 H   0  0  0  0  0  0  0  0  0  0  0  0
   11.0559   19.6004   49.5046 H   0  0  0  0  0  0  0  0  0  0  0  0
    9.7457   18.7071   51.4251 H   0  0  0  0  0  0  0  0  0  0  0  0
    8.3824   17.8917   53.3456 H   0  0  0  0  0  0  0  0  0  0  0  0
    6.5487   18.2820   54.9808 H   0  0  0  0  0  0  0  0  0  0  0  0
    4.4780   21.2840   54.9790 H   0  0  0  0  0  0  0  0  0  0  0  0
    4.4800   19.6420   55.3390 H   0  0  0  0  0  0  0  0  0  0  0  0
    5.8619   22.2019   53.3258 H   0  0  0  0  0  0  0  0  0  0  0  0
    7.1980   22.8430   51.4940 H   0  0  0  0  0  0  0  0  0  0  0  0
    8.3447   23.7924   49.6659 H   0  0  0  0  0  0  0  0  0  0  0  0
  1  2  1  0
  2  3  2  0
  3  4  1  0
  4  5  2  0
  5  6  1  0
  6  7  2  0
  7  8  1  0
  8  9  2  0
  9 10  1  0
 10 11  1  0
 10 12  2  0
 12 13  1  0
 13 14  2  0
 14 15  1  0
 15 16  2  0
 16  2  1  0
 15  5  1  0
 13  7  1  0
  1 17  1  0
  1 18  1  0
  3 19  1  0
  4 20  1  0
  6 21  1  0
  8 22  1  0
  9 23  1  0
 11 24  1  0
 11 25  1  0
 12 26  1  0
 14 27  1  0
 16 28  1  0
M  CHG  1  14   1
M  END
>  <meeko>  (5) 
{"is_sidechain": [false], "free_energy": -6.38, "intermolecular_energy": -6.753, "internal_energy": 0.0}

$$$$
1bcu_ligand
     RDKit          3D

 28 30  0  0  0  0  0  0  0  0999 V2000
    9.9870   14.9730   51.1390 N   0  0  0  0  0  0  0  0  0  0  0  0
    9.6780   16.3260   51.2790 C   0  0  0  0  0  0  0  0  0  0  0  0
    9.3300   16.8400   52.5300 C   0  0  0  0  0  0  0  0  0  0  0  0
    9.1420   18.2120   52.7220 C   0  0  0  0  0  0  0  0  0  0  0  0
    9.3500   19.1050   51.6640 C   0  0  0  0  0  0  0  0  0  0  0  0
    9.1800   20.4860   51.8080 C   0  0  0  0  0  0  0  0  0  0  0  0
    9.4200   21.3400   50.7260 C   0  0  0  0  0  0  0  0  0  0  0  0
    9.2440   22.7250   50.8130 C   0  0  0  0  0  0  0  0  0  0  0  0
    9.4930   23.5370   49.7020 C   0  0  0  0  0  0  0  0  0  0  0  0
    9.9670   22.9960   48.5040 C   0  0  0  0  0  0  0  0  0  0  0  0
   10.0840   23.8000   47.3720 N   0  0  0  0  0  0  0  0  0  0  0  0
   10.0970   21.6100   48.3970 C   0  0  0  0  0  0  0  0  0  0  0  0
    9.8420   20.7840   49.4990 C   0  0  0  0  0  0  0  0  0  0  0  0
    9.9860   19.4510   49.4020 N   0  0  0  0  0  0  0  0  0  0  0  0
    9.7590   18.5940   50.4140 C   0  0  0  0  0  0  0  0  0  0  0  0
    9.9330   17.2160   50.2330 C   0  0  0  0  0  0  0  0  0  0  0  0
   10.8790   14.7770   50.6900 H   0  0  0  0  0  0  0  0  0  0  0  0
    9.8400   14.3820   51.9520 H   0  0  0  0  0  0  0  0  0  0  0  0
    9.2015   16.1531   53.3795 H   0  0  0  0  0  0  0  0  0  0  0  0
    8.8300   18.5907   53.7065 H   0  0  0  0  0  0  0  0  0  0  0  0
    8.8569   20.9014   52.7739 H   0  0  0  0  0  0  0  0  0  0  0  0
    8.9087   23.1768   51.7582 H   0  0  0  0  0  0  0  0  0  0  0  0
    9.3127   24.6198   49.7724 H   0  0  0  0  0  0  0  0  0  0  0  0
    9.6000   23.4560   46.5440 H   0  0  0  0  0  0  0  0  0  0  0  0
    9.9400   24.7970   47.4990 H   0  0  0  0  0  0  0  0  0  0  0  0
   10.4022   21.1631   47.4393 H   0  0  0  0  0  0  0  0  0  0  0  0
   10.2860   19.0660   48.5090 H   0  0  0  0  0  0  0  0  0  0  0  0
   10.2730   16.8318   49.2600 H   0  0  0  0  0  0  0  0  0  0  0  0
  1  2  1  0
  2  3  2  0
  3  4  1  0
  4  5  2  0
  5  6  1  0
  6  7  2  0
  7  8  1  0
  8  9  2  0
  9 10  1  0
 10 11  1  0
 10 12  2  0
 12 13  1  0
 13 14  2  0
 14 15  1  0
 15 16  2  0
 16  2  1  0
 15  5  1  0
 13  7  1  0
  1 17  1  0
  1 18  1  0
  3 19  1  0
  4 20  1  0
  6 21  1  0
  8 22  1  0
  9 23  1  0
 11 24  1  0
 11 25  1  0
 12 26  1  0
 14 27  1  0
 16 28  1  0
M  CHG  1  14   1
M  END
>  <meeko>  (6) 
{"is_sidechain": [false], "free_energy": -5.976, "intermolecular_energy": -6.325, "internal_energy": 0.0}

$$$$
1bcu_ligand
     RDKit          3D

 28 30  0  0  0  0  0  0  0  0999 V2000
    8.0650   15.6850   53.9410 N   0  0  0  0  0  0  0  0  0  0  0  0
    8.7330   16.6010   53.1290 C   0  0  0  0  0  0  0  0  0  0  0  0
    9.8260   16.1910   52.3630 C   0  0  0  0  0  0  0  0  0  0  0  0
   10.4310   17.0550   51.4440 C   0  0  0  0  0  0  0  0  0  0  0  0
    9.9140   18.3410   51.2430 C   0  0  0  0  0  0  0  0  0  0  0  0
   10.4820   19.2390   50.3330 C   0  0  0  0  0  0  0  0  0  0  0  0
    9.9160   20.5060   50.1520 C   0  0  0  0  0  0  0  0  0  0  0  0
   10.4580   21.4480   49.2700 C   0  0  0  0  0  0  0  0  0  0  0  0
    9.8580   22.7030   49.1270 C   0  0  0  0  0  0  0  0  0  0  0  0
    8.6870   23.0270   49.8150 C   0  0  0  0  0  0  0  0  0  0  0  0
    8.1790   24.3230   49.7590 N   0  0  0  0  0  0  0  0  0  0  0  0
    8.1700   22.1090   50.7320 C   0  0  0  0  0  0  0  0  0  0  0  0
    8.7660   20.8520   50.8940 C   0  0  0  0  0  0  0  0  0  0  0  0
    8.2570   19.9610   51.7630 N   0  0  0  0  0  0  0  0  0  0  0  0
    8.7740   18.7370   51.9730 C   0  0  0  0  0  0  0  0  0  0  0  0
    8.1840   17.8640   52.8970 C   0  0  0  0  0  0  0  0  0  0  0  0
    8.5680   15.4000   54.7790 H   0  0  0  0  0  0  0  0  0  0  0  0
    7.0870   15.8750   54.1390 H   0  0  0  0  0  0  0  0  0  0  0  0
   10.2183   15.1705   52.4843 H   0  0  0  0  0  0  0  0  0  0  0  0
   11.3143   16.7237   50.8783 H   0  0  0  0  0  0  0  0  0  0  0  0
   11.3745   18.9489   49.7591 H   0  0  0  0  0  0  0  0  0  0  0  0
   11.3580   21.2005   48.6880 H   0  0  0  0  0  0  0  0  0  0  0  0
   10.3168   23.4483   48.4606 H   0  0  0  0  0  0  0  0  0  0  0  0
    8.7970   25.0470   50.1230 H   0  0  0  0  0  0  0  0  0  0  0  0
    7.7440   24.6100   48.8890 H   0  0  0  0  0  0  0  0  0  0  0  0
    7.2874   22.3755   51.3319 H   0  0  0  0  0  0  0  0  0  0  0  0
    7.4310   20.2280   52.2930 H   0  0  0  0  0  0  0  0  0  0  0  0
    7.2818   18.1759   53.4436 H   0  0  0  0  0  0  0  0  0  0  0  0
  1  2  1  0
  2  3  2  0
  3  4  1  0
  4  5  2  0
  5  6  1  0
  6  7  2  0
  7  8  1  0
  8  9  2  0
  9 10  1  0
 10 11  1  0
 10 12  2  0
 12 13  1  0
 13 14  2  0
 14 15  1  0
 15 16  2  0
 16  2  1  0
 15  5  1  0
 13  7  1  0
  1 17  1  0
  1 18  1  0
  3 19  1  0
  4 20  1  0
  6 21  1  0
  8 22  1  0
  9 23  1  0
 11 24  1  0
 11 25  1  0
 12 26  1  0
 14 27  1  0
 16 28  1  0
M  CHG  1  14   1
M  END
>  <meeko>  (7) 
{"is_sidechain": [false], "free_energy": -5.329, "intermolecular_energy": -5.641, "internal_energy": 0.0}

$$$$
1bcu_ligand
     RDKit          3D

 28 30  0  0  0  0  0  0  0  0999 V2000
    5.2840   14.9750   50.9940 N   0  0  0  0  0  0  0  0  0  0  0  0
    6.3170   15.8720   50.7230 C   0  0  0  0  0  0  0  0  0  0  0  0
    7.5250   15.4100   50.1950 C   0  0  0  0  0  0  0  0  0  0  0  0
    8.5270   16.3000   49.7940 C   0  0  0  0  0  0  0  0  0  0  0  0
    8.3120   17.6810   49.8720 C   0  0  0  0  0  0  0  0  0  0  0  0
    9.2820   18.6100   49.4790 C   0  0  0  0  0  0  0  0  0  0  0  0
    9.0120   19.9810   49.5550 C   0  0  0  0  0  0  0  0  0  0  0  0
    9.9550   20.9500   49.1950 C   0  0  0  0  0  0  0  0  0  0  0  0
    9.6400   22.3090   49.2930 C   0  0  0  0  0  0  0  0  0  0  0  0
    8.3710   22.7290   49.7010 C   0  0  0  0  0  0  0  0  0  0  0  0
    8.1190   24.0820   49.9180 N   0  0  0  0  0  0  0  0  0  0  0  0
    7.4440   21.7670   50.1090 C   0  0  0  0  0  0  0  0  0  0  0  0
    7.7500   20.4030   50.0260 C   0  0  0  0  0  0  0  0  0  0  0  0
    6.8500   19.4760   50.4000 N   0  0  0  0  0  0  0  0  0  0  0  0
    7.0710   18.1510   50.3500 C   0  0  0  0  0  0  0  0  0  0  0  0
    6.0800   17.2480   50.7570 C   0  0  0  0  0  0  0  0  0  0  0  0
    5.4730   14.3080   51.7390 H   0  0  0  0  0  0  0  0  0  0  0  0
    4.3480   15.3620   51.0680 H   0  0  0  0  0  0  0  0  0  0  0  0
    7.6912   14.3274   50.0928 H   0  0  0  0  0  0  0  0  0  0  0  0
    9.4855   15.9140   49.4167 H   0  0  0  0  0  0  0  0  0  0  0  0
   10.2580   18.2621   49.1098 H   0  0  0  0  0  0  0  0  0  0  0  0
   10.9472   20.6419   48.8338 H   0  0  0  0  0  0  0  0  0  0  0  0
   10.4041   23.0603   49.0447 H   0  0  0  0  0  0  0  0  0  0  0  0
    8.0810   24.3650   50.8960 H   0  0  0  0  0  0  0  0  0  0  0  0
    8.6490   24.7430   49.3610 H   0  0  0  0  0  0  0  0  0  0  0  0
    6.4653   22.0836   50.4988 H   0  0  0  0  0  0  0  0  0  0  0  0
    5.9470   19.7980   50.7410 H   0  0  0  0  0  0  0  0  0  0  0  0
    5.1077   17.6258   51.1061 H   0  0  0  0  0  0  0  0  0  0  0  0
  1  2  1  0
  2  3  2  0
  3  4  1  0
  4  5  2  0
  5  6  1  0
  6  7  2  0
  7  8  1  0
  8  9  2  0
  9 10  1  0
 10 11  1  0
 10 12  2  0
 12 13  1  0
 13 14  2  0
 14 15  1  0
 15 16  2  0
 16  2  1  0
 15  5  1  0
 13  7  1  0
  1 17  1  0
  1 18  1  0
  3 19  1  0
  4 20  1  0
  6 21  1  0
  8 22  1  0
  9 23  1  0
 11 24  1  0
 11 25  1  0
 12 26  1  0
 14 27  1  0
 16 28  1  0
M  CHG  1  14   1
M  END
>  <meeko>  (8) 
{"is_sidechain": [false], "free_energy": -5.284, "intermolecular_energy": -5.592, "internal_energy": 0.0}

$$$$
1bcu_ligand
     RDKit          3D

 28 30  0  0  0  0  0  0  0  0999 V2000
   12.4320   15.9730   52.9960 N   0  0  0  0  0  0  0  0  0  0  0  0
   11.3820   16.3700   52.1690 C   0  0  0  0  0  0  0  0  0  0  0  0
   10.7800   15.4490   51.3090 C   0  0  0  0  0  0  0  0  0  0  0  0
    9.6440   15.7880   50.5660 C   0  0  0  0  0  0  0  0  0  0  0  0
    9.0600   17.0510   50.7130 C   0  0  0  0  0  0  0  0  0  0  0  0
    7.9210   17.4340   49.9950 C   0  0  0  0  0  0  0  0  0  0  0  0
    7.3610   18.7010   50.1930 C   0  0  0  0  0  0  0  0  0  0  0  0
    6.2350   19.1390   49.4850 C   0  0  0  0  0  0  0  0  0  0  0  0
    5.7150   20.4160   49.7130 C   0  0  0  0  0  0  0  0  0  0  0  0
    6.2680   21.2600   50.6800 C   0  0  0  0  0  0  0  0  0  0  0  0
    5.8190   22.5730   50.8010 N   0  0  0  0  0  0  0  0  0  0  0  0
    7.4200   20.8470   51.3530 C   0  0  0  0  0  0  0  0  0  0  0  0
    7.9580   19.5730   51.1270 C   0  0  0  0  0  0  0  0  0  0  0  0
    9.0560   19.1680   51.7890 N   0  0  0  0  0  0  0  0  0  0  0  0
    9.6310   17.9640   51.6250 C   0  0  0  0  0  0  0  0  0  0  0  0
   10.7740   17.6140   52.3550 C   0  0  0  0  0  0  0  0  0  0  0  0
   12.1530   15.5320   53.8710 H   0  0  0  0  0  0  0  0  0  0  0  0
   13.2000   15.4760   52.5560 H   0  0  0  0  0  0  0  0  0  0  0  0
   11.2064   14.4395   51.2141 H   0  0  0  0  0  0  0  0  0  0  0  0
    9.2092   15.0603   49.8650 H   0  0  0  0  0  0  0  0  0  0  0  0
    7.4658   16.7384   49.2746 H   0  0  0  0  0  0  0  0  0  0  0  0
    5.7586   18.4763   48.7475 H   0  0  0  0  0  0  0  0  0  0  0  0
    4.8553   20.7629   49.1209 H   0  0  0  0  0  0  0  0  0  0  0  0
    6.5510   23.2770   50.8830 H   0  0  0  0  0  0  0  0  0  0  0  0
    5.0890   22.8700   50.1620 H   0  0  0  0  0  0  0  0  0  0  0  0
    7.9088   21.5271   52.0661 H   0  0  0  0  0  0  0  0  0  0  0  0
    9.4770   19.8120   52.4550 H   0  0  0  0  0  0  0  0  0  0  0  0
   11.1964   18.3245   53.0808 H   0  0  0  0  0  0  0  0  0  0  0  0
  1  2  1  0
  2  3  2  0
  3  4  1  0
  4  5  2  0
  5  6  1  0
  6  7  2  0
  7  8  1  0
  8  9  2  0
  9 10  1  0
 10 11  1  0
 10 12  2  0
 12 13  1  0
 13 14  2  0
 14 15  1  0
 15 16  2  0
 16  2  1  0
 15  5  1  0
 13  7  1  0
  1 17  1  0
  1 18  1  0
  3 19  1  0
  4 20  1  0
  6 21  1  0
  8 22  1  0
  9 23  1  0
 11 24  1  0
 11 25  1  0
 12 26  1  0
 14 27  1  0
 16 28  1  0
M  CHG  1  14   1
M  END
>  <meeko>  (9) 
{"is_sidechain": [false], "free_energy": -5.147, "intermolecular_energy": -5.448, "internal_energy": 0.0}

$$$$
