3nq9_ligand
     RDKit          3D

 25 24  0  0  0  0  0  0  0  0999 V2000
   -7.9610   -6.8150  -18.9190 C   0  0  0  0  0  0  0  0  0  0  0  0
   -8.5130   -7.1670  -17.5470 C   0  0  0  0  0  0  0  0  0  0  0  0
   -9.9100   -7.7940  -17.5930 C   0  0  0  0  0  0  0  0  0  0  0  0
  -10.0070   -8.9770  -18.5590 C   0  0  0  0  0  0  0  0  0  0  0  0
  -11.4490   -9.4120  -18.8400 C   0  0  0  0  0  0  0  0  0  0  0  0
  -11.5430  -10.6790  -19.6990 C   0  0  0  0  0  0  0  0  0  0  0  0
  -12.9210  -11.3310  -19.6160 C   0  0  0  0  0  0  0  0  0  0  0  0
  -13.0890  -12.6680  -20.3440 C   0  0  0  0  0  0  0  0  0  0  0  0
  -12.0820  -13.4290  -20.3580 O   0  0  0  0  0  0  0  0  0  0  0  0
  -14.2390  -12.8510  -20.8370 O   0  0  0  0  0  0  0  0  0  0  0  0
   -7.0387   -6.2268  -18.8033 H   0  0  0  0  0  0  0  0  0  0  0  0
   -7.7396   -7.7390  -19.4732 H   0  0  0  0  0  0  0  0  0  0  0  0
   -8.7054   -6.2244  -19.4732 H   0  0  0  0  0  0  0  0  0  0  0  0
   -7.8266   -7.8808  -17.0681 H   0  0  0  0  0  0  0  0  0  0  0  0
   -8.5985   -6.2272  -16.9817 H   0  0  0  0  0  0  0  0  0  0  0  0
  -10.1695   -8.1447  -16.5832 H   0  0  0  0  0  0  0  0  0  0  0  0
  -10.6045   -7.0202  -17.9521 H   0  0  0  0  0  0  0  0  0  0  0  0
   -9.5369   -8.6900  -19.5111 H   0  0  0  0  0  0  0  0  0  0  0  0
   -9.4960   -9.8280  -18.0850 H   0  0  0  0  0  0  0  0  0  0  0  0
  -11.9496   -9.6033  -17.8794 H   0  0  0  0  0  0  0  0  0  0  0  0
  -11.9309   -8.5994  -19.4034 H   0  0  0  0  0  0  0  0  0  0  0  0
  -11.3397  -10.4126  -20.7467 H   0  0  0  0  0  0  0  0  0  0  0  0
  -10.8046  -11.4003  -19.3188 H   0  0  0  0  0  0  0  0  0  0  0  0
  -13.1481  -11.4985  -18.5528 H   0  0  0  0  0  0  0  0  0  0  0  0
  -13.6038  -10.6346  -20.1246 H   0  0  0  0  0  0  0  0  0  0  0  0
  1  2  1  0
  2  3  1  0
  3  4  1  0
  4  5  1  0
  5  6  1  0
  6  7  1  0
  7  8  1  0
  8  9  2  0
  8 10  1  0
  1 11  1  0
  1 12  1  0
  1 13  1  0
  2 14  1  0
  2 15  1  0
  3 16  1  0
  3 17  1  0
  4 18  1  0
  4 19  1  0
  5 20  1  0
  5 21  1  0
  6 22  1  0
  6 23  1  0
  7 24  1  0
  7 25  1  0
M  CHG  1  10  -1
M  END
>  <meeko>  (1) 
{"is_sidechain": [false], "free_energy": -4.95, "intermolecular_energy": -6.686, "internal_energy": -0.126}

$$$$
3nq9_ligand
     RDKit          3D

 25 24  0  0  0  0  0  0  0  0999 V2000
  -13.2470  -11.9110  -19.6730 C   0  0  0  0  0  0  0  0  0  0  0  0
  -12.0160  -11.0850  -20.0150 C   0  0  0  0  0  0  0  0  0  0  0  0
  -11.8470   -9.8470  -19.1290 C   0  0  0  0  0  0  0  0  0  0  0  0
  -10.3820   -9.4730  -18.8930 C   0  0  0  0  0  0  0  0  0  0  0  0
  -10.2090   -8.2110  -18.0390 C   0  0  0  0  0  0  0  0  0  0  0  0
   -8.7520   -7.9350  -17.6560 C   0  0  0  0  0  0  0  0  0  0  0  0
   -8.0360   -7.0740  -18.6940 C   0  0  0  0  0  0  0  0  0  0  0  0
   -6.7840   -6.3290  -18.2190 C   0  0  0  0  0  0  0  0  0  0  0  0
   -6.9150   -5.6140  -17.1880 O   0  0  0  0  0  0  0  0  0  0  0  0
   -5.7550   -6.5390  -18.9240 O   0  0  0  0  0  0  0  0  0  0  0  0
  -13.3501  -11.9802  -18.5800 H   0  0  0  0  0  0  0  0  0  0  0  0
  -14.1409  -11.4292  -20.0958 H   0  0  0  0  0  0  0  0  0  0  0  0
  -13.1400  -12.9208  -20.0958 H   0  0  0  0  0  0  0  0  0  0  0  0
  -11.1262  -11.7211  -19.8983 H   0  0  0  0  0  0  0  0  0  0  0  0
  -12.1412  -10.7294  -21.0484 H   0  0  0  0  0  0  0  0  0  0  0  0
  -12.3513   -8.9981  -19.6138 H   0  0  0  0  0  0  0  0  0  0  0  0
  -12.2873  -10.0826  -18.1489 H   0  0  0  0  0  0  0  0  0  0  0  0
   -9.8854  -10.3112  -18.3822 H   0  0  0  0  0  0  0  0  0  0  0  0
   -9.9360   -9.2648  -19.8767 H   0  0  0  0  0  0  0  0  0  0  0  0
  -10.5900   -7.3497  -18.6073 H   0  0  0  0  0  0  0  0  0  0  0  0
  -10.7674   -8.3702  -17.1047 H   0  0  0  0  0  0  0  0  0  0  0  0
   -8.7330   -7.4124  -16.6883 H   0  0  0  0  0  0  0  0  0  0  0  0
   -8.2288   -8.9010  -17.5996 H   0  0  0  0  0  0  0  0  0  0  0  0
   -7.7389   -7.7305  -19.5251 H   0  0  0  0  0  0  0  0  0  0  0  0
   -8.7560   -6.2884  -18.9668 H   0  0  0  0  0  0  0  0  0  0  0  0
  1  2  1  0
  2  3  1  0
  3  4  1  0
  4  5  1  0
  5  6  1  0
  6  7  1  0
  7  8  1  0
  8  9  2  0
  8 10  1  0
  1 11  1  0
  1 12  1  0
  1 13  1  0
  2 14  1  0
  2 15  1  0
  3 16  1  0
  3 17  1  0
  4 18  1  0
  4 19  1  0
  5 20  1  0
  5 21  1  0
  6 22  1  0
  6 23  1  0
  7 24  1  0
  7 25  1  0
M  CHG  1  10  -1
M  END
>  <meeko>  (2) 
{"is_sidechain": [false], "free_energy": -4.89, "intermolecular_energy": -6.629, "internal_energy": -0.103}

$$$$
3nq9_ligand
     RDKit          3D

 25 24  0  0  0  0  0  0  0  0999 V2000
   -3.1490   -3.5770  -15.7470 C   0  0  0  0  0  0  0  0  0  0  0  0
   -4.1990   -2.5820  -16.2170 C   0  0  0  0  0  0  0  0  0  0  0  0
   -5.1180   -3.1360  -17.3100 C   0  0  0  0  0  0  0  0  0  0  0  0
   -5.0710   -4.6620  -17.4190 C   0  0  0  0  0  0  0  0  0  0  0  0
   -6.4600   -5.3090  -17.4640 C   0  0  0  0  0  0  0  0  0  0  0  0
   -6.5380   -6.5100  -18.4130 C   0  0  0  0  0  0  0  0  0  0  0  0
   -7.9740   -6.8270  -18.8240 C   0  0  0  0  0  0  0  0  0  0  0  0
   -8.6240   -8.0430  -18.1540 C   0  0  0  0  0  0  0  0  0  0  0  0
   -9.5060   -7.7990  -17.2860 O   0  0  0  0  0  0  0  0  0  0  0  0
   -8.1950   -9.1570  -18.5730 O   0  0  0  0  0  0  0  0  0  0  0  0
   -3.1285   -3.5964  -14.6474 H   0  0  0  0  0  0  0  0  0  0  0  0
   -3.3973   -4.5790  -16.1269 H   0  0  0  0  0  0  0  0  0  0  0  0
   -2.1618   -3.2752  -16.1269 H   0  0  0  0  0  0  0  0  0  0  0  0
   -4.8178   -2.2948  -15.3541 H   0  0  0  0  0  0  0  0  0  0  0  0
   -3.6624   -1.7243  -16.6487 H   0  0  0  0  0  0  0  0  0  0  0  0
   -6.1512   -2.8330  -17.0852 H   0  0  0  0  0  0  0  0  0  0  0  0
   -4.7682   -2.7282  -18.2698 H   0  0  0  0  0  0  0  0  0  0  0  0
   -4.5309   -4.9300  -18.3390 H   0  0  0  0  0  0  0  0  0  0  0  0
   -4.5652   -5.0379  -16.5174 H   0  0  0  0  0  0  0  0  0  0  0  0
   -6.7208   -5.6473  -16.4503 H   0  0  0  0  0  0  0  0  0  0  0  0
   -7.1614   -4.5498  -17.8404 H   0  0  0  0  0  0  0  0  0  0  0  0
   -5.9519   -6.2863  -19.3166 H   0  0  0  0  0  0  0  0  0  0  0  0
   -6.1368   -7.3864  -17.8829 H   0  0  0  0  0  0  0  0  0  0  0  0
   -8.5908   -5.9468  -18.5898 H   0  0  0  0  0  0  0  0  0  0  0  0
   -7.9224   -7.0768  -19.8940 H   0  0  0  0  0  0  0  0  0  0  0  0
  1  2  1  0
  2  3  1  0
  3  4  1  0
  4  5  1  0
  5  6  1  0
  6  7  1  0
  7  8  1  0
  8  9  2  0
  8 10  1  0
  1 11  1  0
  1 12  1  0
  1 13  1  0
  2 14  1  0
  2 15  1  0
  3 16  1  0
  3 17  1  0
  4 18  1  0
  4 19  1  0
  5 20  1  0
  5 21  1  0
  6 22  1  0
  6 23  1  0
  7 24  1  0
  7 25  1  0
M  CHG  1  10  -1
M  END
>  <meeko>  (3) 
{"is_sidechain": [false], "free_energy": -4.642, "intermolecular_energy": -6.224, "internal_energy": -0.173}

$$$$
3nq9_ligand
     RDKit          3D

 25 24  0  0  0  0  0  0  0  0999 V2000
   -7.8150   -9.0560  -18.8230 C   0  0  0  0  0  0  0  0  0  0  0  0
   -8.9650   -8.3410  -18.1310 C   0  0  0  0  0  0  0  0  0  0  0  0
   -8.6290   -6.9060  -17.7140 C   0  0  0  0  0  0  0  0  0  0  0  0
   -7.3600   -6.3680  -18.3790 C   0  0  0  0  0  0  0  0  0  0  0  0
   -6.5300   -5.4650  -17.4590 C   0  0  0  0  0  0  0  0  0  0  0  0
   -5.0190   -5.6080  -17.6730 C   0  0  0  0  0  0  0  0  0  0  0  0
   -4.6860   -6.6020  -18.7840 C   0  0  0  0  0  0  0  0  0  0  0  0
   -3.7600   -7.7630  -18.4050 C   0  0  0  0  0  0  0  0  0  0  0  0
   -4.3110   -8.8840  -18.2300 O   0  0  0  0  0  0  0  0  0  0  0  0
   -2.5370   -7.4480  -18.3280 O   0  0  0  0  0  0  0  0  0  0  0  0
   -7.1369   -9.4776  -18.0664 H   0  0  0  0  0  0  0  0  0  0  0  0
   -8.2123   -9.8665  -19.4516 H   0  0  0  0  0  0  0  0  0  0  0  0
   -7.2639   -8.3411  -19.4516 H   0  0  0  0  0  0  0  0  0  0  0  0
   -9.8220   -8.3119  -18.8200 H   0  0  0  0  0  0  0  0  0  0  0  0
   -9.1883   -8.9016  -17.2113 H   0  0  0  0  0  0  0  0  0  0  0  0
   -9.4716   -6.2550  -17.9901 H   0  0  0  0  0  0  0  0  0  0  0  0
   -8.4520   -6.9133  -16.6284 H   0  0  0  0  0  0  0  0  0  0  0  0
   -6.7373   -7.2216  -18.6850 H   0  0  0  0  0  0  0  0  0  0  0  0
   -7.6757   -5.7568  -19.2374 H   0  0  0  0  0  0  0  0  0  0  0  0
   -6.8123   -4.4189  -17.6490 H   0  0  0  0  0  0  0  0  0  0  0  0
   -6.7432   -5.7699  -16.4238 H   0  0  0  0  0  0  0  0  0  0  0  0
   -4.6044   -4.6250  -17.9410 H   0  0  0  0  0  0  0  0  0  0  0  0
   -4.5794   -5.9861  -16.7382 H   0  0  0  0  0  0  0  0  0  0  0  0
   -5.6326   -7.0324  -19.1427 H   0  0  0  0  0  0  0  0  0  0  0  0
   -4.1340   -6.0225  -19.5386 H   0  0  0  0  0  0  0  0  0  0  0  0
  1  2  1  0
  2  3  1  0
  3  4  1  0
  4  5  1  0
  5  6  1  0
  6  7  1  0
  7  8  1  0
  8  9  2  0
  8 10  1  0
  1 11  1  0
  1 12  1  0
  1 13  1  0
  2 14  1  0
  2 15  1  0
  3 16  1  0
  3 17  1  0
  4 18  1  0
  4 19  1  0
  5 20  1  0
  5 21  1  0
  6 22  1  0
  6 23  1  0
  7 24  1  0
  7 25  1  0
M  CHG  1  10  -1
M  END
>  <meeko>  (4) 
{"is_sidechain": [false], "free_energy": -4.555, "intermolecular_energy": -5.864, "internal_energy": -0.415}

$$$$
3nq9_ligand
     RDKit          3D

 25 24  0  0  0  0  0  0  0  0999 V2000
   -6.3070   -5.4400  -17.6020 C   0  0  0  0  0  0  0  0  0  0  0  0
   -7.5300   -6.3420  -17.5330 C   0  0  0  0  0  0  0  0  0  0  0  0
   -7.7810   -7.1280  -18.8230 C   0  0  0  0  0  0  0  0  0  0  0  0
   -8.2570   -8.5610  -18.5710 C   0  0  0  0  0  0  0  0  0  0  0  0
   -9.7810   -8.6810  -18.4530 C   0  0  0  0  0  0  0  0  0  0  0  0
  -10.3530   -9.8890  -19.2040 C   0  0  0  0  0  0  0  0  0  0  0  0
  -11.8800   -9.8870  -19.2200 C   0  0  0  0  0  0  0  0  0  0  0  0
  -12.5600  -11.2040  -19.6100 C   0  0  0  0  0  0  0  0  0  0  0  0
  -13.7070  -11.4070  -19.1240 O   0  0  0  0  0  0  0  0  0  0  0  0
  -11.8810  -11.9270  -20.3940 O   0  0  0  0  0  0  0  0  0  0  0  0
   -5.9744   -5.1947  -16.5826 H   0  0  0  0  0  0  0  0  0  0  0  0
   -5.4980   -5.9594  -18.1366 H   0  0  0  0  0  0  0  0  0  0  0  0
   -6.5642   -4.5137  -18.1366 H   0  0  0  0  0  0  0  0  0  0  0  0
   -7.3886   -7.0584  -16.7104 H   0  0  0  0  0  0  0  0  0  0  0  0
   -8.4034   -5.6924  -17.3740 H   0  0  0  0  0  0  0  0  0  0  0  0
   -8.5489   -6.6022  -19.4094 H   0  0  0  0  0  0  0  0  0  0  0  0
   -6.8231   -7.1906  -19.3602 H   0  0  0  0  0  0  0  0  0  0  0  0
   -7.9205   -9.1928  -19.4062 H   0  0  0  0  0  0  0  0  0  0  0  0
   -7.8291   -8.8826  -17.6100 H   0  0  0  0  0  0  0  0  0  0  0  0
  -10.0426   -8.7754  -17.3887 H   0  0  0  0  0  0  0  0  0  0  0  0
  -10.2155   -7.7785  -18.9076 H   0  0  0  0  0  0  0  0  0  0  0  0
   -9.9877   -9.8669  -20.2413 H   0  0  0  0  0  0  0  0  0  0  0  0
  -10.0216  -10.7991  -18.6826 H   0  0  0  0  0  0  0  0  0  0  0  0
  -12.2247   -9.6187  -18.2105 H   0  0  0  0  0  0  0  0  0  0  0  0
  -12.1627   -9.1693  -20.0042 H   0  0  0  0  0  0  0  0  0  0  0  0
  1  2  1  0
  2  3  1  0
  3  4  1  0
  4  5  1  0
  5  6  1  0
  6  7  1  0
  7  8  1  0
  8  9  2  0
  8 10  1  0
  1 11  1  0
  1 12  1  0
  1 13  1  0
  2 14  1  0
  2 15  1  0
  3 16  1  0
  3 17  1  0
  4 18  1  0
  4 19  1  0
  5 20  1  0
  5 21  1  0
  6 22  1  0
  6 23  1  0
  7 24  1  0
  7 25  1  0
M  CHG  1  10  -1
M  END
>  <meeko>  (5) 
{"is_sidechain": [false], "free_energy": -4.544, "intermolecular_energy": -6.155, "internal_energy": -0.109}

$$$$
3nq9_ligand
     RDKit          3D

 25 24  0  0  0  0  0  0  0  0999 V2000
   -9.6460   -6.8550  -17.0530 C   0  0  0  0  0  0  0  0  0  0  0  0
   -9.3610   -8.1320  -17.8290 C   0  0  0  0  0  0  0  0  0  0  0  0
   -8.0220   -8.1070  -18.5720 C   0  0  0  0  0  0  0  0  0  0  0  0
   -7.5840   -6.6980  -18.9780 C   0  0  0  0  0  0  0  0  0  0  0  0
   -6.2110   -6.3060  -18.4210 C   0  0  0  0  0  0  0  0  0  0  0  0
   -6.2900   -5.3090  -17.2600 C   0  0  0  0  0  0  0  0  0  0  0  0
   -5.2700   -4.1810  -17.3980 C   0  0  0  0  0  0  0  0  0  0  0  0
   -3.8030   -4.5530  -17.1550 C   0  0  0  0  0  0  0  0  0  0  0  0
   -3.4800   -4.8090  -15.9630 O   0  0  0  0  0  0  0  0  0  0  0  0
   -3.0920   -4.5700  -18.2010 O   0  0  0  0  0  0  0  0  0  0  0  0
   -9.5995   -7.0635  -15.9740 H   0  0  0  0  0  0  0  0  0  0  0  0
   -8.8957   -6.0934  -17.3120 H   0  0  0  0  0  0  0  0  0  0  0  0
  -10.6489   -6.4847  -17.3120 H   0  0  0  0  0  0  0  0  0  0  0  0
   -9.3517   -8.9747  -17.1221 H   0  0  0  0  0  0  0  0  0  0  0  0
  -10.1511   -8.2339  -18.5875 H   0  0  0  0  0  0  0  0  0  0  0  0
   -7.2505   -8.5377  -17.9168 H   0  0  0  0  0  0  0  0  0  0  0  0
   -8.1505   -8.6886  -19.4968 H   0  0  0  0  0  0  0  0  0  0  0  0
   -7.5426   -6.6481  -20.0761 H   0  0  0  0  0  0  0  0  0  0  0  0
   -8.3186   -5.9949  -18.5586 H   0  0  0  0  0  0  0  0  0  0  0  0
   -5.7055   -7.2161  -18.0658 H   0  0  0  0  0  0  0  0  0  0  0  0
   -5.6573   -5.8151  -19.2349 H   0  0  0  0  0  0  0  0  0  0  0  0
   -7.2995   -4.8728  -17.2357 H   0  0  0  0  0  0  0  0  0  0  0  0
   -6.0670   -5.8541  -16.3310 H   0  0  0  0  0  0  0  0  0  0  0  0
   -5.3489   -3.7821  -18.4201 H   0  0  0  0  0  0  0  0  0  0  0  0
   -5.5231   -3.4607  -16.6061 H   0  0  0  0  0  0  0  0  0  0  0  0
  1  2  1  0
  2  3  1  0
  3  4  1  0
  4  5  1  0
  5  6  1  0
  6  7  1  0
  7  8  1  0
  8  9  2  0
  8 10  1  0
  1 11  1  0
  1 12  1  0
  1 13  1  0
  2 14  1  0
  2 15  1  0
  3 16  1  0
  3 17  1  0
  4 18  1  0
  4 19  1  0
  5 20  1  0
  5 21  1  0
  6 22  1  0
  6 23  1  0
  7 24  1  0
  7 25  1  0
M  CHG  1  10  -1
M  END
>  <meeko>  (6) 
{"is_sidechain": [false], "free_energy": -4.523, "intermolecular_energy": -5.915, "internal_energy": -0.32}

$$$$
3nq9_ligand
     RDKit          3D

 25 24  0  0  0  0  0  0  0  0999 V2000
   -9.6650   -7.2600  -17.1080 C   0  0  0  0  0  0  0  0  0  0  0  0
   -8.5700   -7.8460  -17.9860 C   0  0  0  0  0  0  0  0  0  0  0  0
   -7.9180   -6.8180  -18.9150 C   0  0  0  0  0  0  0  0  0  0  0  0
   -6.4730   -6.4890  -18.5290 C   0  0  0  0  0  0  0  0  0  0  0  0
   -6.3620   -5.6840  -17.2290 C   0  0  0  0  0  0  0  0  0  0  0  0
   -5.7960   -4.2750  -17.4360 C   0  0  0  0  0  0  0  0  0  0  0  0
   -4.2710   -4.2480  -17.3530 C   0  0  0  0  0  0  0  0  0  0  0  0
   -3.6600   -3.3020  -16.3140 C   0  0  0  0  0  0  0  0  0  0  0  0
   -2.5020   -3.5910  -15.9070 O   0  0  0  0  0  0  0  0  0  0  0  0
   -4.4020   -2.3270  -16.0010 O   0  0  0  0  0  0  0  0  0  0  0  0
   -9.4011   -7.4012  -16.0495 H   0  0  0  0  0  0  0  0  0  0  0  0
   -9.7691   -6.1856  -17.3198 H   0  0  0  0  0  0  0  0  0  0  0  0
  -10.6167   -7.7694  -17.3198 H   0  0  0  0  0  0  0  0  0  0  0  0
   -7.7915   -8.2706  -17.3352 H   0  0  0  0  0  0  0  0  0  0  0  0
   -9.0400   -8.6081  -18.6250 H   0  0  0  0  0  0  0  0  0  0  0  0
   -7.9239   -7.2188  -19.9394 H   0  0  0  0  0  0  0  0  0  0  0  0
   -8.4989   -5.8875  -18.8328 H   0  0  0  0  0  0  0  0  0  0  0  0
   -5.9214   -7.4324  -18.4039 H   0  0  0  0  0  0  0  0  0  0  0  0
   -6.0535   -5.8679  -19.3342 H   0  0  0  0  0  0  0  0  0  0  0  0
   -7.3650   -5.5959  -16.7860 H   0  0  0  0  0  0  0  0  0  0  0  0
   -5.6643   -6.2223  -16.5706 H   0  0  0  0  0  0  0  0  0  0  0  0
   -6.1033   -3.9120  -18.4279 H   0  0  0  0  0  0  0  0  0  0  0  0
   -6.1893   -3.6320  -16.6349 H   0  0  0  0  0  0  0  0  0  0  0  0
   -3.9309   -5.2673  -17.1179 H   0  0  0  0  0  0  0  0  0  0  0  0
   -3.9329   -3.8673  -18.3281 H   0  0  0  0  0  0  0  0  0  0  0  0
  1  2  1  0
  2  3  1  0
  3  4  1  0
  4  5  1  0
  5  6  1  0
  6  7  1  0
  7  8  1  0
  8  9  2  0
  8 10  1  0
  1 11  1  0
  1 12  1  0
  1 13  1  0
  2 14  1  0
  2 15  1  0
  3 16  1  0
  3 17  1  0
  4 18  1  0
  4 19  1  0
  5 20  1  0
  5 21  1  0
  6 22  1  0
  6 23  1  0
  7 24  1  0
  7 25  1  0
M  CHG  1  10  -1
M  END
>  <meeko>  (7) 
{"is_sidechain": [false], "free_energy": -4.468, "intermolecular_energy": -5.965, "internal_energy": -0.197}

$$$$
3nq9_ligand
     RDKit          3D

 25 24  0  0  0  0  0  0  0  0999 V2000
  -14.3740  -13.0540  -21.6600 C   0  0  0  0  0  0  0  0  0  0  0  0
  -13.9230  -12.7740  -20.2350 C   0  0  0  0  0  0  0  0  0  0  0  0
  -12.5100  -12.1880  -20.1460 C   0  0  0  0  0  0  0  0  0  0  0  0
  -12.4450  -10.8960  -19.3280 C   0  0  0  0  0  0  0  0  0  0  0  0
  -11.1980  -10.0550  -19.6220 C   0  0  0  0  0  0  0  0  0  0  0  0
  -10.8700   -9.0500  -18.5130 C   0  0  0  0  0  0  0  0  0  0  0  0
   -9.3750   -8.7490  -18.4300 C   0  0  0  0  0  0  0  0  0  0  0  0
   -8.9580   -7.6120  -17.4900 C   0  0  0  0  0  0  0  0  0  0  0  0
   -7.7190   -7.4030  -17.3800 O   0  0  0  0  0  0  0  0  0  0  0  0
   -9.9260   -7.0080  -16.9450 O   0  0  0  0  0  0  0  0  0  0  0  0
  -15.3084  -13.6341  -21.6416 H   0  0  0  0  0  0  0  0  0  0  0  0
  -14.5436  -12.1022  -22.1846 H   0  0  0  0  0  0  0  0  0  0  0  0
  -13.5962  -13.6283  -22.1846 H   0  0  0  0  0  0  0  0  0  0  0  0
  -14.6256  -12.0595  -19.7813 H   0  0  0  0  0  0  0  0  0  0  0  0
  -13.9080  -13.7376  -19.7047 H   0  0  0  0  0  0  0  0  0  0  0  0
  -11.8512  -12.9331  -19.6761 H   0  0  0  0  0  0  0  0  0  0  0  0
  -12.1917  -11.9435  -21.1702 H   0  0  0  0  0  0  0  0  0  0  0  0
  -13.3354  -10.2923  -19.5574 H   0  0  0  0  0  0  0  0  0  0  0  0
  -12.4015  -11.1836  -18.2672 H   0  0  0  0  0  0  0  0  0  0  0  0
  -10.3403  -10.7329  -19.7438 H   0  0  0  0  0  0  0  0  0  0  0  0
  -11.4024   -9.4773  -20.5355 H   0  0  0  0  0  0  0  0  0  0  0  0
  -11.4094   -8.1126  -18.7138 H   0  0  0  0  0  0  0  0  0  0  0  0
  -11.1788   -9.4926  -17.5545 H   0  0  0  0  0  0  0  0  0  0  0  0
   -8.8678   -9.6649  -18.0924 H   0  0  0  0  0  0  0  0  0  0  0  0
   -9.0889   -8.4137  -19.4378 H   0  0  0  0  0  0  0  0  0  0  0  0
  1  2  1  0
  2  3  1  0
  3  4  1  0
  4  5  1  0
  5  6  1  0
  6  7  1  0
  7  8  1  0
  8  9  2  0
  8 10  1  0
  1 11  1  0
  1 12  1  0
  1 13  1  0
  2 14  1  0
  2 15  1  0
  3 16  1  0
  3 17  1  0
  4 18  1  0
  4 19  1  0
  5 20  1  0
  5 21  1  0
  6 22  1  0
  6 23  1  0
  7 24  1  0
  7 25  1  0
M  CHG  1  10  -1
M  END
>  <meeko>  (8) 
{"is_sidechain": [false], "free_energy": -4.284, "intermolecular_energy": -5.812, "internal_energy": -0.101}

$$$$
3nq9_ligand
     RDKit          3D

 25 24  0  0  0  0  0  0  0  0999 V2000
   -9.5480   -7.4200  -17.1240 C   0  0  0  0  0  0  0  0  0  0  0  0
   -8.5330   -7.8790  -18.1600 C   0  0  0  0  0  0  0  0  0  0  0  0
   -7.7620   -6.7270  -18.8110 C   0  0  0  0  0  0  0  0  0  0  0  0
   -6.8800   -5.9590  -17.8230 C   0  0  0  0  0  0  0  0  0  0  0  0
   -5.8920   -6.8570  -17.0680 C   0  0  0  0  0  0  0  0  0  0  0  0
   -4.6820   -7.2680  -17.9130 C   0  0  0  0  0  0  0  0  0  0  0  0
   -3.6320   -8.0120  -17.0920 C   0  0  0  0  0  0  0  0  0  0  0  0
   -3.1120   -9.3290  -17.6790 C   0  0  0  0  0  0  0  0  0  0  0  0
   -2.0040   -9.7400  -17.2380 O   0  0  0  0  0  0  0  0  0  0  0  0
   -3.8800   -9.8540  -18.5350 O   0  0  0  0  0  0  0  0  0  0  0  0
   -9.1491   -7.6004  -16.1149 H   0  0  0  0  0  0  0  0  0  0  0  0
   -9.7443   -6.3455  -17.2540 H   0  0  0  0  0  0  0  0  0  0  0  0
  -10.4845   -7.9822  -17.2540 H   0  0  0  0  0  0  0  0  0  0  0  0
   -7.8109   -8.5472  -17.6680 H   0  0  0  0  0  0  0  0  0  0  0  0
   -9.0930   -8.3865  -18.9593 H   0  0  0  0  0  0  0  0  0  0  0  0
   -7.1214   -7.1391  -19.6046 H   0  0  0  0  0  0  0  0  0  0  0  0
   -8.5045   -6.0183  -19.2065 H   0  0  0  0  0  0  0  0  0  0  0  0
   -6.3085   -5.2022  -18.3803 H   0  0  0  0  0  0  0  0  0  0  0  0
   -7.5468   -5.5062  -17.0744 H   0  0  0  0  0  0  0  0  0  0  0  0
   -5.5314   -6.3128  -16.1827 H   0  0  0  0  0  0  0  0  0  0  0  0
   -6.4291   -7.7779  -16.7970 H   0  0  0  0  0  0  0  0  0  0  0  0
   -5.0247   -7.9233  -18.7274 H   0  0  0  0  0  0  0  0  0  0  0  0
   -4.2170   -6.3516  -18.3056 H   0  0  0  0  0  0  0  0  0  0  0  0
   -2.7705   -7.3402  -16.9635 H   0  0  0  0  0  0  0  0  0  0  0  0
   -4.1380   -8.2902  -16.1558 H   0  0  0  0  0  0  0  0  0  0  0  0
  1  2  1  0
  2  3  1  0
  3  4  1  0
  4  5  1  0
  5  6  1  0
  6  7  1  0
  7  8  1  0
  8  9  2  0
  8 10  1  0
  1 11  1  0
  1 12  1  0
  1 13  1  0
  2 14  1  0
  2 15  1  0
  3 16  1  0
  3 17  1  0
  4 18  1  0
  4 19  1  0
  5 20  1  0
  5 21  1  0
  6 22  1  0
  6 23  1  0
  7 24  1  0
  7 25  1  0
M  CHG  1  10  -1
M  END
>  <meeko>  (9) 
{"is_sidechain": [false], "free_energy": -4.162, "intermolecular_energy": -5.485, "internal_energy": -0.263}

$$$$
