3zso_ligand
     RDKit          3D

 78 82  0  0  0  0  0  0  0  0999 V2000
  -24.6750   41.2700  -11.7650 C   0  0  0  0  0  0  0  0  0  0  0  0
  -23.8090   42.2910  -11.6970 C   0  0  0  0  0  0  0  0  0  0  0  0
  -23.1640   42.7800  -10.4330 C   0  0  0  0  0  0  0  0  0  0  0  0
  -23.8160   42.2010   -9.2080 N   0  0  2  0  0  0  0  0  0  0  0  0
  -24.7120   43.2110   -8.5050 C   0  0  0  0  0  0  0  0  0  0  0  0
  -26.0120   42.6550   -7.9660 C   0  0  0  0  0  0  0  0  0  0  0  0
  -27.1110   42.4700   -8.8210 C   0  0  0  0  0  0  0  0  0  0  0  0
  -28.2970   41.9100   -8.3390 C   0  0  0  0  0  0  0  0  0  0  0  0
  -28.4030   41.5220   -7.0030 C   0  0  0  0  0  0  0  0  0  0  0  0
  -27.3240   41.6950   -6.1390 C   0  0  0  0  0  0  0  0  0  0  0  0
  -26.1400   42.2580   -6.6220 C   0  0  0  0  0  0  0  0  0  0  0  0
  -25.0250   42.4810   -5.6840 C   0  0  0  0  0  0  0  0  0  0  0  0
  -24.4880   43.5810   -5.6760 O   0  0  0  0  0  0  0  0  0  0  0  0
  -24.6420   41.3760   -4.9710 N   0  0  0  0  0  0  0  0  0  0  0  0
  -23.3420   41.3310   -4.3110 C   0  0  0  0  0  0  0  0  0  0  0  0
  -22.8090   39.9040   -4.3760 C   0  0  0  0  0  0  0  0  0  0  0  0
  -23.7140   38.8330   -4.3040 C   0  0  0  0  0  0  0  0  0  0  0  0
  -23.2600   37.5120   -4.3140 C   0  0  0  0  0  0  0  0  0  0  0  0
  -21.8960   37.2280   -4.3910 C   0  0  0  0  0  0  0  0  0  0  0  0
  -21.5860   35.8960   -4.3950 O   0  0  0  0  0  0  0  0  0  0  0  0
  -20.2310   35.5510   -4.1360 C   0  0  0  0  0  0  0  0  0  0  0  0
  -20.9860   38.2820   -4.4450 C   0  0  0  0  0  0  0  0  0  0  0  0
  -21.4380   39.6090   -4.4290 C   0  0  0  0  0  0  0  0  0  0  0  0
  -23.3600   41.9260   -2.9040 C   0  0  0  0  0  0  0  0  0  0  0  0
  -23.1830   43.3100   -2.7430 C   0  0  0  0  0  0  0  0  0  0  0  0
  -23.1680   43.8950   -1.4710 C   0  0  0  0  0  0  0  0  0  0  0  0
  -23.3250   43.1030   -0.3350 C   0  0  0  0  0  0  0  0  0  0  0  0
  -23.3280   43.5440    0.9600 O   0  0  0  0  0  0  0  0  0  0  0  0
  -22.3730   42.9590    1.8370 C   0  0  0  0  0  0  0  0  0  0  0  0
  -23.4950   41.7260   -0.4840 C   0  0  0  0  0  0  0  0  0  0  0  0
  -23.5110   41.1400   -1.7520 C   0  0  0  0  0  0  0  0  0  0  0  0
  -22.7620   41.6670   -8.2470 C   0  0  0  0  0  0  0  0  0  0  0  0
  -22.7170   40.1580   -8.1580 C   0  0  0  0  0  0  0  0  0  0  0  0
  -23.9180   39.4200   -8.0330 C   0  0  0  0  0  0  0  0  0  0  0  0
  -23.8910   38.0270   -7.9240 C   0  0  0  0  0  0  0  0  0  0  0  0
  -22.6610   37.4020   -7.9380 C   0  0  0  0  0  0  0  0  0  0  0  0
  -21.4810   38.1010   -8.0540 C   0  0  0  0  0  0  0  0  0  0  0  0
  -21.4720   39.4780   -8.1660 C   0  0  0  0  0  0  0  0  0  0  0  0
  -20.1990   40.2480   -8.2470 C   0  0  0  0  0  0  0  0  0  0  0  0
  -19.5690   40.3970   -7.1610 O   0  0  0  0  0  0  0  0  0  0  0  0
  -19.7640   40.4830   -9.4140 O   0  0  0  0  0  0  0  0  0  0  0  0
  -20.4010   37.2760   -8.0450 O   0  0  0  0  0  0  0  0  0  0  0  0
  -21.0270   35.9880   -7.9190 C   0  0  0  0  0  0  0  0  0  0  0  0
  -22.4660   36.0580   -7.8380 O   0  0  0  0  0  0  0  0  0  0  0  0
  -25.1027   40.9752  -12.7346 H   0  0  0  0  0  0  0  0  0  0  0  0
  -24.9579   40.7270  -10.8512 H   0  0  0  0  0  0  0  0  0  0  0  0
  -23.5529   42.8071  -12.6341 H   0  0  0  0  0  0  0  0  0  0  0  0
  -22.1027   42.4908  -10.4409 H   0  0  0  0  0  0  0  0  0  0  0  0
  -23.2779   43.8734  -10.3942 H   0  0  0  0  0  0  0  0  0  0  0  0
  -24.4090   41.4190   -9.4800 H   0  0  0  0  0  0  0  0  0  0  0  0
  -24.1484   43.6365   -7.6616 H   0  0  0  0  0  0  0  0  0  0  0  0
  -24.9908   43.9536   -9.2672 H   0  0  0  0  0  0  0  0  0  0  0  0
  -27.0375   42.7680   -9.8773 H   0  0  0  0  0  0  0  0  0  0  0  0
  -29.1524   41.7742   -9.0171 H   0  0  0  0  0  0  0  0  0  0  0  0
  -29.3390   41.0793   -6.6317 H   0  0  0  0  0  0  0  0  0  0  0  0
  -27.4035   41.3908   -5.0849 H   0  0  0  0  0  0  0  0  0  0  0  0
  -25.0220   40.4780   -5.2450 H   0  0  0  0  0  0  0  0  0  0  0  0
  -22.6407   41.9844   -4.8506 H   0  0  0  0  0  0  0  0  0  0  0  0
  -24.7931   39.0365   -4.2390 H   0  0  0  0  0  0  0  0  0  0  0  0
  -23.9855   36.6869   -4.2606 H   0  0  0  0  0  0  0  0  0  0  0  0
  -20.0647   35.5086   -3.0495 H   0  0  0  0  0  0  0  0  0  0  0  0
  -20.0117   34.5684   -4.5791 H   0  0  0  0  0  0  0  0  0  0  0  0
  -19.5685   36.3091   -4.5791 H   0  0  0  0  0  0  0  0  0  0  0  0
  -19.9077   38.0718   -4.5005 H   0  0  0  0  0  0  0  0  0  0  0  0
  -20.7075   40.4309   -4.4584 H   0  0  0  0  0  0  0  0  0  0  0  0
  -23.0539   43.9453   -3.6316 H   0  0  0  0  0  0  0  0  0  0  0  0
  -23.0320   44.9817   -1.3681 H   0  0  0  0  0  0  0  0  0  0  0  0
  -22.6721   43.1422    2.8796 H   0  0  0  0  0  0  0  0  0  0  0  0
  -22.3234   41.8753    1.6548 H   0  0  0  0  0  0  0  0  0  0  0  0
  -21.3851   43.4071    1.6548 H   0  0  0  0  0  0  0  0  0  0  0  0
  -23.6179   41.0942    0.4080 H   0  0  0  0  0  0  0  0  0  0  0  0
  -23.6432   40.0522   -1.8480 H   0  0  0  0  0  0  0  0  0  0  0  0
  -21.7766   42.0230   -8.5821 H   0  0  0  0  0  0  0  0  0  0  0  0
  -23.0286   42.0365   -7.2458 H   0  0  0  0  0  0  0  0  0  0  0  0
  -24.8828   39.9483   -8.0215 H   0  0  0  0  0  0  0  0  0  0  0  0
  -24.8210   37.4471   -7.8300 H   0  0  0  0  0  0  0  0  0  0  0  0
  -20.7558   35.3808   -8.7952 H   0  0  0  0  0  0  0  0  0  0  0  0
  -20.6692   35.5425   -6.9791 H   0  0  0  0  0  0  0  0  0  0  0  0
  1  2  2  0
  2  3  1  0
  3  4  1  0
  4  5  1  0
  5  6  1  0
  6  7  2  0
  7  8  1  0
  8  9  2  0
  9 10  1  0
 10 11  2  0
 11 12  1  0
 12 13  2  0
 12 14  1  0
 14 15  1  0
 15 16  1  0
 16 17  2  0
 17 18  1  0
 18 19  2  0
 19 20  1  0
 20 21  1  0
 19 22  1  0
 22 23  2  0
 15 24  1  0
 24 25  2  0
 25 26  1  0
 26 27  2  0
 27 28  1  0
 28 29  1  0
 27 30  1  0
 30 31  2  0
  4 32  1  0
 32 33  1  0
 33 34  2  0
 34 35  1  0
 35 36  2  0
 36 37  1  0
 37 38  2  0
 38 39  1  0
 39 40  2  0
 39 41  1  0
 37 42  1  0
 42 43  1  0
 43 44  1  0
 11  6  1  0
 23 16  1  0
 31 24  1  0
 38 33  1  0
 44 36  1  0
  1 45  1  0
  1 46  1  0
  2 47  1  0
  3 48  1  0
  3 49  1  0
  4 50  1  6
  5 51  1  0
  5 52  1  0
  7 53  1  0
  8 54  1  0
  9 55  1  0
 10 56  1  0
 14 57  1  0
 15 58  1  0
 17 59  1  0
 18 60  1  0
 21 61  1  0
 21 62  1  0
 21 63  1  0
 22 64  1  0
 23 65  1  0
 25 66  1  0
 26 67  1  0
 29 68  1  0
 29 69  1  0
 29 70  1  0
 30 71  1  0
 31 72  1  0
 32 73  1  0
 32 74  1  0
 34 75  1  0
 35 76  1  0
 43 77  1  0
 43 78  1  0
M  CHG  2   4   1  41  -1
M  END
>  <meeko>  (1) 
{"is_sidechain": [false], "free_energy": -6.732, "intermolecular_energy": -11.848, "internal_energy": -4.822}

$$$$
3zso_ligand
     RDKit          3D

 78 82  0  0  0  0  0  0  0  0999 V2000
  -28.2640   40.6050   -6.2780 C   0  0  0  0  0  0  0  0  0  0  0  0
  -27.1140   40.1880   -5.7310 C   0  0  0  0  0  0  0  0  0  0  0  0
  -26.5410   40.7130   -4.4470 C   0  0  0  0  0  0  0  0  0  0  0  0
  -25.0550   40.9270   -4.5400 N   0  0  2  0  0  0  0  0  0  0  0  0
  -24.6960   42.4010   -4.6540 C   0  0  0  0  0  0  0  0  0  0  0  0
  -25.7240   43.2630   -5.3540 C   0  0  0  0  0  0  0  0  0  0  0  0
  -26.8360   43.7520   -4.6490 C   0  0  0  0  0  0  0  0  0  0  0  0
  -27.7620   44.5890   -5.2780 C   0  0  0  0  0  0  0  0  0  0  0  0
  -27.5900   44.9560   -6.6140 C   0  0  0  0  0  0  0  0  0  0  0  0
  -26.4920   44.4840   -7.3290 C   0  0  0  0  0  0  0  0  0  0  0  0
  -25.5690   43.6440   -6.7000 C   0  0  0  0  0  0  0  0  0  0  0  0
  -24.4410   43.1130   -7.4860 C   0  0  0  0  0  0  0  0  0  0  0  0
  -23.3480   43.6500   -7.3620 O   0  0  0  0  0  0  0  0  0  0  0  0
  -24.7680   42.1110   -8.3610 N   0  0  0  0  0  0  0  0  0  0  0  0
  -23.8740   41.7600   -9.4570 C   0  0  0  0  0  0  0  0  0  0  0  0
  -24.6950   41.6200  -10.7350 C   0  0  0  0  0  0  0  0  0  0  0  0
  -26.0810   41.8380  -10.6820 C   0  0  0  0  0  0  0  0  0  0  0  0
  -26.8730   41.6740  -11.8210 C   0  0  0  0  0  0  0  0  0  0  0  0
  -26.3050   41.2860  -13.0360 C   0  0  0  0  0  0  0  0  0  0  0  0
  -27.1900   41.1650  -14.0710 O   0  0  0  0  0  0  0  0  0  0  0  0
  -26.6410   40.9140  -15.3590 C   0  0  0  0  0  0  0  0  0  0  0  0
  -24.9330   41.0490  -13.0960 C   0  0  0  0  0  0  0  0  0  0  0  0
  -24.1360   41.2070  -11.9540 C   0  0  0  0  0  0  0  0  0  0  0  0
  -22.9900   40.5530   -9.1510 C   0  0  0  0  0  0  0  0  0  0  0  0
  -21.6090   40.7430   -8.9700 C   0  0  0  0  0  0  0  0  0  0  0  0
  -20.7580   39.6630   -8.7110 C   0  0  0  0  0  0  0  0  0  0  0  0
  -21.2710   38.3690   -8.6340 C   0  0  0  0  0  0  0  0  0  0  0  0
  -20.5530   37.2310   -8.3900 O   0  0  0  0  0  0  0  0  0  0  0  0
  -21.2820   36.0090   -8.3600 C   0  0  0  0  0  0  0  0  0  0  0  0
  -22.6400   38.1690   -8.8180 C   0  0  0  0  0  0  0  0  0  0  0  0
  -23.4920   39.2460   -9.0760 C   0  0  0  0  0  0  0  0  0  0  0  0
  -24.4780   40.1480   -5.7150 C   0  0  0  0  0  0  0  0  0  0  0  0
  -23.2030   39.4010   -5.3920 C   0  0  0  0  0  0  0  0  0  0  0  0
  -21.9710   40.0950   -5.3310 C   0  0  0  0  0  0  0  0  0  0  0  0
  -20.7820   39.4150   -5.0600 C   0  0  0  0  0  0  0  0  0  0  0  0
  -20.8480   38.0520   -4.8590 C   0  0  0  0  0  0  0  0  0  0  0  0
  -22.0350   37.3560   -4.9180 C   0  0  0  0  0  0  0  0  0  0  0  0
  -23.2290   37.9980   -5.1830 C   0  0  0  0  0  0  0  0  0  0  0  0
  -24.5130   37.2490   -5.2940 C   0  0  0  0  0  0  0  0  0  0  0  0
  -24.6240   36.4820   -6.2930 O   0  0  0  0  0  0  0  0  0  0  0  0
  -25.2660   37.2800   -4.2740 O   0  0  0  0  0  0  0  0  0  0  0  0
  -21.8550   36.0290   -4.6880 O   0  0  0  0  0  0  0  0  0  0  0  0
  -20.4360   35.9670   -4.4710 C   0  0  0  0  0  0  0  0  0  0  0  0
  -19.7830   37.2480   -4.5890 O   0  0  0  0  0  0  0  0  0  0  0  0
  -28.6137   40.1667   -7.2244 H   0  0  0  0  0  0  0  0  0  0  0  0
  -28.8584   41.3856   -5.7807 H   0  0  0  0  0  0  0  0  0  0  0  0
  -26.5502   39.4058   -6.2603 H   0  0  0  0  0  0  0  0  0  0  0  0
  -27.0238   41.6721   -4.2084 H   0  0  0  0  0  0  0  0  0  0  0  0
  -26.7287   39.9671   -3.6606 H   0  0  0  0  0  0  0  0  0  0  0  0
  -24.6110   40.5790   -3.6920 H   0  0  0  0  0  0  0  0  0  0  0  0
  -24.5559   42.7966   -3.6372 H   0  0  0  0  0  0  0  0  0  0  0  0
  -23.7876   42.4466   -5.2727 H   0  0  0  0  0  0  0  0  0  0  0  0
  -26.9792   43.4743   -3.5943 H   0  0  0  0  0  0  0  0  0  0  0  0
  -28.6319   44.9609   -4.7168 H   0  0  0  0  0  0  0  0  0  0  0  0
  -28.3212   45.6175   -7.1016 H   0  0  0  0  0  0  0  0  0  0  0  0
  -26.3522   44.7704   -8.3818 H   0  0  0  0  0  0  0  0  0  0  0  0
  -25.7510   41.9250   -8.5240 H   0  0  0  0  0  0  0  0  0  0  0  0
  -23.1477   42.5732   -9.6024 H   0  0  0  0  0  0  0  0  0  0  0  0
  -26.5482   42.1412   -9.7334 H   0  0  0  0  0  0  0  0  0  0  0  0
  -27.9567   41.8526  -11.7599 H   0  0  0  0  0  0  0  0  0  0  0  0
  -25.6454   40.4588  -15.2509 H   0  0  0  0  0  0  0  0  0  0  0  0
  -27.3000   40.2277  -15.9111 H   0  0  0  0  0  0  0  0  0  0  0  0
  -26.5531   41.8614  -15.9111 H   0  0  0  0  0  0  0  0  0  0  0  0
  -24.4730   40.7362  -14.0450 H   0  0  0  0  0  0  0  0  0  0  0  0
  -23.0565   41.0043  -12.0142 H   0  0  0  0  0  0  0  0  0  0  0  0
  -21.1902   41.7582   -9.0331 H   0  0  0  0  0  0  0  0  0  0  0  0
  -19.6811   39.8354   -8.5677 H   0  0  0  0  0  0  0  0  0  0  0  0
  -21.4586   35.7130   -7.3154 H   0  0  0  0  0  0  0  0  0  0  0  0
  -22.2467   36.1449   -8.8707 H   0  0  0  0  0  0  0  0  0  0  0  0
  -20.7041   35.2246   -8.8707 H   0  0  0  0  0  0  0  0  0  0  0  0
  -23.0532   37.1512   -8.7592 H   0  0  0  0  0  0  0  0  0  0  0  0
  -24.5675   39.0667   -9.2217 H   0  0  0  0  0  0  0  0  0  0  0  0
  -25.2307   39.4189   -6.0495 H   0  0  0  0  0  0  0  0  0  0  0  0
  -24.2267   40.8847   -6.4923 H   0  0  0  0  0  0  0  0  0  0  0  0
  -21.9500   41.1819   -5.4989 H   0  0  0  0  0  0  0  0  0  0  0  0
  -19.8222   39.9498   -5.0084 H   0  0  0  0  0  0  0  0  0  0  0  0
  -20.2545   35.5747   -3.4595 H   0  0  0  0  0  0  0  0  0  0  0  0
  -20.0159   35.3147   -5.2508 H   0  0  0  0  0  0  0  0  0  0  0  0
  1  2  2  0
  2  3  1  0
  3  4  1  0
  4  5  1  0
  5  6  1  0
  6  7  2  0
  7  8  1  0
  8  9  2  0
  9 10  1  0
 10 11  2  0
 11 12  1  0
 12 13  2  0
 12 14  1  0
 14 15  1  0
 15 16  1  0
 16 17  2  0
 17 18  1  0
 18 19  2  0
 19 20  1  0
 20 21  1  0
 19 22  1  0
 22 23  2  0
 15 24  1  0
 24 25  2  0
 25 26  1  0
 26 27  2  0
 27 28  1  0
 28 29  1  0
 27 30  1  0
 30 31  2  0
  4 32  1  0
 32 33  1  0
 33 34  2  0
 34 35  1  0
 35 36  2  0
 36 37  1  0
 37 38  2  0
 38 39  1  0
 39 40  2  0
 39 41  1  0
 37 42  1  0
 42 43  1  0
 43 44  1  0
 11  6  1  0
 23 16  1  0
 31 24  1  0
 38 33  1  0
 44 36  1  0
  1 45  1  0
  1 46  1  0
  2 47  1  0
  3 48  1  0
  3 49  1  0
  4 50  1  1
  5 51  1  0
  5 52  1  0
  7 53  1  0
  8 54  1  0
  9 55  1  0
 10 56  1  0
 14 57  1  0
 15 58  1  0
 17 59  1  0
 18 60  1  0
 21 61  1  0
 21 62  1  0
 21 63  1  0
 22 64  1  0
 23 65  1  0
 25 66  1  0
 26 67  1  0
 29 68  1  0
 29 69  1  0
 29 70  1  0
 30 71  1  0
 31 72  1  0
 32 73  1  0
 32 74  1  0
 34 75  1  0
 35 76  1  0
 43 77  1  0
 43 78  1  0
M  CHG  2   4   1  41  -1
M  END
>  <meeko>  (2) 
{"is_sidechain": [false], "free_energy": -6.7, "intermolecular_energy": -11.893, "internal_energy": -4.722}

$$$$
3zso_ligand
     RDKit          3D

 78 82  0  0  0  0  0  0  0  0999 V2000
  -25.3450   42.7980   -6.4890 C   0  0  0  0  0  0  0  0  0  0  0  0
  -25.1330   41.9080   -7.4690 C   0  0  0  0  0  0  0  0  0  0  0  0
  -25.8130   41.9350   -8.8060 C   0  0  0  0  0  0  0  0  0  0  0  0
  -24.8760   41.5620   -9.9220 N   0  0  2  0  0  0  0  0  0  0  0  0
  -23.4510   41.3570   -9.4270 C   0  0  0  0  0  0  0  0  0  0  0  0
  -22.8850   39.9720   -9.6470 C   0  0  0  0  0  0  0  0  0  0  0  0
  -23.1300   39.2900  -10.8510 C   0  0  0  0  0  0  0  0  0  0  0  0
  -22.5670   38.0320  -11.0800 C   0  0  0  0  0  0  0  0  0  0  0  0
  -21.7500   37.4370  -10.1170 C   0  0  0  0  0  0  0  0  0  0  0  0
  -21.4930   38.0970   -8.9180 C   0  0  0  0  0  0  0  0  0  0  0  0
  -22.0590   39.3550   -8.6890 C   0  0  0  0  0  0  0  0  0  0  0  0
  -21.8180   40.0180   -7.3950 C   0  0  0  0  0  0  0  0  0  0  0  0
  -20.9250   40.8530   -7.3310 O   0  0  0  0  0  0  0  0  0  0  0  0
  -22.5770   39.5480   -6.3570 N   0  0  0  0  0  0  0  0  0  0  0  0
  -22.1940   39.8160   -4.9760 C   0  0  0  0  0  0  0  0  0  0  0  0
  -21.5250   38.5710   -4.4020 C   0  0  0  0  0  0  0  0  0  0  0  0
  -20.8740   37.6830   -5.2740 C   0  0  0  0  0  0  0  0  0  0  0  0
  -20.2880   36.5110   -4.7910 C   0  0  0  0  0  0  0  0  0  0  0  0
  -20.3410   36.1920   -3.4340 C   0  0  0  0  0  0  0  0  0  0  0  0
  -19.7280   35.0180   -3.0940 O   0  0  0  0  0  0  0  0  0  0  0  0
  -19.7540   33.9770   -4.0610 C   0  0  0  0  0  0  0  0  0  0  0  0
  -21.0000   37.0570   -2.5610 C   0  0  0  0  0  0  0  0  0  0  0  0
  -21.5930   38.2320   -3.0420 C   0  0  0  0  0  0  0  0  0  0  0  0
  -23.3440   40.3510   -4.1240 C   0  0  0  0  0  0  0  0  0  0  0  0
  -24.6370   39.8350   -4.3180 C   0  0  0  0  0  0  0  0  0  0  0  0
  -25.7250   40.3130   -3.5770 C   0  0  0  0  0  0  0  0  0  0  0  0
  -25.5400   41.3200   -2.6310 C   0  0  0  0  0  0  0  0  0  0  0  0
  -26.5120   41.8750   -1.8450 O   0  0  0  0  0  0  0  0  0  0  0  0
  -26.2130   42.0140   -0.4610 C   0  0  0  0  0  0  0  0  0  0  0  0
  -24.2610   41.8420   -2.4350 C   0  0  0  0  0  0  0  0  0  0  0  0
  -23.1730   41.3680   -3.1730 C   0  0  0  0  0  0  0  0  0  0  0  0
  -24.9090   42.6180  -11.0200 C   0  0  0  0  0  0  0  0  0  0  0  0
  -25.5460   42.1470  -12.3080 C   0  0  0  0  0  0  0  0  0  0  0  0
  -24.9170   41.1450  -13.0850 C   0  0  0  0  0  0  0  0  0  0  0  0
  -25.4800   40.7180  -14.2900 C   0  0  0  0  0  0  0  0  0  0  0  0
  -26.6600   41.3050  -14.6960 C   0  0  0  0  0  0  0  0  0  0  0  0
  -27.2870   42.2840  -13.9580 C   0  0  0  0  0  0  0  0  0  0  0  0
  -26.7580   42.7280  -12.7610 C   0  0  0  0  0  0  0  0  0  0  0  0
  -27.4040   43.8180  -11.9770 C   0  0  0  0  0  0  0  0  0  0  0  0
  -27.1440   44.9990  -12.3470 O   0  0  0  0  0  0  0  0  0  0  0  0
  -28.3140   43.4600  -11.1700 O   0  0  0  0  0  0  0  0  0  0  0  0
  -28.4310   42.7120  -14.5530 O   0  0  0  0  0  0  0  0  0  0  0  0
  -28.4600   41.8950  -15.7350 C   0  0  0  0  0  0  0  0  0  0  0  0
  -27.3300   41.0040  -15.8420 O   0  0  0  0  0  0  0  0  0  0  0  0
  -24.8035   42.7061   -5.5359 H   0  0  0  0  0  0  0  0  0  0  0  0
  -26.0604   43.6202   -6.6380 H   0  0  0  0  0  0  0  0  0  0  0  0
  -24.4096   41.1013   -7.2794 H   0  0  0  0  0  0  0  0  0  0  0  0
  -26.6510   41.2226   -8.7927 H   0  0  0  0  0  0  0  0  0  0  0  0
  -26.1660   42.9609   -8.9871 H   0  0  0  0  0  0  0  0  0  0  0  0
  -25.1760   40.6810  -10.3330 H   0  0  0  0  0  0  0  0  0  0  0  0
  -22.8028   42.0762   -9.9491 H   0  0  0  0  0  0  0  0  0  0  0  0
  -23.4827   41.5038   -8.3373 H   0  0  0  0  0  0  0  0  0  0  0  0
  -23.7696   39.7499  -11.6187 H   0  0  0  0  0  0  0  0  0  0  0  0
  -22.7688   37.5069  -12.0253 H   0  0  0  0  0  0  0  0  0  0  0  0
  -21.3093   36.4469  -10.3053 H   0  0  0  0  0  0  0  0  0  0  0  0
  -20.8494   37.6321   -8.1566 H   0  0  0  0  0  0  0  0  0  0  0  0
  -23.1100   38.6980   -6.5030 H   0  0  0  0  0  0  0  0  0  0  0  0
  -21.4639   40.6386   -4.9591 H   0  0  0  0  0  0  0  0  0  0  0  0
  -20.8252   37.9131   -6.3486 H   0  0  0  0  0  0  0  0  0  0  0  0
  -19.7783   35.8309   -5.4893 H   0  0  0  0  0  0  0  0  0  0  0  0
  -19.7783   33.0029   -3.5505 H   0  0  0  0  0  0  0  0  0  0  0  0
  -20.6498   34.0836   -4.6905 H   0  0  0  0  0  0  0  0  0  0  0  0
  -18.8540   34.0387   -4.6905 H   0  0  0  0  0  0  0  0  0  0  0  0
  -21.0546   36.8157   -1.4892 H   0  0  0  0  0  0  0  0  0  0  0  0
  -22.1196   38.8985   -2.3431 H   0  0  0  0  0  0  0  0  0  0  0  0
  -24.7969   39.0427   -5.0641 H   0  0  0  0  0  0  0  0  0  0  0  0
  -26.7281   39.8928   -3.7419 H   0  0  0  0  0  0  0  0  0  0  0  0
  -27.0508   41.6245    0.1360 H   0  0  0  0  0  0  0  0  0  0  0  0
  -25.2999   41.4480   -0.2245 H   0  0  0  0  0  0  0  0  0  0  0  0
  -26.0571   43.0769   -0.2245 H   0  0  0  0  0  0  0  0  0  0  0  0
  -24.1071   42.6367   -1.6902 H   0  0  0  0  0  0  0  0  0  0  0  0
  -22.1735   41.7962   -3.0067 H   0  0  0  0  0  0  0  0  0  0  0  0
  -25.4771   43.4842  -10.6498 H   0  0  0  0  0  0  0  0  0  0  0  0
  -23.8632   42.8658  -11.2544 H   0  0  0  0  0  0  0  0  0  0  0  0
  -23.9746   40.6977  -12.7362 H   0  0  0  0  0  0  0  0  0  0  0  0
  -24.9970   39.9376  -14.8964 H   0  0  0  0  0  0  0  0  0  0  0  0
  -29.3798   41.2918  -15.7198 H   0  0  0  0  0  0  0  0  0  0  0  0
  -28.4227   42.5732  -16.6003 H   0  0  0  0  0  0  0  0  0  0  0  0
  1  2  2  0
  2  3  1  0
  3  4  1  0
  4  5  1  0
  5  6  1  0
  6  7  2  0
  7  8  1  0
  8  9  2  0
  9 10  1  0
 10 11  2  0
 11 12  1  0
 12 13  2  0
 12 14  1  0
 14 15  1  0
 15 16  1  0
 16 17  2  0
 17 18  1  0
 18 19  2  0
 19 20  1  0
 20 21  1  0
 19 22  1  0
 22 23  2  0
 15 24  1  0
 24 25  2  0
 25 26  1  0
 26 27  2  0
 27 28  1  0
 28 29  1  0
 27 30  1  0
 30 31  2  0
  4 32  1  0
 32 33  1  0
 33 34  2  0
 34 35  1  0
 35 36  2  0
 36 37  1  0
 37 38  2  0
 38 39  1  0
 39 40  2  0
 39 41  1  0
 37 42  1  0
 42 43  1  0
 43 44  1  0
 11  6  1  0
 23 16  1  0
 31 24  1  0
 38 33  1  0
 44 36  1  0
  1 45  1  0
  1 46  1  0
  2 47  1  0
  3 48  1  0
  3 49  1  0
  4 50  1  6
  5 51  1  0
  5 52  1  0
  7 53  1  0
  8 54  1  0
  9 55  1  0
 10 56  1  0
 14 57  1  0
 15 58  1  0
 17 59  1  0
 18 60  1  0
 21 61  1  0
 21 62  1  0
 21 63  1  0
 22 64  1  0
 23 65  1  0
 25 66  1  0
 26 67  1  0
 29 68  1  0
 29 69  1  0
 29 70  1  0
 30 71  1  0
 31 72  1  0
 32 73  1  0
 32 74  1  0
 34 75  1  0
 35 76  1  0
 43 77  1  0
 43 78  1  0
M  CHG  2   4   1  41  -1
M  END
>  <meeko>  (3) 
{"is_sidechain": [false], "free_energy": -6.5, "intermolecular_energy": -12.991, "internal_energy": -3.271}

$$$$
3zso_ligand
     RDKit          3D

 78 82  0  0  0  0  0  0  0  0999 V2000
  -23.5210   41.7560   -1.1030 C   0  0  0  0  0  0  0  0  0  0  0  0
  -24.8530   41.7570   -1.2480 C   0  0  0  0  0  0  0  0  0  0  0  0
  -25.5740   41.3700   -2.5070 C   0  0  0  0  0  0  0  0  0  0  0  0
  -24.7240   41.5790   -3.7300 N   0  0  2  0  0  0  0  0  0  0  0  0
  -25.1350   42.8220   -4.5050 C   0  0  0  0  0  0  0  0  0  0  0  0
  -26.2480   42.6170   -5.5090 C   0  0  0  0  0  0  0  0  0  0  0  0
  -27.5860   42.5820   -5.0840 C   0  0  0  0  0  0  0  0  0  0  0  0
  -28.6220   42.4430   -6.0120 C   0  0  0  0  0  0  0  0  0  0  0  0
  -28.3400   42.3450   -7.3760 C   0  0  0  0  0  0  0  0  0  0  0  0
  -27.0200   42.3810   -7.8180 C   0  0  0  0  0  0  0  0  0  0  0  0
  -25.9850   42.5160   -6.8880 C   0  0  0  0  0  0  0  0  0  0  0  0
  -24.5910   42.5010   -7.3680 C   0  0  0  0  0  0  0  0  0  0  0  0
  -23.9720   43.5570   -7.3740 O   0  0  0  0  0  0  0  0  0  0  0  0
  -24.1620   41.2950   -7.8530 N   0  0  0  0  0  0  0  0  0  0  0  0
  -22.9780   41.2140   -8.7010 C   0  0  0  0  0  0  0  0  0  0  0  0
  -23.3420   41.7020  -10.0990 C   0  0  0  0  0  0  0  0  0  0  0  0
  -22.7720   42.8940  -10.5760 C   0  0  0  0  0  0  0  0  0  0  0  0
  -23.1160   43.3960  -11.8330 C   0  0  0  0  0  0  0  0  0  0  0  0
  -24.0370   42.7280  -12.6410 C   0  0  0  0  0  0  0  0  0  0  0  0
  -24.2830   43.3240  -13.8470 O   0  0  0  0  0  0  0  0  0  0  0  0
  -23.5170   44.4800  -14.1600 C   0  0  0  0  0  0  0  0  0  0  0  0
  -24.6240   41.5540  -12.1720 C   0  0  0  0  0  0  0  0  0  0  0  0
  -24.2850   41.0500  -10.9080 C   0  0  0  0  0  0  0  0  0  0  0  0
  -22.3110   39.8400   -8.6760 C   0  0  0  0  0  0  0  0  0  0  0  0
  -23.1130   38.6920   -8.5630 C   0  0  0  0  0  0  0  0  0  0  0  0
  -22.5440   37.4140   -8.5130 C   0  0  0  0  0  0  0  0  0  0  0  0
  -21.1600   37.2610   -8.5700 C   0  0  0  0  0  0  0  0  0  0  0  0
  -20.4770   36.0760   -8.5290 O   0  0  0  0  0  0  0  0  0  0  0  0
  -20.7540   35.1420   -9.5660 C   0  0  0  0  0  0  0  0  0  0  0  0
  -20.3540   38.3960   -8.6770 C   0  0  0  0  0  0  0  0  0  0  0  0
  -20.9200   39.6730   -8.7270 C   0  0  0  0  0  0  0  0  0  0  0  0
  -24.7760   40.3510   -4.6300 C   0  0  0  0  0  0  0  0  0  0  0  0
  -23.4750   39.5840   -4.7000 C   0  0  0  0  0  0  0  0  0  0  0  0
  -22.2410   40.2770   -4.6760 C   0  0  0  0  0  0  0  0  0  0  0  0
  -21.0320   39.5850   -4.7670 C   0  0  0  0  0  0  0  0  0  0  0  0
  -21.0800   38.2110   -4.8840 C   0  0  0  0  0  0  0  0  0  0  0  0
  -22.2680   37.5170   -4.9140 C   0  0  0  0  0  0  0  0  0  0  0  0
  -23.4830   38.1710   -4.8240 C   0  0  0  0  0  0  0  0  0  0  0  0
  -24.7760   37.4340   -4.9010 C   0  0  0  0  0  0  0  0  0  0  0  0
  -25.4250   37.3370   -3.8200 O   0  0  0  0  0  0  0  0  0  0  0  0
  -25.2020   37.1760   -6.0660 O   0  0  0  0  0  0  0  0  0  0  0  0
  -22.0700   36.1780   -5.0340 O   0  0  0  0  0  0  0  0  0  0  0  0
  -20.6350   36.1050   -5.0680 C   0  0  0  0  0  0  0  0  0  0  0  0
  -19.9950   37.3960   -4.9850 O   0  0  0  0  0  0  0  0  0  0  0  0
  -23.0719   42.0544   -0.1442 H   0  0  0  0  0  0  0  0  0  0  0  0
  -22.8766   41.4568   -1.9428 H   0  0  0  0  0  0  0  0  0  0  0  0
  -25.4612   42.0628   -0.3839 H   0  0  0  0  0  0  0  0  0  0  0  0
  -25.8517   40.3074   -2.4449 H   0  0  0  0  0  0  0  0  0  0  0  0
  -26.4644   42.0093   -2.5988 H   0  0  0  0  0  0  0  0  0  0  0  0
  -23.7550   41.7130   -3.4470 H   0  0  0  0  0  0  0  0  0  0  0  0
  -25.4659   43.5807   -3.7805 H   0  0  0  0  0  0  0  0  0  0  0  0
  -24.2517   43.1249   -5.0864 H   0  0  0  0  0  0  0  0  0  0  0  0
  -27.8206   42.6646   -4.0125 H   0  0  0  0  0  0  0  0  0  0  0  0
  -29.6656   42.4106   -5.6657 H   0  0  0  0  0  0  0  0  0  0  0  0
  -29.1603   42.2394   -8.1012 H   0  0  0  0  0  0  0  0  0  0  0  0
  -26.7932   42.3037   -8.8916 H   0  0  0  0  0  0  0  0  0  0  0  0
  -24.8520   40.5680   -8.0000 H   0  0  0  0  0  0  0  0  0  0  0  0
  -22.1999   41.8781   -8.2965 H   0  0  0  0  0  0  0  0  0  0  0  0
  -22.0469   43.4379   -9.9527 H   0  0  0  0  0  0  0  0  0  0  0  0
  -22.6556   44.3289  -12.1903 H   0  0  0  0  0  0  0  0  0  0  0  0
  -23.1933   44.9685  -13.2291 H   0  0  0  0  0  0  0  0  0  0  0  0
  -22.6338   44.1869  -14.7466 H   0  0  0  0  0  0  0  0  0  0  0  0
  -24.1312   45.1791  -14.7466 H   0  0  0  0  0  0  0  0  0  0  0  0
  -25.3562   41.0206  -12.7960 H   0  0  0  0  0  0  0  0  0  0  0  0
  -24.7657   40.1295  -10.5452 H   0  0  0  0  0  0  0  0  0  0  0  0
  -24.2066   38.7993   -8.5130 H   0  0  0  0  0  0  0  0  0  0  0  0
  -23.1909   36.5283   -8.4285 H   0  0  0  0  0  0  0  0  0  0  0  0
  -21.0403   34.1766   -9.1231 H   0  0  0  0  0  0  0  0  0  0  0  0
  -21.5790   35.5190  -10.1883 H   0  0  0  0  0  0  0  0  0  0  0  0
  -19.8569   35.0083  -10.1883 H   0  0  0  0  0  0  0  0  0  0  0  0
  -19.2607   38.2839   -8.7225 H   0  0  0  0  0  0  0  0  0  0  0  0
  -20.2679   40.5552   -8.8071 H   0  0  0  0  0  0  0  0  0  0  0  0
  -25.5557   39.6754   -4.2485 H   0  0  0  0  0  0  0  0  0  0  0  0
  -24.9881   40.7111   -5.6475 H   0  0  0  0  0  0  0  0  0  0  0  0
  -22.2346   41.3732   -4.5846 H   0  0  0  0  0  0  0  0  0  0  0  0
  -20.0704   40.1188   -4.7461 H   0  0  0  0  0  0  0  0  0  0  0  0
  -20.2965   35.4924   -4.2194 H   0  0  0  0  0  0  0  0  0  0  0  0
  -20.3543   35.6641   -6.0359 H   0  0  0  0  0  0  0  0  0  0  0  0
  1  2  2  0
  2  3  1  0
  3  4  1  0
  4  5  1  0
  5  6  1  0
  6  7  2  0
  7  8  1  0
  8  9  2  0
  9 10  1  0
 10 11  2  0
 11 12  1  0
 12 13  2  0
 12 14  1  0
 14 15  1  0
 15 16  1  0
 16 17  2  0
 17 18  1  0
 18 19  2  0
 19 20  1  0
 20 21  1  0
 19 22  1  0
 22 23  2  0
 15 24  1  0
 24 25  2  0
 25 26  1  0
 26 27  2  0
 27 28  1  0
 28 29  1  0
 27 30  1  0
 30 31  2  0
  4 32  1  0
 32 33  1  0
 33 34  2  0
 34 35  1  0
 35 36  2  0
 36 37  1  0
 37 38  2  0
 38 39  1  0
 39 40  2  0
 39 41  1  0
 37 42  1  0
 42 43  1  0
 43 44  1  0
 11  6  1  0
 23 16  1  0
 31 24  1  0
 38 33  1  0
 44 36  1  0
  1 45  1  0
  1 46  1  0
  2 47  1  0
  3 48  1  0
  3 49  1  0
  4 50  1  1
  5 51  1  0
  5 52  1  0
  7 53  1  0
  8 54  1  0
  9 55  1  0
 10 56  1  0
 14 57  1  0
 15 58  1  0
 17 59  1  0
 18 60  1  0
 21 61  1  0
 21 62  1  0
 21 63  1  0
 22 64  1  0
 23 65  1  0
 25 66  1  0
 26 67  1  0
 29 68  1  0
 29 69  1  0
 29 70  1  0
 30 71  1  0
 31 72  1  0
 32 73  1  0
 32 74  1  0
 34 75  1  0
 35 76  1  0
 43 77  1  0
 43 78  1  0
M  CHG  2   4   1  41  -1
M  END
>  <meeko>  (4) 
{"is_sidechain": [false], "free_energy": -6.436, "intermolecular_energy": -11.866, "internal_energy": -4.284}

$$$$
3zso_ligand
     RDKit          3D

 78 82  0  0  0  0  0  0  0  0999 V2000
  -26.6110   39.7860   -3.6630 C   0  0  0  0  0  0  0  0  0  0  0  0
  -25.5300   39.6600   -4.4450 C   0  0  0  0  0  0  0  0  0  0  0  0
  -24.6770   40.8030   -4.9110 C   0  0  0  0  0  0  0  0  0  0  0  0
  -23.7940   40.4120   -6.0640 N   0  0  2  0  0  0  0  0  0  0  0  0
  -23.1810   41.6240   -6.7510 C   0  0  0  0  0  0  0  0  0  0  0  0
  -21.7750   41.4270   -7.2740 C   0  0  0  0  0  0  0  0  0  0  0  0
  -20.8740   40.5980   -6.5860 C   0  0  0  0  0  0  0  0  0  0  0  0
  -19.5910   40.3720   -7.0920 C   0  0  0  0  0  0  0  0  0  0  0  0
  -19.1890   40.9650   -8.2900 C   0  0  0  0  0  0  0  0  0  0  0  0
  -20.0680   41.7880   -8.9880 C   0  0  0  0  0  0  0  0  0  0  0  0
  -21.3510   42.0150   -8.4800 C   0  0  0  0  0  0  0  0  0  0  0  0
  -22.2510   42.9300   -9.2050 C   0  0  0  0  0  0  0  0  0  0  0  0
  -22.2030   44.1220   -8.9340 O   0  0  0  0  0  0  0  0  0  0  0  0
  -23.1290   42.3170  -10.0590 N   0  0  0  0  0  0  0  0  0  0  0  0
  -24.3120   43.0220  -10.5390 C   0  0  0  0  0  0  0  0  0  0  0  0
  -25.2890   43.1880   -9.3790 C   0  0  0  0  0  0  0  0  0  0  0  0
  -26.0330   42.0780   -8.9490 C   0  0  0  0  0  0  0  0  0  0  0  0
  -26.9690   42.2020   -7.9200 C   0  0  0  0  0  0  0  0  0  0  0  0
  -27.1900   43.4320   -7.3000 C   0  0  0  0  0  0  0  0  0  0  0  0
  -28.1310   43.4160   -6.3080 O   0  0  0  0  0  0  0  0  0  0  0  0
  -28.5090   42.1420   -5.8030 C   0  0  0  0  0  0  0  0  0  0  0  0
  -26.4700   44.5460   -7.7300 C   0  0  0  0  0  0  0  0  0  0  0  0
  -25.5330   44.4270   -8.7660 C   0  0  0  0  0  0  0  0  0  0  0  0
  -24.9280   42.3860  -11.7840 C   0  0  0  0  0  0  0  0  0  0  0  0
  -24.3890   41.1860  -12.2790 C   0  0  0  0  0  0  0  0  0  0  0  0
  -24.9060   40.5810  -13.4300 C   0  0  0  0  0  0  0  0  0  0  0  0
  -25.9710   41.1670  -14.1110 C   0  0  0  0  0  0  0  0  0  0  0  0
  -26.5680   40.6840  -15.2440 O   0  0  0  0  0  0  0  0  0  0  0  0
  -27.7300   41.3680  -15.6960 C   0  0  0  0  0  0  0  0  0  0  0  0
  -26.5100   42.3620  -13.6310 C   0  0  0  0  0  0  0  0  0  0  0  0
  -25.9960   42.9690  -12.4820 C   0  0  0  0  0  0  0  0  0  0  0  0
  -24.5720   39.5700   -7.0680 C   0  0  0  0  0  0  0  0  0  0  0  0
  -23.6990   38.7390   -7.9820 C   0  0  0  0  0  0  0  0  0  0  0  0
  -23.5600   39.0950   -9.3450 C   0  0  0  0  0  0  0  0  0  0  0  0
  -22.7790   38.3220  -10.2070 C   0  0  0  0  0  0  0  0  0  0  0  0
  -22.1540   37.2070   -9.6890 C   0  0  0  0  0  0  0  0  0  0  0  0
  -22.2790   36.8410   -8.3690 C   0  0  0  0  0  0  0  0  0  0  0  0
  -23.0420   37.5830   -7.4880 C   0  0  0  0  0  0  0  0  0  0  0  0
  -23.2210   37.1710   -6.0670 C   0  0  0  0  0  0  0  0  0  0  0  0
  -22.4510   37.7210   -5.2280 O   0  0  0  0  0  0  0  0  0  0  0  0
  -24.2590   36.4910   -5.8110 O   0  0  0  0  0  0  0  0  0  0  0  0
  -21.5760   35.7120   -8.0880 O   0  0  0  0  0  0  0  0  0  0  0  0
  -20.9930   35.4140   -9.3670 C   0  0  0  0  0  0  0  0  0  0  0  0
  -21.3650   36.3530  -10.3970 O   0  0  0  0  0  0  0  0  0  0  0  0
  -27.1822   38.8940   -3.3663 H   0  0  0  0  0  0  0  0  0  0  0  0
  -26.9271   40.7814   -3.3178 H   0  0  0  0  0  0  0  0  0  0  0  0
  -25.2481   38.6470   -4.7681 H   0  0  0  0  0  0  0  0  0  0  0  0
  -25.3313   41.6283   -5.2284 H   0  0  0  0  0  0  0  0  0  0  0  0
  -24.0302   41.1078   -4.0751 H   0  0  0  0  0  0  0  0  0  0  0  0
  -23.0210   39.8450   -5.7200 H   0  0  0  0  0  0  0  0  0  0  0  0
  -23.8250   41.8952   -7.6006 H   0  0  0  0  0  0  0  0  0  0  0  0
  -23.1131   42.4080   -5.9824 H   0  0  0  0  0  0  0  0  0  0  0  0
  -21.1803   40.1232   -5.6422 H   0  0  0  0  0  0  0  0  0  0  0  0
  -18.8935   39.7226   -6.5427 H   0  0  0  0  0  0  0  0  0  0  0  0
  -18.1778   40.7819   -8.6823 H   0  0  0  0  0  0  0  0  0  0  0  0
  -19.7556   42.2567   -9.9328 H   0  0  0  0  0  0  0  0  0  0  0  0
  -23.2130   41.3080  -10.0120 H   0  0  0  0  0  0  0  0  0  0  0  0
  -24.0178   44.0233  -10.8865 H   0  0  0  0  0  0  0  0  0  0  0  0
  -25.8771   41.1000   -9.4277 H   0  0  0  0  0  0  0  0  0  0  0  0
  -27.5388   41.3192   -7.5945 H   0  0  0  0  0  0  0  0  0  0  0  0
  -28.5017   42.1666   -4.7033 H   0  0  0  0  0  0  0  0  0  0  0  0
  -29.5199   41.8923   -6.1575 H   0  0  0  0  0  0  0  0  0  0  0  0
  -27.7978   41.3813   -6.1575 H   0  0  0  0  0  0  0  0  0  0  0  0
  -26.6381   45.5233   -7.2539 H   0  0  0  0  0  0  0  0  0  0  0  0
  -24.9813   45.3169   -9.1032 H   0  0  0  0  0  0  0  0  0  0  0  0
  -23.5462   40.7143  -11.7525 H   0  0  0  0  0  0  0  0  0  0  0  0
  -24.4705   39.6403  -13.7981 H   0  0  0  0  0  0  0  0  0  0  0  0
  -28.3137   41.7116  -14.8292 H   0  0  0  0  0  0  0  0  0  0  0  0
  -27.4320   42.2348  -16.3042 H   0  0  0  0  0  0  0  0  0  0  0  0
  -28.3432   40.6867  -16.3042 H   0  0  0  0  0  0  0  0  0  0  0  0
  -27.3499   42.8317  -14.1639 H   0  0  0  0  0  0  0  0  0  0  0  0
  -26.4327   43.9122  -12.1218 H   0  0  0  0  0  0  0  0  0  0  0  0
  -25.2339   38.8910   -6.5105 H   0  0  0  0  0  0  0  0  0  0  0  0
  -25.1267   40.2711   -7.7089 H   0  0  0  0  0  0  0  0  0  0  0  0
  -24.0723   39.9895   -9.7291 H   0  0  0  0  0  0  0  0  0  0  0  0
  -22.6658   38.5942  -11.2668 H   0  0  0  0  0  0  0  0  0  0  0  0
  -19.8980   35.4259   -9.2628 H   0  0  0  0  0  0  0  0  0  0  0  0
  -21.3697   34.4273   -9.6745 H   0  0  0  0  0  0  0  0  0  0  0  0
  1  2  2  0
  2  3  1  0
  3  4  1  0
  4  5  1  0
  5  6  1  0
  6  7  2  0
  7  8  1  0
  8  9  2  0
  9 10  1  0
 10 11  2  0
 11 12  1  0
 12 13  2  0
 12 14  1  0
 14 15  1  0
 15 16  1  0
 16 17  2  0
 17 18  1  0
 18 19  2  0
 19 20  1  0
 20 21  1  0
 19 22  1  0
 22 23  2  0
 15 24  1  0
 24 25  2  0
 25 26  1  0
 26 27  2  0
 27 28  1  0
 28 29  1  0
 27 30  1  0
 30 31  2  0
  4 32  1  0
 32 33  1  0
 33 34  2  0
 34 35  1  0
 35 36  2  0
 36 37  1  0
 37 38  2  0
 38 39  1  0
 39 40  2  0
 39 41  1  0
 37 42  1  0
 42 43  1  0
 43 44  1  0
 11  6  1  0
 23 16  1  0
 31 24  1  0
 38 33  1  0
 44 36  1  0
  1 45  1  0
  1 46  1  0
  2 47  1  0
  3 48  1  0
  3 49  1  0
  4 50  1  1
  5 51  1  0
  5 52  1  0
  7 53  1  0
  8 54  1  0
  9 55  1  0
 10 56  1  0
 14 57  1  0
 15 58  1  0
 17 59  1  0
 18 60  1  0
 21 61  1  0
 21 62  1  0
 21 63  1  0
 22 64  1  0
 23 65  1  0
 25 66  1  0
 26 67  1  0
 29 68  1  0
 29 69  1  0
 29 70  1  0
 30 71  1  0
 31 72  1  0
 32 73  1  0
 32 74  1  0
 34 75  1  0
 35 76  1  0
 43 77  1  0
 43 78  1  0
M  CHG  2   4   1  41  -1
M  END
>  <meeko>  (5) 
{"is_sidechain": [false], "free_energy": -6.4, "intermolecular_energy": -11.509, "internal_energy": -4.577}

$$$$
3zso_ligand
     RDKit          3D

 78 82  0  0  0  0  0  0  0  0999 V2000
  -25.7820   41.6060   -0.8410 C   0  0  0  0  0  0  0  0  0  0  0  0
  -26.3360   41.7430   -2.0540 C   0  0  0  0  0  0  0  0  0  0  0  0
  -26.3210   40.6880   -3.1210 C   0  0  0  0  0  0  0  0  0  0  0  0
  -25.7530   41.2040   -4.4150 N   0  0  2  0  0  0  0  0  0  0  0  0
  -24.2610   41.4860   -4.3110 C   0  0  0  0  0  0  0  0  0  0  0  0
  -23.4010   40.2880   -3.9720 C   0  0  0  0  0  0  0  0  0  0  0  0
  -22.7170   40.2320   -2.7460 C   0  0  0  0  0  0  0  0  0  0  0  0
  -21.9620   39.1060   -2.4070 C   0  0  0  0  0  0  0  0  0  0  0  0
  -21.8820   38.0200   -3.2790 C   0  0  0  0  0  0  0  0  0  0  0  0
  -22.5540   38.0540   -4.4980 C   0  0  0  0  0  0  0  0  0  0  0  0
  -23.3070   39.1830   -4.8380 C   0  0  0  0  0  0  0  0  0  0  0  0
  -23.9710   39.2240   -6.1530 C   0  0  0  0  0  0  0  0  0  0  0  0
  -25.1280   38.8340   -6.2280 O   0  0  0  0  0  0  0  0  0  0  0  0
  -23.1690   39.6180   -7.1910 N   0  0  0  0  0  0  0  0  0  0  0  0
  -23.5520   39.3430   -8.5710 C   0  0  0  0  0  0  0  0  0  0  0  0
  -22.7690   38.1300   -9.0640 C   0  0  0  0  0  0  0  0  0  0  0  0
  -22.3600   37.1590   -8.1370 C   0  0  0  0  0  0  0  0  0  0  0  0
  -21.6030   36.0580   -8.5440 C   0  0  0  0  0  0  0  0  0  0  0  0
  -21.2330   35.9010   -9.8800 C   0  0  0  0  0  0  0  0  0  0  0  0
  -20.4960   34.7800  -10.1450 O   0  0  0  0  0  0  0  0  0  0  0  0
  -19.7160   34.2570   -9.0770 C   0  0  0  0  0  0  0  0  0  0  0  0
  -21.6180   36.8670  -10.8080 C   0  0  0  0  0  0  0  0  0  0  0  0
  -22.3730   37.9770  -10.4020 C   0  0  0  0  0  0  0  0  0  0  0  0
  -23.4440   40.5650   -9.4810 C   0  0  0  0  0  0  0  0  0  0  0  0
  -22.5960   41.6230   -9.1110 C   0  0  0  0  0  0  0  0  0  0  0  0
  -22.4830   42.7710   -9.9030 C   0  0  0  0  0  0  0  0  0  0  0  0
  -23.2220   42.8860  -11.0790 C   0  0  0  0  0  0  0  0  0  0  0  0
  -23.2080   43.9500  -11.9390 O   0  0  0  0  0  0  0  0  0  0  0  0
  -23.2970   43.6510  -13.3270 C   0  0  0  0  0  0  0  0  0  0  0  0
  -24.0720   41.8440  -11.4530 C   0  0  0  0  0  0  0  0  0  0  0  0
  -24.1860   40.6960  -10.6640 C   0  0  0  0  0  0  0  0  0  0  0  0
  -26.4990   42.4550   -4.8620 C   0  0  0  0  0  0  0  0  0  0  0  0
  -26.5840   42.6170   -6.3630 C   0  0  0  0  0  0  0  0  0  0  0  0
  -25.7430   43.5450   -7.0240 C   0  0  0  0  0  0  0  0  0  0  0  0
  -25.8280   43.7250   -8.4060 C   0  0  0  0  0  0  0  0  0  0  0  0
  -26.7560   42.9760   -9.1000 C   0  0  0  0  0  0  0  0  0  0  0  0
  -27.5860   42.0730   -8.4770 C   0  0  0  0  0  0  0  0  0  0  0  0
  -27.5280   41.8680   -7.1120 C   0  0  0  0  0  0  0  0  0  0  0  0
  -28.4520   40.9260   -6.4210 C   0  0  0  0  0  0  0  0  0  0  0  0
  -29.6060   41.3710   -6.1580 O   0  0  0  0  0  0  0  0  0  0  0  0
  -28.0750   39.7160   -6.3660 O   0  0  0  0  0  0  0  0  0  0  0  0
  -28.4140   41.4540   -9.3600 O   0  0  0  0  0  0  0  0  0  0  0  0
  -28.0110   42.0580  -10.6000 C   0  0  0  0  0  0  0  0  0  0  0  0
  -26.9630   43.0380  -10.4440 O   0  0  0  0  0  0  0  0  0  0  0  0
  -25.8376   42.4303   -0.1147 H   0  0  0  0  0  0  0  0  0  0  0  0
  -25.2718   40.6693   -0.5720 H   0  0  0  0  0  0  0  0  0  0  0  0
  -26.8366   42.6953   -2.2832 H   0  0  0  0  0  0  0  0  0  0  0  0
  -25.7078   39.8425   -2.7760 H   0  0  0  0  0  0  0  0  0  0  0  0
  -27.3597   40.3765   -3.3058 H   0  0  0  0  0  0  0  0  0  0  0  0
  -25.8710   40.4990   -5.1400 H   0  0  0  0  0  0  0  0  0  0  0  0
  -23.9220   41.8855   -5.2782 H   0  0  0  0  0  0  0  0  0  0  0  0
  -24.1414   42.1934   -3.4771 H   0  0  0  0  0  0  0  0  0  0  0  0
  -22.7762   41.0803   -2.0482 H   0  0  0  0  0  0  0  0  0  0  0  0
  -21.4272   39.0758   -1.4462 H   0  0  0  0  0  0  0  0  0  0  0  0
  -21.2877   37.1363   -3.0034 H   0  0  0  0  0  0  0  0  0  0  0  0
  -22.4933   37.1998   -5.1884 H   0  0  0  0  0  0  0  0  0  0  0  0
  -22.1720   39.6900   -7.0220 H   0  0  0  0  0  0  0  0  0  0  0  0
  -24.6238   39.0980   -8.6057 H   0  0  0  0  0  0  0  0  0  0  0  0
  -22.6386   37.2662   -7.0783 H   0  0  0  0  0  0  0  0  0  0  0  0
  -21.2950   35.3060   -7.8026 H   0  0  0  0  0  0  0  0  0  0  0  0
  -20.1618   34.5559   -8.1168 H   0  0  0  0  0  0  0  0  0  0  0  0
  -19.6916   33.1593   -9.1441 H   0  0  0  0  0  0  0  0  0  0  0  0
  -18.6913   34.6513   -9.1441 H   0  0  0  0  0  0  0  0  0  0  0  0
  -21.3284   36.7583  -11.8636 H   0  0  0  0  0  0  0  0  0  0  0  0
  -22.6589   38.7385  -11.1425 H   0  0  0  0  0  0  0  0  0  0  0  0
  -22.0109   41.5472   -8.1826 H   0  0  0  0  0  0  0  0  0  0  0  0
  -21.8092   43.5847   -9.5967 H   0  0  0  0  0  0  0  0  0  0  0  0
  -23.6086   42.6041  -13.4573 H   0  0  0  0  0  0  0  0  0  0  0  0
  -24.0364   44.3151  -13.7985 H   0  0  0  0  0  0  0  0  0  0  0  0
  -22.3148   43.8026  -13.7985 H   0  0  0  0  0  0  0  0  0  0  0  0
  -24.6590   41.9273  -12.3795 H   0  0  0  0  0  0  0  0  0  0  0  0
  -24.8643   39.8873  -10.9738 H   0  0  0  0  0  0  0  0  0  0  0  0
  -27.5221   42.4096   -4.4605 H   0  0  0  0  0  0  0  0  0  0  0  0
  -25.9321   43.3170   -4.4805 H   0  0  0  0  0  0  0  0  0  0  0  0
  -25.0152   44.1301   -6.4426 H   0  0  0  0  0  0  0  0  0  0  0  0
  -25.1752   44.4419   -8.9255 H   0  0  0  0  0  0  0  0  0  0  0  0
  -27.6510   41.2661  -11.2732 H   0  0  0  0  0  0  0  0  0  0  0  0
  -28.8884   42.5816  -11.0075 H   0  0  0  0  0  0  0  0  0  0  0  0
  1  2  2  0
  2  3  1  0
  3  4  1  0
  4  5  1  0
  5  6  1  0
  6  7  2  0
  7  8  1  0
  8  9  2  0
  9 10  1  0
 10 11  2  0
 11 12  1  0
 12 13  2  0
 12 14  1  0
 14 15  1  0
 15 16  1  0
 16 17  2  0
 17 18  1  0
 18 19  2  0
 19 20  1  0
 20 21  1  0
 19 22  1  0
 22 23  2  0
 15 24  1  0
 24 25  2  0
 25 26  1  0
 26 27  2  0
 27 28  1  0
 28 29  1  0
 27 30  1  0
 30 31  2  0
  4 32  1  0
 32 33  1  0
 33 34  2  0
 34 35  1  0
 35 36  2  0
 36 37  1  0
 37 38  2  0
 38 39  1  0
 39 40  2  0
 39 41  1  0
 37 42  1  0
 42 43  1  0
 43 44  1  0
 11  6  1  0
 23 16  1  0
 31 24  1  0
 38 33  1  0
 44 36  1  0
  1 45  1  0
  1 46  1  0
  2 47  1  0
  3 48  1  0
  3 49  1  0
  4 50  1  6
  5 51  1  0
  5 52  1  0
  7 53  1  0
  8 54  1  0
  9 55  1  0
 10 56  1  0
 14 57  1  0
 15 58  1  0
 17 59  1  0
 18 60  1  0
 21 61  1  0
 21 62  1  0
 21 63  1  0
 22 64  1  0
 23 65  1  0
 25 66  1  0
 26 67  1  0
 29 68  1  0
 29 69  1  0
 29 70  1  0
 30 71  1  0
 31 72  1  0
 32 73  1  0
 32 74  1  0
 34 75  1  0
 35 76  1  0
 43 77  1  0
 43 78  1  0
M  CHG  2   4   1  41  -1
M  END
>  <meeko>  (6) 
{"is_sidechain": [false], "free_energy": -6.189, "intermolecular_energy": -11.717, "internal_energy": -3.998}

$$$$
3zso_ligand
     RDKit          3D

 78 82  0  0  0  0  0  0  0  0999 V2000
  -27.3430   40.0810   -3.6310 C   0  0  0  0  0  0  0  0  0  0  0  0
  -28.0500   40.8480   -4.4720 C   0  0  0  0  0  0  0  0  0  0  0  0
  -27.8140   42.3140   -4.6920 C   0  0  0  0  0  0  0  0  0  0  0  0
  -27.0490   42.5770   -5.9600 N   0  0  2  0  0  0  0  0  0  0  0  0
  -25.6750   43.1700   -5.6850 C   0  0  0  0  0  0  0  0  0  0  0  0
  -24.7510   42.3000   -4.8600 C   0  0  0  0  0  0  0  0  0  0  0  0
  -24.3290   42.7220   -3.5890 C   0  0  0  0  0  0  0  0  0  0  0  0
  -23.5160   41.9000   -2.8030 C   0  0  0  0  0  0  0  0  0  0  0  0
  -23.1180   40.6460   -3.2690 C   0  0  0  0  0  0  0  0  0  0  0  0
  -23.5280   40.2080   -4.5250 C   0  0  0  0  0  0  0  0  0  0  0  0
  -24.3380   41.0320   -5.3120 C   0  0  0  0  0  0  0  0  0  0  0  0
  -24.7210   40.5750   -6.6600 C   0  0  0  0  0  0  0  0  0  0  0  0
  -25.7040   39.8550   -6.7670 O   0  0  0  0  0  0  0  0  0  0  0  0
  -23.8580   40.9400   -7.6590 N   0  0  0  0  0  0  0  0  0  0  0  0
  -23.8820   40.2570   -8.9470 C   0  0  0  0  0  0  0  0  0  0  0  0
  -22.8690   39.1170   -8.9170 C   0  0  0  0  0  0  0  0  0  0  0  0
  -23.3140   37.8160   -8.6340 C   0  0  0  0  0  0  0  0  0  0  0  0
  -22.4100   36.7540   -8.5530 C   0  0  0  0  0  0  0  0  0  0  0  0
  -21.0440   36.9640   -8.7460 C   0  0  0  0  0  0  0  0  0  0  0  0
  -20.2700   35.8410   -8.6410 O   0  0  0  0  0  0  0  0  0  0  0  0
  -20.3970   34.8750   -9.6760 C   0  0  0  0  0  0  0  0  0  0  0  0
  -20.5870   38.2540   -9.0090 C   0  0  0  0  0  0  0  0  0  0  0  0
  -21.4910   39.3230   -9.0860 C   0  0  0  0  0  0  0  0  0  0  0  0
  -23.7160   41.2040  -10.1350 C   0  0  0  0  0  0  0  0  0  0  0  0
  -24.2130   40.8190  -11.3920 C   0  0  0  0  0  0  0  0  0  0  0  0
  -24.0630   41.6450  -12.5120 C   0  0  0  0  0  0  0  0  0  0  0  0
  -23.4070   42.8690  -12.3980 C   0  0  0  0  0  0  0  0  0  0  0  0
  -23.1920   43.7660  -13.4080 O   0  0  0  0  0  0  0  0  0  0  0  0
  -24.1470   44.8100  -13.5510 C   0  0  0  0  0  0  0  0  0  0  0  0
  -22.9050   43.2580  -11.1540 C   0  0  0  0  0  0  0  0  0  0  0  0
  -23.0540   42.4360  -10.0340 C   0  0  0  0  0  0  0  0  0  0  0  0
  -27.8460   43.4910   -6.8820 C   0  0  0  0  0  0  0  0  0  0  0  0
  -27.6910   43.1690   -8.3520 C   0  0  0  0  0  0  0  0  0  0  0  0
  -26.7630   43.8910   -9.1400 C   0  0  0  0  0  0  0  0  0  0  0  0
  -26.6270   43.6240  -10.5040 C   0  0  0  0  0  0  0  0  0  0  0  0
  -27.4250   42.6420  -11.0530 C   0  0  0  0  0  0  0  0  0  0  0  0
  -28.3360   41.9310  -10.3060 C   0  0  0  0  0  0  0  0  0  0  0  0
  -28.4950   42.1690   -8.9540 C   0  0  0  0  0  0  0  0  0  0  0  0
  -29.5100   41.4370   -8.1450 C   0  0  0  0  0  0  0  0  0  0  0  0
  -30.6690   41.9420   -8.1170 O   0  0  0  0  0  0  0  0  0  0  0  0
  -29.1790   40.2780   -7.7530 O   0  0  0  0  0  0  0  0  0  0  0  0
  -29.0060   41.0190  -11.0590 O   0  0  0  0  0  0  0  0  0  0  0  0
  -28.4140   41.2270  -12.3520 C   0  0  0  0  0  0  0  0  0  0  0  0
  -27.4140   42.2670  -12.3620 O   0  0  0  0  0  0  0  0  0  0  0  0
  -27.5817   39.0121   -3.5289 H   0  0  0  0  0  0  0  0  0  0  0  0
  -26.5239   40.5203   -3.0427 H   0  0  0  0  0  0  0  0  0  0  0  0
  -28.8605   40.3696   -5.0414 H   0  0  0  0  0  0  0  0  0  0  0  0
  -28.7861   42.8254   -4.7511 H   0  0  0  0  0  0  0  0  0  0  0  0
  -27.2162   42.6923   -3.8496 H   0  0  0  0  0  0  0  0  0  0  0  0
  -26.8990   41.6980   -6.4510 H   0  0  0  0  0  0  0  0  0  0  0  0
  -25.1877   43.3625   -6.6522 H   0  0  0  0  0  0  0  0  0  0  0  0
  -25.8484   44.0798   -5.0915 H   0  0  0  0  0  0  0  0  0  0  0  0
  -24.6403   43.7063   -3.2091 H   0  0  0  0  0  0  0  0  0  0  0  0
  -23.1879   42.2437   -1.8109 H   0  0  0  0  0  0  0  0  0  0  0  0
  -22.4803   40.0038   -2.6437 H   0  0  0  0  0  0  0  0  0  0  0  0
  -23.2168   39.2202   -4.8958 H   0  0  0  0  0  0  0  0  0  0  0  0
  -22.9650   41.3390   -7.3940 H   0  0  0  0  0  0  0  0  0  0  0  0
  -24.8813   39.8256   -9.1061 H   0  0  0  0  0  0  0  0  0  0  0  0
  -24.3865   37.6307   -8.4742 H   0  0  0  0  0  0  0  0  0  0  0  0
  -22.7791   35.7410   -8.3347 H   0  0  0  0  0  0  0  0  0  0  0  0
  -20.5282   33.8771   -9.2321 H   0  0  0  0  0  0  0  0  0  0  0  0
  -21.2710   35.1172  -10.2984 H   0  0  0  0  0  0  0  0  0  0  0  0
  -19.4901   34.8831  -10.2984 H   0  0  0  0  0  0  0  0  0  0  0  0
  -19.5120   38.4344   -9.1569 H   0  0  0  0  0  0  0  0  0  0  0  0
  -21.1147   40.3379   -9.2817 H   0  0  0  0  0  0  0  0  0  0  0  0
  -24.7282   39.8529  -11.4973 H   0  0  0  0  0  0  0  0  0  0  0  0
  -24.4644   41.3268  -13.4855 H   0  0  0  0  0  0  0  0  0  0  0  0
  -24.4636   45.1561  -12.5560 H   0  0  0  0  0  0  0  0  0  0  0  0
  -23.6953   45.6469  -14.1038 H   0  0  0  0  0  0  0  0  0  0  0  0
  -25.0207   44.4345  -14.1038 H   0  0  0  0  0  0  0  0  0  0  0  0
  -22.3862   44.2229  -11.0548 H   0  0  0  0  0  0  0  0  0  0  0  0
  -22.6481   42.7584   -9.0638 H   0  0  0  0  0  0  0  0  0  0  0  0
  -28.9106   43.4041   -6.6193 H   0  0  0  0  0  0  0  0  0  0  0  0
  -27.4554   44.5089   -6.7363 H   0  0  0  0  0  0  0  0  0  0  0  0
  -26.1426   44.6703   -8.6733 H   0  0  0  0  0  0  0  0  0  0  0  0
  -25.9058   44.1796  -11.1214 H   0  0  0  0  0  0  0  0  0  0  0  0
  -27.9432   40.2870  -12.6756 H   0  0  0  0  0  0  0  0  0  0  0  0
  -29.2192   41.5431  -13.0315 H   0  0  0  0  0  0  0  0  0  0  0  0
  1  2  2  0
  2  3  1  0
  3  4  1  0
  4  5  1  0
  5  6  1  0
  6  7  2  0
  7  8  1  0
  8  9  2  0
  9 10  1  0
 10 11  2  0
 11 12  1  0
 12 13  2  0
 12 14  1  0
 14 15  1  0
 15 16  1  0
 16 17  2  0
 17 18  1  0
 18 19  2  0
 19 20  1  0
 20 21  1  0
 19 22  1  0
 22 23  2  0
 15 24  1  0
 24 25  2  0
 25 26  1  0
 26 27  2  0
 27 28  1  0
 28 29  1  0
 27 30  1  0
 30 31  2  0
  4 32  1  0
 32 33  1  0
 33 34  2  0
 34 35  1  0
 35 36  2  0
 36 37  1  0
 37 38  2  0
 38 39  1  0
 39 40  2  0
 39 41  1  0
 37 42  1  0
 42 43  1  0
 43 44  1  0
 11  6  1  0
 23 16  1  0
 31 24  1  0
 38 33  1  0
 44 36  1  0
  1 45  1  0
  1 46  1  0
  2 47  1  0
  3 48  1  0
  3 49  1  0
  4 50  1  6
  5 51  1  0
  5 52  1  0
  7 53  1  0
  8 54  1  0
  9 55  1  0
 10 56  1  0
 14 57  1  0
 15 58  1  0
 17 59  1  0
 18 60  1  0
 21 61  1  0
 21 62  1  0
 21 63  1  0
 22 64  1  0
 23 65  1  0
 25 66  1  0
 26 67  1  0
 29 68  1  0
 29 69  1  0
 29 70  1  0
 30 71  1  0
 31 72  1  0
 32 73  1  0
 32 74  1  0
 34 75  1  0
 35 76  1  0
 43 77  1  0
 43 78  1  0
M  CHG  2   4   1  41  -1
M  END
>  <meeko>  (7) 
{"is_sidechain": [false], "free_energy": -6.045, "intermolecular_energy": -10.794, "internal_energy": -4.666}

$$$$
3zso_ligand
     RDKit          3D

 78 82  0  0  0  0  0  0  0  0999 V2000
  -20.0570   34.7240   -9.2140 C   0  0  0  0  0  0  0  0  0  0  0  0
  -20.9550   35.6830   -9.4800 C   0  0  0  0  0  0  0  0  0  0  0  0
  -21.9830   36.1810   -8.5080 C   0  0  0  0  0  0  0  0  0  0  0  0
  -21.7080   37.5950   -8.0720 N   0  0  2  0  0  0  0  0  0  0  0  0
  -22.5970   38.0170   -6.9110 C   0  0  0  0  0  0  0  0  0  0  0  0
  -22.0270   37.7540   -5.5340 C   0  0  0  0  0  0  0  0  0  0  0  0
  -21.4700   36.5020   -5.2260 C   0  0  0  0  0  0  0  0  0  0  0  0
  -20.8970   36.2710   -3.9730 C   0  0  0  0  0  0  0  0  0  0  0  0
  -20.8650   37.2830   -3.0120 C   0  0  0  0  0  0  0  0  0  0  0  0
  -21.4090   38.5320   -3.2990 C   0  0  0  0  0  0  0  0  0  0  0  0
  -21.9850   38.7610   -4.5520 C   0  0  0  0  0  0  0  0  0  0  0  0
  -22.6020   40.0730   -4.8210 C   0  0  0  0  0  0  0  0  0  0  0  0
  -21.9530   40.8980   -5.4500 O   0  0  0  0  0  0  0  0  0  0  0  0
  -23.8290   40.2620   -4.2430 N   0  0  0  0  0  0  0  0  0  0  0  0
  -24.3790   41.6040   -4.0910 C   0  0  0  0  0  0  0  0  0  0  0  0
  -23.7910   42.2350   -2.8330 C   0  0  0  0  0  0  0  0  0  0  0  0
  -23.8030   41.5050   -1.6330 C   0  0  0  0  0  0  0  0  0  0  0  0
  -23.3150   42.0670   -0.4510 C   0  0  0  0  0  0  0  0  0  0  0  0
  -22.8070   43.3670   -0.4350 C   0  0  0  0  0  0  0  0  0  0  0  0
  -22.3590   43.7940    0.7840 O   0  0  0  0  0  0  0  0  0  0  0  0
  -22.4130   42.8570    1.8520 C   0  0  0  0  0  0  0  0  0  0  0  0
  -22.8060   44.1080   -1.6160 C   0  0  0  0  0  0  0  0  0  0  0  0
  -23.3000   43.5500   -2.8030 C   0  0  0  0  0  0  0  0  0  0  0  0
  -25.9050   41.6400   -4.1480 C   0  0  0  0  0  0  0  0  0  0  0  0
  -26.5930   40.5840   -4.7710 C   0  0  0  0  0  0  0  0  0  0  0  0
  -27.9890   40.5860   -4.8670 C   0  0  0  0  0  0  0  0  0  0  0  0
  -28.7250   41.6490   -4.3460 C   0  0  0  0  0  0  0  0  0  0  0  0
  -30.0870   41.7770   -4.3750 O   0  0  0  0  0  0  0  0  0  0  0  0
  -30.6110   42.8640   -5.1290 C   0  0  0  0  0  0  0  0  0  0  0  0
  -28.0520   42.7060   -3.7310 C   0  0  0  0  0  0  0  0  0  0  0  0
  -26.6580   42.7060   -3.6330 C   0  0  0  0  0  0  0  0  0  0  0  0
  -21.8740   38.5540   -9.2440 C   0  0  0  0  0  0  0  0  0  0  0  0
  -21.4960   39.9840   -8.9270 C   0  0  0  0  0  0  0  0  0  0  0  0
  -20.1870   40.2890   -8.4860 C   0  0  0  0  0  0  0  0  0  0  0  0
  -19.8300   41.6010   -8.1650 C   0  0  0  0  0  0  0  0  0  0  0  0
  -20.7930   42.5810   -8.2870 C   0  0  0  0  0  0  0  0  0  0  0  0
  -22.0740   42.3050   -8.7080 C   0  0  0  0  0  0  0  0  0  0  0  0
  -22.4600   41.0190   -9.0360 C   0  0  0  0  0  0  0  0  0  0  0  0
  -23.8550   40.7020   -9.4510 C   0  0  0  0  0  0  0  0  0  0  0  0
  -24.6820   40.5030   -8.5150 O   0  0  0  0  0  0  0  0  0  0  0  0
  -24.1260   40.8820  -10.6770 O   0  0  0  0  0  0  0  0  0  0  0  0
  -22.8450   43.4240   -8.7510 O   0  0  0  0  0  0  0  0  0  0  0  0
  -21.9120   44.4280   -8.3200 C   0  0  0  0  0  0  0  0  0  0  0  0
  -20.6060   43.9000   -8.0090 O   0  0  0  0  0  0  0  0  0  0  0  0
  -19.3357   34.4166   -9.9855 H   0  0  0  0  0  0  0  0  0  0  0  0
  -20.0414   34.2444   -8.2242 H   0  0  0  0  0  0  0  0  0  0  0  0
  -20.9367   36.1368  -10.4819 H   0  0  0  0  0  0  0  0  0  0  0  0
  -22.9725   36.1431   -8.9870 H   0  0  0  0  0  0  0  0  0  0  0  0
  -21.9477   35.5375   -7.6166 H   0  0  0  0  0  0  0  0  0  0  0  0
  -20.7460   37.6660   -7.7490 H   0  0  0  0  0  0  0  0  0  0  0  0
  -22.7844   39.0972   -7.0011 H   0  0  0  0  0  0  0  0  0  0  0  0
  -23.5080   37.4051   -6.9861 H   0  0  0  0  0  0  0  0  0  0  0  0
  -21.4850   35.6979   -5.9764 H   0  0  0  0  0  0  0  0  0  0  0  0
  -20.4680   35.2848   -3.7421 H   0  0  0  0  0  0  0  0  0  0  0  0
  -20.4102   37.0937   -2.0285 H   0  0  0  0  0  0  0  0  0  0  0  0
  -21.3857   39.3328   -2.5453 H   0  0  0  0  0  0  0  0  0  0  0  0
  -24.1430   39.5830   -3.5600 H   0  0  0  0  0  0  0  0  0  0  0  0
  -24.0800   42.2151   -4.9554 H   0  0  0  0  0  0  0  0  0  0  0  0
  -24.2010   40.4796   -1.6240 H   0  0  0  0  0  0  0  0  0  0  0  0
  -23.3312   41.4782    0.4780 H   0  0  0  0  0  0  0  0  0  0  0  0
  -22.3821   43.3931    2.8120 H   0  0  0  0  0  0  0  0  0  0  0  0
  -23.3460   42.2782    1.7851 H   0  0  0  0  0  0  0  0  0  0  0  0
  -21.5527   42.1748    1.7851 H   0  0  0  0  0  0  0  0  0  0  0  0
  -22.4153   45.1363   -1.6162 H   0  0  0  0  0  0  0  0  0  0  0  0
  -23.3031   44.1510   -3.7243 H   0  0  0  0  0  0  0  0  0  0  0  0
  -26.0238   39.7413   -5.1904 H   0  0  0  0  0  0  0  0  0  0  0  0
  -28.5068   39.7469   -5.3547 H   0  0  0  0  0  0  0  0  0  0  0  0
  -30.9847   43.6391   -4.4438 H   0  0  0  0  0  0  0  0  0  0  0  0
  -29.8177   43.2866   -5.7631 H   0  0  0  0  0  0  0  0  0  0  0  0
  -31.4358   42.5066   -5.7631 H   0  0  0  0  0  0  0  0  0  0  0  0
  -28.6258   43.5490   -3.3186 H   0  0  0  0  0  0  0  0  0  0  0  0
  -26.1461   43.5499   -3.1474 H   0  0  0  0  0  0  0  0  0  0  0  0
  -21.2386   38.2033  -10.0706 H   0  0  0  0  0  0  0  0  0  0  0  0
  -22.9429   38.5574   -9.5036 H   0  0  0  0  0  0  0  0  0  0  0  0
  -19.4423   39.4846   -8.3948 H   0  0  0  0  0  0  0  0  0  0  0  0
  -18.8125   41.8449   -7.8255 H   0  0  0  0  0  0  0  0  0  0  0  0
  -21.8051   45.1724   -9.1228 H   0  0  0  0  0  0  0  0  0  0  0  0
  -22.3130   44.8687   -7.3953 H   0  0  0  0  0  0  0  0  0  0  0  0
  1  2  2  0
  2  3  1  0
  3  4  1  0
  4  5  1  0
  5  6  1  0
  6  7  2  0
  7  8  1  0
  8  9  2  0
  9 10  1  0
 10 11  2  0
 11 12  1  0
 12 13  2  0
 12 14  1  0
 14 15  1  0
 15 16  1  0
 16 17  2  0
 17 18  1  0
 18 19  2  0
 19 20  1  0
 20 21  1  0
 19 22  1  0
 22 23  2  0
 15 24  1  0
 24 25  2  0
 25 26  1  0
 26 27  2  0
 27 28  1  0
 28 29  1  0
 27 30  1  0
 30 31  2  0
  4 32  1  0
 32 33  1  0
 33 34  2  0
 34 35  1  0
 35 36  2  0
 36 37  1  0
 37 38  2  0
 38 39  1  0
 39 40  2  0
 39 41  1  0
 37 42  1  0
 42 43  1  0
 43 44  1  0
 11  6  1  0
 23 16  1  0
 31 24  1  0
 38 33  1  0
 44 36  1  0
  1 45  1  0
  1 46  1  0
  2 47  1  0
  3 48  1  0
  3 49  1  0
  4 50  1  1
  5 51  1  0
  5 52  1  0
  7 53  1  0
  8 54  1  0
  9 55  1  0
 10 56  1  0
 14 57  1  0
 15 58  1  0
 17 59  1  0
 18 60  1  0
 21 61  1  0
 21 62  1  0
 21 63  1  0
 22 64  1  0
 23 65  1  0
 25 66  1  0
 26 67  1  0
 29 68  1  0
 29 69  1  0
 29 70  1  0
 30 71  1  0
 31 72  1  0
 32 73  1  0
 32 74  1  0
 34 75  1  0
 35 76  1  0
 43 77  1  0
 43 78  1  0
M  CHG  2   4   1  41  -1
M  END
>  <meeko>  (8) 
{"is_sidechain": [false], "free_energy": -6.031, "intermolecular_energy": -12.028, "internal_energy": -3.408}

$$$$
3zso_ligand
     RDKit          3D

 78 82  0  0  0  0  0  0  0  0999 V2000
  -28.1490   42.2330   -5.4330 C   0  0  0  0  0  0  0  0  0  0  0  0
  -27.1690   42.4510   -6.3220 C   0  0  0  0  0  0  0  0  0  0  0  0
  -26.4050   41.3700   -7.0300 C   0  0  0  0  0  0  0  0  0  0  0  0
  -25.4670   41.9300   -8.0640 N   0  0  2  0  0  0  0  0  0  0  0  0
  -24.4180   42.8460   -7.4480 C   0  0  0  0  0  0  0  0  0  0  0  0
  -23.0740   42.8450   -8.1420 C   0  0  0  0  0  0  0  0  0  0  0  0
  -22.6130   44.0000   -8.7950 C   0  0  0  0  0  0  0  0  0  0  0  0
  -21.3510   44.0200   -9.3930 C   0  0  0  0  0  0  0  0  0  0  0  0
  -20.5280   42.8940   -9.3450 C   0  0  0  0  0  0  0  0  0  0  0  0
  -20.9640   41.7390   -8.7000 C   0  0  0  0  0  0  0  0  0  0  0  0
  -22.2290   41.7190   -8.1050 C   0  0  0  0  0  0  0  0  0  0  0  0
  -22.6960   40.4740   -7.4710 C   0  0  0  0  0  0  0  0  0  0  0  0
  -23.3000   39.6650   -8.1630 O   0  0  0  0  0  0  0  0  0  0  0  0
  -22.4790   40.3980   -6.1200 N   0  0  0  0  0  0  0  0  0  0  0  0
  -23.2100   39.4360   -5.3040 C   0  0  0  0  0  0  0  0  0  0  0  0
  -24.0360   40.1970   -4.2710 C   0  0  0  0  0  0  0  0  0  0  0  0
  -25.3240   39.7370   -3.9540 C   0  0  0  0  0  0  0  0  0  0  0  0
  -26.1270   40.4330   -3.0470 C   0  0  0  0  0  0  0  0  0  0  0  0
  -25.6700   41.6040   -2.4410 C   0  0  0  0  0  0  0  0  0  0  0  0
  -26.5530   42.1840   -1.5740 O   0  0  0  0  0  0  0  0  0  0  0  0
  -26.2090   42.1590   -0.1940 C   0  0  0  0  0  0  0  0  0  0  0  0
  -24.4000   42.0810   -2.7620 C   0  0  0  0  0  0  0  0  0  0  0  0
  -23.5930   41.3880   -3.6750 C   0  0  0  0  0  0  0  0  0  0  0  0
  -22.3170   38.3510   -4.7060 C   0  0  0  0  0  0  0  0  0  0  0  0
  -22.1430   38.2960   -3.3130 C   0  0  0  0  0  0  0  0  0  0  0  0
  -21.3160   37.3330   -2.7240 C   0  0  0  0  0  0  0  0  0  0  0  0
  -20.6400   36.4090   -3.5190 C   0  0  0  0  0  0  0  0  0  0  0  0
  -19.8040   35.4220   -3.0750 O   0  0  0  0  0  0  0  0  0  0  0  0
  -19.7610   34.2260   -3.8430 C   0  0  0  0  0  0  0  0  0  0  0  0
  -20.8010   36.4580   -4.9050 C   0  0  0  0  0  0  0  0  0  0  0  0
  -21.6270   37.4180   -5.4960 C   0  0  0  0  0  0  0  0  0  0  0  0
  -26.2460   42.6670   -9.1450 C   0  0  0  0  0  0  0  0  0  0  0  0
  -26.0150   42.1340  -10.5420 C   0  0  0  0  0  0  0  0  0  0  0  0
  -24.6970   41.9680  -11.0280 C   0  0  0  0  0  0  0  0  0  0  0  0
  -24.4680   41.5010  -12.3240 C   0  0  0  0  0  0  0  0  0  0  0  0
  -25.5650   41.2140  -13.1110 C   0  0  0  0  0  0  0  0  0  0  0  0
  -26.8550   41.3730  -12.6600 C   0  0  0  0  0  0  0  0  0  0  0  0
  -27.1170   41.8310  -11.3820 C   0  0  0  0  0  0  0  0  0  0  0  0
  -28.5090   42.0490  -10.8990 C   0  0  0  0  0  0  0  0  0  0  0  0
  -29.0560   43.1340  -11.2500 O   0  0  0  0  0  0  0  0  0  0  0  0
  -29.0830   41.0440  -10.3800 O   0  0  0  0  0  0  0  0  0  0  0  0
  -27.7680   41.0290  -13.6060 O   0  0  0  0  0  0  0  0  0  0  0  0
  -26.9150   40.6300  -14.6920 C   0  0  0  0  0  0  0  0  0  0  0  0
  -25.5100   40.7560  -14.3920 O   0  0  0  0  0  0  0  0  0  0  0  0
  -28.6599   43.0835   -4.9580 H   0  0  0  0  0  0  0  0  0  0  0  0
  -28.4420   41.2037   -5.1787 H   0  0  0  0  0  0  0  0  0  0  0  0
  -26.9066   43.4950   -6.5483 H   0  0  0  0  0  0  0  0  0  0  0  0
  -25.8208   40.8042   -6.2894 H   0  0  0  0  0  0  0  0  0  0  0  0
  -27.1298   40.7212   -7.5435 H   0  0  0  0  0  0  0  0  0  0  0  0
  -24.9650   41.1660   -8.5120 H   0  0  0  0  0  0  0  0  0  0  0  0
  -24.8101   43.8736   -7.4673 H   0  0  0  0  0  0  0  0  0  0  0  0
  -24.2373   42.4634   -6.4327 H   0  0  0  0  0  0  0  0  0  0  0  0
  -23.2507   44.8954   -8.8357 H   0  0  0  0  0  0  0  0  0  0  0  0
  -21.0035   44.9293   -9.9052 H   0  0  0  0  0  0  0  0  0  0  0  0
  -19.5346   42.9186   -9.8167 H   0  0  0  0  0  0  0  0  0  0  0  0
  -20.3181   40.8496   -8.6591 H   0  0  0  0  0  0  0  0  0  0  0  0
  -22.1770   41.2370   -5.6390 H   0  0  0  0  0  0  0  0  0  0  0  0
  -23.8990   38.8693   -5.9475 H   0  0  0  0  0  0  0  0  0  0  0  0
  -25.7050   38.8187   -4.4248 H   0  0  0  0  0  0  0  0  0  0  0  0
  -27.1313   40.0534   -2.8077 H   0  0  0  0  0  0  0  0  0  0  0  0
  -27.1238   42.2255    0.4132 H   0  0  0  0  0  0  0  0  0  0  0  0
  -25.6837   41.2203    0.0360 H   0  0  0  0  0  0  0  0  0  0  0  0
  -25.5535   43.0119    0.0360 H   0  0  0  0  0  0  0  0  0  0  0  0
  -24.0292   43.0061   -2.2964 H   0  0  0  0  0  0  0  0  0  0  0  0
  -22.5982   41.7833   -3.9280 H   0  0  0  0  0  0  0  0  0  0  0  0
  -22.6661   39.0227   -2.6741 H   0  0  0  0  0  0  0  0  0  0  0  0
  -21.1991   37.3051   -1.6306 H   0  0  0  0  0  0  0  0  0  0  0  0
  -19.7298   33.3579   -3.1682 H   0  0  0  0  0  0  0  0  0  0  0  0
  -20.6575   34.1652   -4.4774 H   0  0  0  0  0  0  0  0  0  0  0  0
  -18.8624   34.2298   -4.4774 H   0  0  0  0  0  0  0  0  0  0  0  0
  -20.2713   35.7322   -5.5395 H   0  0  0  0  0  0  0  0  0  0  0  0
  -21.7375   37.4427   -6.5902 H   0  0  0  0  0  0  0  0  0  0  0  0
  -27.3187   42.5836   -8.9160 H   0  0  0  0  0  0  0  0  0  0  0  0
  -25.8911   43.7082   -9.1390 H   0  0  0  0  0  0  0  0  0  0  0  0
  -23.8431   42.2094  -10.3780 H   0  0  0  0  0  0  0  0  0  0  0  0
  -23.4452   41.3661  -12.7058 H   0  0  0  0  0  0  0  0  0  0  0  0
  -27.1271   39.5781  -14.9338 H   0  0  0  0  0  0  0  0  0  0  0  0
  -27.1285   41.3016  -15.5366 H   0  0  0  0  0  0  0  0  0  0  0  0
  1  2  2  0
  2  3  1  0
  3  4  1  0
  4  5  1  0
  5  6  1  0
  6  7  2  0
  7  8  1  0
  8  9  2  0
  9 10  1  0
 10 11  2  0
 11 12  1  0
 12 13  2  0
 12 14  1  0
 14 15  1  0
 15 16  1  0
 16 17  2  0
 17 18  1  0
 18 19  2  0
 19 20  1  0
 20 21  1  0
 19 22  1  0
 22 23  2  0
 15 24  1  0
 24 25  2  0
 25 26  1  0
 26 27  2  0
 27 28  1  0
 28 29  1  0
 27 30  1  0
 30 31  2  0
  4 32  1  0
 32 33  1  0
 33 34  2  0
 34 35  1  0
 35 36  2  0
 36 37  1  0
 37 38  2  0
 38 39  1  0
 39 40  2  0
 39 41  1  0
 37 42  1  0
 42 43  1  0
 43 44  1  0
 11  6  1  0
 23 16  1  0
 31 24  1  0
 38 33  1  0
 44 36  1  0
  1 45  1  0
  1 46  1  0
  2 47  1  0
  3 48  1  0
  3 49  1  0
  4 50  1  6
  5 51  1  0
  5 52  1  0
  7 53  1  0
  8 54  1  0
  9 55  1  0
 10 56  1  0
 14 57  1  0
 15 58  1  0
 17 59  1  0
 18 60  1  0
 21 61  1  0
 21 62  1  0
 21 63  1  0
 22 64  1  0
 23 65  1  0
 25 66  1  0
 26 67  1  0
 29 68  1  0
 29 69  1  0
 29 70  1  0
 30 71  1  0
 31 72  1  0
 32 73  1  0
 32 74  1  0
 34 75  1  0
 35 76  1  0
 43 77  1  0
 43 78  1  0
M  CHG  2   4   1  41  -1
M  END
>  <meeko>  (9) 
{"is_sidechain": [false], "free_energy": -6.023, "intermolecular_energy": -11.756, "internal_energy": -3.666}

$$$$
