3qgy_ligand
     RDKit          3D

 54 57  0  0  0  0  0  0  0  0999 V2000
   50.0520   56.5060   13.7780 C   0  0  0  0  0  0  0  0  0  0  0  0
   48.6230   56.5340   13.9850 N   0  0  0  0  0  0  0  0  0  0  0  0
   48.2330   56.5270   15.3170 C   0  0  0  0  0  0  0  0  0  0  0  0
   49.2270   56.4350   16.2060 N   0  0  0  0  0  0  0  0  0  0  0  0
   48.8800   56.4370   17.5040 C   0  0  0  0  0  0  0  0  0  0  0  0
   47.5830   56.5220   17.9440 C   0  0  0  0  0  0  0  0  0  0  0  0
   46.6190   56.6120   16.9600 C   0  0  0  0  0  0  0  0  0  0  0  0
   45.1690   56.7070   17.2960 C   0  0  0  0  0  0  0  0  0  0  0  0
   44.7600   57.6900   18.1240 C   0  0  0  0  0  0  0  0  0  0  0  0
   43.4400   57.8350   18.4700 N   0  0  0  0  0  0  0  0  0  0  0  0
   42.4370   57.0160   18.0230 C   0  0  0  0  0  0  0  0  0  0  0  0
   41.2580   57.1710   18.3350 O   0  0  0  0  0  0  0  0  0  0  0  0
   42.8510   55.8900   17.1120 C   0  0  0  0  0  0  0  0  0  0  0  0
   41.8240   55.0700   16.6880 N   0  0  0  0  0  0  0  0  0  0  0  0
   41.3600   53.9060   17.2660 C   0  0  0  0  0  0  0  0  0  0  0  0
   41.7750   53.4140   18.3110 O   0  0  0  0  0  0  0  0  0  0  0  0
   40.2420   53.2320   16.5460 C   0  0  0  0  0  0  0  0  0  0  0  0
   40.5530   52.3200   15.5370 C   0  0  0  0  0  0  0  0  0  0  0  0
   39.5320   51.6640   14.8370 C   0  0  0  0  0  0  0  0  0  0  0  0
   38.1740   51.8980   15.1060 C   0  0  0  0  0  0  0  0  0  0  0  0
   37.1650   51.2440   14.4120 N   0  0  0  0  0  0  0  0  0  0  0  0
   37.2220   51.1030   12.9530 C   0  0  0  0  0  0  0  0  0  0  0  0
   36.4880   49.8400   12.5070 C   0  0  0  0  0  0  0  0  0  0  0  0
   35.0240   49.8380   12.9400 C   0  0  0  0  0  0  0  0  0  0  0  0
   34.7890   50.6340   14.2200 C   0  0  0  0  0  0  0  0  0  0  0  0
   36.0220   50.6590   15.1210 C   0  0  0  0  0  0  0  0  0  0  0  0
   37.8900   52.8360   16.1140 C   0  0  0  0  0  0  0  0  0  0  0  0
   38.9010   53.5000   16.8250 C   0  0  0  0  0  0  0  0  0  0  0  0
   44.1520   55.7780   16.8000 C   0  0  0  0  0  0  0  0  0  0  0  0
   46.9370   56.6010   15.6470 N   0  0  0  0  0  0  0  0  0  0  0  0
   50.5634   56.4960   14.7518 H   0  0  0  0  0  0  0  0  0  0  0  0
   50.3229   55.6024   13.2123 H   0  0  0  0  0  0  0  0  0  0  0  0
   50.3581   57.3983   13.2123 H   0  0  0  0  0  0  0  0  0  0  0  0
   48.1360   57.3150   13.5590 H   0  0  0  0  0  0  0  0  0  0  0  0
   49.6800   56.3666   18.2557 H   0  0  0  0  0  0  0  0  0  0  0  0
   47.3274   56.5186   19.0139 H   0  0  0  0  0  0  0  0  0  0  0  0
   45.5022   58.3922   18.5316 H   0  0  0  0  0  0  0  0  0  0  0  0
   43.1600   58.5840   19.0920 H   0  0  0  0  0  0  0  0  0  0  0  0
   41.3490   55.4250   15.8600 H   0  0  0  0  0  0  0  0  0  0  0  0
   41.6051   52.1150   15.2899 H   0  0  0  0  0  0  0  0  0  0  0  0
   39.8029   50.9428   14.0518 H   0  0  0  0  0  0  0  0  0  0  0  0
   36.7496   51.9798   12.4861 H   0  0  0  0  0  0  0  0  0  0  0  0
   38.2752   51.0294   12.6442 H   0  0  0  0  0  0  0  0  0  0  0  0
   36.5326   49.7736   11.4099 H   0  0  0  0  0  0  0  0  0  0  0  0
   36.9808   48.9787   12.9817 H   0  0  0  0  0  0  0  0  0  0  0  0
   34.4180   50.2789   12.1348 H   0  0  0  0  0  0  0  0  0  0  0  0
   34.7373   48.7949   13.1393 H   0  0  0  0  0  0  0  0  0  0  0  0
   34.5265   51.6677   13.9507 H   0  0  0  0  0  0  0  0  0  0  0  0
   33.9755   50.1451   14.7760 H   0  0  0  0  0  0  0  0  0  0  0  0
   35.8044   51.2610   16.0156 H   0  0  0  0  0  0  0  0  0  0  0  0
   36.2726   49.6275   15.4095 H   0  0  0  0  0  0  0  0  0  0  0  0
   36.8393   53.0569   16.3534 H   0  0  0  0  0  0  0  0  0  0  0  0
   38.6367   54.2319   17.6024 H   0  0  0  0  0  0  0  0  0  0  0  0
   44.4672   54.9533   16.1439 H   0  0  0  0  0  0  0  0  0  0  0  0
  1  2  1  0
  2  3  1  0
  3  4  2  0
  4  5  1  0
  5  6  2  0
  6  7  1  0
  7  8  1  0
  8  9  2  0
  9 10  1  0
 10 11  1  0
 11 12  2  0
 11 13  1  0
 13 14  1  0
 14 15  1  0
 15 16  2  0
 15 17  1  0
 17 18  2  0
 18 19  1  0
 19 20  2  0
 20 21  1  0
 21 22  1  0
 22 23  1  0
 23 24  1  0
 24 25  1  0
 25 26  1  0
 20 27  1  0
 27 28  2  0
 13 29  2  0
  7 30  2  0
 30  3  1  0
 29  8  1  0
 28 17  1  0
 26 21  1  0
  1 31  1  0
  1 32  1  0
  1 33  1  0
  2 34  1  0
  5 35  1  0
  6 36  1  0
  9 37  1  0
 10 38  1  0
 14 39  1  0
 18 40  1  0
 19 41  1  0
 22 42  1  0
 22 43  1  0
 23 44  1  0
 23 45  1  0
 24 46  1  0
 24 47  1  0
 25 48  1  0
 25 49  1  0
 26 50  1  0
 26 51  1  0
 27 52  1  0
 28 53  1  0
 29 54  1  0
M  END
>  <meeko>  (1) 
{"is_sidechain": [false], "free_energy": -9.796, "intermolecular_energy": -12.659, "internal_energy": -0.873}

$$$$
3qgy_ligand
     RDKit          3D

 54 57  0  0  0  0  0  0  0  0999 V2000
   50.1080   56.3020   15.2590 C   0  0  0  0  0  0  0  0  0  0  0  0
   49.1580   55.7510   16.1970 N   0  0  0  0  0  0  0  0  0  0  0  0
   47.8960   56.3260   16.1450 C   0  0  0  0  0  0  0  0  0  0  0  0
   47.8010   57.4360   15.4060 N   0  0  0  0  0  0  0  0  0  0  0  0
   46.5880   58.0100   15.3280 C   0  0  0  0  0  0  0  0  0  0  0  0
   45.4750   57.5200   15.9630 C   0  0  0  0  0  0  0  0  0  0  0  0
   45.6610   56.3730   16.7070 C   0  0  0  0  0  0  0  0  0  0  0  0
   44.5370   55.7340   17.4510 C   0  0  0  0  0  0  0  0  0  0  0  0
   44.5780   55.7210   18.7990 C   0  0  0  0  0  0  0  0  0  0  0  0
   43.5740   55.1530   19.5420 N   0  0  0  0  0  0  0  0  0  0  0  0
   42.4650   54.5560   19.0030 C   0  0  0  0  0  0  0  0  0  0  0  0
   41.5710   54.0640   19.6870 O   0  0  0  0  0  0  0  0  0  0  0  0
   42.3880   54.5280   17.4980 C   0  0  0  0  0  0  0  0  0  0  0  0
   41.2690   53.9070   16.9800 N   0  0  0  0  0  0  0  0  0  0  0  0
   41.2060   52.8690   16.0730 C   0  0  0  0  0  0  0  0  0  0  0  0
   42.1700   52.2830   15.5910 O   0  0  0  0  0  0  0  0  0  0  0  0
   39.8320   52.4340   15.6880 C   0  0  0  0  0  0  0  0  0  0  0  0
   39.6960   51.4290   14.7300 C   0  0  0  0  0  0  0  0  0  0  0  0
   38.4220   50.9910   14.3410 C   0  0  0  0  0  0  0  0  0  0  0  0
   37.2480   51.5420   14.8790 C   0  0  0  0  0  0  0  0  0  0  0  0
   35.9890   51.1030   14.4930 N   0  0  0  0  0  0  0  0  0  0  0  0
   34.8490   51.1780   15.4120 C   0  0  0  0  0  0  0  0  0  0  0  0
   33.5430   51.3340   14.6370 C   0  0  0  0  0  0  0  0  0  0  0  0
   33.3070   50.1830   13.6630 C   0  0  0  0  0  0  0  0  0  0  0  0
   34.6080   49.5660   13.1570 C   0  0  0  0  0  0  0  0  0  0  0  0
   35.7590   50.5690   13.1460 C   0  0  0  0  0  0  0  0  0  0  0  0
   37.4160   52.5660   15.8270 C   0  0  0  0  0  0  0  0  0  0  0  0
   38.6840   53.0140   16.2270 C   0  0  0  0  0  0  0  0  0  0  0  0
   43.3920   55.0900   16.8050 C   0  0  0  0  0  0  0  0  0  0  0  0
   46.8710   55.7800   16.8130 N   0  0  0  0  0  0  0  0  0  0  0  0
   50.9318   56.7798   15.8095 H   0  0  0  0  0  0  0  0  0  0  0  0
   50.5085   55.4960   14.6266 H   0  0  0  0  0  0  0  0  0  0  0  0
   49.6072   57.0498   14.6266 H   0  0  0  0  0  0  0  0  0  0  0  0
   49.0070   54.7500   16.1290 H   0  0  0  0  0  0  0  0  0  0  0  0
   46.4821   58.9220   14.7222 H   0  0  0  0  0  0  0  0  0  0  0  0
   44.4941   58.0116   15.8838 H   0  0  0  0  0  0  0  0  0  0  0  0
   45.4363   56.1763   19.3148 H   0  0  0  0  0  0  0  0  0  0  0  0
   43.6290   55.1600   20.5540 H   0  0  0  0  0  0  0  0  0  0  0  0
   40.4000   54.2660   17.3700 H   0  0  0  0  0  0  0  0  0  0  0  0
   40.5918   50.9783   14.2779 H   0  0  0  0  0  0  0  0  0  0  0  0
   38.3398   50.1907   13.5909 H   0  0  0  0  0  0  0  0  0  0  0  0
   34.8061   50.2562   16.0107 H   0  0  0  0  0  0  0  0  0  0  0  0
   34.9789   52.0519   16.0673 H   0  0  0  0  0  0  0  0  0  0  0  0
   32.7086   51.3684   15.3530 H   0  0  0  0  0  0  0  0  0  0  0  0
   33.6079   52.2628   14.0513 H   0  0  0  0  0  0  0  0  0  0  0  0
   32.7227   49.4035   14.1738 H   0  0  0  0  0  0  0  0  0  0  0  0
   32.7698   50.5880   12.7927 H   0  0  0  0  0  0  0  0  0  0  0  0
   34.8784   48.7244   13.8116 H   0  0  0  0  0  0  0  0  0  0  0  0
   34.4422   49.2327   12.1219 H   0  0  0  0  0  0  0  0  0  0  0  0
   36.6728   50.0674   12.7947 H   0  0  0  0  0  0  0  0  0  0  0  0
   35.4998   51.4001   12.4736 H   0  0  0  0  0  0  0  0  0  0  0  0
   36.5234   53.0318   16.2702 H   0  0  0  0  0  0  0  0  0  0  0  0
   38.7727   53.8235   16.9665 H   0  0  0  0  0  0  0  0  0  0  0  0
   43.3522   55.0653   15.7060 H   0  0  0  0  0  0  0  0  0  0  0  0
  1  2  1  0
  2  3  1  0
  3  4  2  0
  4  5  1  0
  5  6  2  0
  6  7  1  0
  7  8  1  0
  8  9  2  0
  9 10  1  0
 10 11  1  0
 11 12  2  0
 11 13  1  0
 13 14  1  0
 14 15  1  0
 15 16  2  0
 15 17  1  0
 17 18  2  0
 18 19  1  0
 19 20  2  0
 20 21  1  0
 21 22  1  0
 22 23  1  0
 23 24  1  0
 24 25  1  0
 25 26  1  0
 20 27  1  0
 27 28  2  0
 13 29  2  0
  7 30  2  0
 30  3  1  0
 29  8  1  0
 28 17  1  0
 26 21  1  0
  1 31  1  0
  1 32  1  0
  1 33  1  0
  2 34  1  0
  5 35  1  0
  6 36  1  0
  9 37  1  0
 10 38  1  0
 14 39  1  0
 18 40  1  0
 19 41  1  0
 22 42  1  0
 22 43  1  0
 23 44  1  0
 23 45  1  0
 24 46  1  0
 24 47  1  0
 25 48  1  0
 25 49  1  0
 26 50  1  0
 26 51  1  0
 27 52  1  0
 28 53  1  0
 29 54  1  0
M  END
>  <meeko>  (2) 
{"is_sidechain": [false], "free_energy": -9.132, "intermolecular_energy": -11.871, "internal_energy": -0.802}

$$$$
3qgy_ligand
     RDKit          3D

 54 57  0  0  0  0  0  0  0  0999 V2000
   46.3870   53.4480   24.1920 C   0  0  0  0  0  0  0  0  0  0  0  0
   46.0100   53.4950   22.7980 N   0  0  0  0  0  0  0  0  0  0  0  0
   45.8280   54.7740   22.2920 C   0  0  0  0  0  0  0  0  0  0  0  0
   46.2870   55.7660   23.0610 N   0  0  0  0  0  0  0  0  0  0  0  0
   46.1350   57.0160   22.5930 C   0  0  0  0  0  0  0  0  0  0  0  0
   45.5380   57.3090   21.3920 C   0  0  0  0  0  0  0  0  0  0  0  0
   45.0890   56.2270   20.6620 C   0  0  0  0  0  0  0  0  0  0  0  0
   44.4200   56.4010   19.3420 C   0  0  0  0  0  0  0  0  0  0  0  0
   44.7300   57.4800   18.5950 C   0  0  0  0  0  0  0  0  0  0  0  0
   44.1520   57.6960   17.3690 N   0  0  0  0  0  0  0  0  0  0  0  0
   43.2250   56.8620   16.8020 C   0  0  0  0  0  0  0  0  0  0  0  0
   42.7300   57.0680   15.6960 O   0  0  0  0  0  0  0  0  0  0  0  0
   42.8310   55.6540   17.6100 C   0  0  0  0  0  0  0  0  0  0  0  0
   41.8850   54.8370   17.0230 N   0  0  0  0  0  0  0  0  0  0  0  0
   42.0790   53.8040   16.1290 C   0  0  0  0  0  0  0  0  0  0  0  0
   43.1670   53.4050   15.7250 O   0  0  0  0  0  0  0  0  0  0  0  0
   40.8400   53.1230   15.6540 C   0  0  0  0  0  0  0  0  0  0  0  0
   40.8840   52.4270   14.4460 C   0  0  0  0  0  0  0  0  0  0  0  0
   39.7410   51.7730   13.9650 C   0  0  0  0  0  0  0  0  0  0  0  0
   38.5200   51.7970   14.6590 C   0  0  0  0  0  0  0  0  0  0  0  0
   37.3920   51.1460   14.1810 N   0  0  0  0  0  0  0  0  0  0  0  0
   36.3580   50.6560   15.0980 C   0  0  0  0  0  0  0  0  0  0  0  0
   34.9940   50.6440   14.4120 C   0  0  0  0  0  0  0  0  0  0  0  0
   34.9850   49.7730   13.1580 C   0  0  0  0  0  0  0  0  0  0  0  0
   36.3520   49.6970   12.4860 C   0  0  0  0  0  0  0  0  0  0  0  0
   37.1940   50.9450   12.7420 C   0  0  0  0  0  0  0  0  0  0  0  0
   38.5020   52.5220   15.8630 C   0  0  0  0  0  0  0  0  0  0  0  0
   39.6370   53.1810   16.3580 C   0  0  0  0  0  0  0  0  0  0  0  0
   43.4160   55.4780   18.8070 C   0  0  0  0  0  0  0  0  0  0  0  0
   45.2190   54.9600   21.1140 N   0  0  0  0  0  0  0  0  0  0  0  0
   45.4898   53.5599   24.8185 H   0  0  0  0  0  0  0  0  0  0  0  0
   46.8680   52.4829   24.4094 H   0  0  0  0  0  0  0  0  0  0  0  0
   47.0902   54.2654   24.4094 H   0  0  0  0  0  0  0  0  0  0  0  0
   46.6480   53.0340   22.1580 H   0  0  0  0  0  0  0  0  0  0  0  0
   46.5091   57.8498   23.2052 H   0  0  0  0  0  0  0  0  0  0  0  0
   45.4244   58.3427   21.0334 H   0  0  0  0  0  0  0  0  0  0  0  0
   45.4639   58.2046   18.9775 H   0  0  0  0  0  0  0  0  0  0  0  0
   44.4070   58.5140   16.8280 H   0  0  0  0  0  0  0  0  0  0  0  0
   40.9400   55.0300   17.3460 H   0  0  0  0  0  0  0  0  0  0  0  0
   41.8194   52.3911   13.8683 H   0  0  0  0  0  0  0  0  0  0  0  0
   39.8023   51.2237   13.0140 H   0  0  0  0  0  0  0  0  0  0  0  0
   36.6117   49.6341   15.4162 H   0  0  0  0  0  0  0  0  0  0  0  0
   36.3109   51.3251   15.9698 H   0  0  0  0  0  0  0  0  0  0  0  0
   34.2459   50.2551   15.1185 H   0  0  0  0  0  0  0  0  0  0  0  0
   34.7606   51.6750   14.1079 H   0  0  0  0  0  0  0  0  0  0  0  0
   34.6731   48.7559   13.4379 H   0  0  0  0  0  0  0  0  0  0  0  0
   34.2865   50.2291   12.4410 H   0  0  0  0  0  0  0  0  0  0  0  0
   36.8901   48.8209   12.8770 H   0  0  0  0  0  0  0  0  0  0  0  0
   36.1896   49.6175   11.4010 H   0  0  0  0  0  0  0  0  0  0  0  0
   38.1733   50.8269   12.2551 H   0  0  0  0  0  0  0  0  0  0  0  0
   36.6681   51.8190   12.3302 H   0  0  0  0  0  0  0  0  0  0  0  0
   37.5652   52.5744   16.4371 H   0  0  0  0  0  0  0  0  0  0  0  0
   39.5785   53.7436   17.3014 H   0  0  0  0  0  0  0  0  0  0  0  0
   43.1289   54.6042   19.4104 H   0  0  0  0  0  0  0  0  0  0  0  0
  1  2  1  0
  2  3  1  0
  3  4  2  0
  4  5  1  0
  5  6  2  0
  6  7  1  0
  7  8  1  0
  8  9  2  0
  9 10  1  0
 10 11  1  0
 11 12  2  0
 11 13  1  0
 13 14  1  0
 14 15  1  0
 15 16  2  0
 15 17  1  0
 17 18  2  0
 18 19  1  0
 19 20  2  0
 20 21  1  0
 21 22  1  0
 22 23  1  0
 23 24  1  0
 24 25  1  0
 25 26  1  0
 20 27  1  0
 27 28  2  0
 13 29  2  0
  7 30  2  0
 30  3  1  0
 29  8  1  0
 28 17  1  0
 26 21  1  0
  1 31  1  0
  1 32  1  0
  1 33  1  0
  2 34  1  0
  5 35  1  0
  6 36  1  0
  9 37  1  0
 10 38  1  0
 14 39  1  0
 18 40  1  0
 19 41  1  0
 22 42  1  0
 22 43  1  0
 23 44  1  0
 23 45  1  0
 24 46  1  0
 24 47  1  0
 25 48  1  0
 25 49  1  0
 26 50  1  0
 26 51  1  0
 27 52  1  0
 28 53  1  0
 29 54  1  0
M  END
>  <meeko>  (3) 
{"is_sidechain": [false], "free_energy": -8.891, "intermolecular_energy": -11.469, "internal_energy": -0.894}

$$$$
3qgy_ligand
     RDKit          3D

 54 57  0  0  0  0  0  0  0  0999 V2000
   35.0230   52.0190   15.8020 C   0  0  0  0  0  0  0  0  0  0  0  0
   34.5880   50.8910   15.0120 N   0  0  0  0  0  0  0  0  0  0  0  0
   35.4750   50.5080   14.0150 C   0  0  0  0  0  0  0  0  0  0  0  0
   34.9550   49.7480   13.0460 N   0  0  0  0  0  0  0  0  0  0  0  0
   35.7870   49.3700   12.0610 C   0  0  0  0  0  0  0  0  0  0  0  0
   37.1130   49.7180   12.0120 C   0  0  0  0  0  0  0  0  0  0  0  0
   37.5690   50.5030   13.0520 C   0  0  0  0  0  0  0  0  0  0  0  0
   38.9890   50.9520   13.1260 C   0  0  0  0  0  0  0  0  0  0  0  0
   39.8040   50.6950   12.0840 C   0  0  0  0  0  0  0  0  0  0  0  0
   41.1200   51.0860   12.0870 N   0  0  0  0  0  0  0  0  0  0  0  0
   41.7180   51.7520   13.1240 C   0  0  0  0  0  0  0  0  0  0  0  0
   42.8950   52.1030   13.1020 O   0  0  0  0  0  0  0  0  0  0  0  0
   40.8500   52.0410   14.3210 C   0  0  0  0  0  0  0  0  0  0  0  0
   41.4810   52.7000   15.3580 N   0  0  0  0  0  0  0  0  0  0  0  0
   40.9120   53.3220   16.4510 C   0  0  0  0  0  0  0  0  0  0  0  0
   39.7130   53.3600   16.7060 O   0  0  0  0  0  0  0  0  0  0  0  0
   41.8700   53.9710   17.3910 C   0  0  0  0  0  0  0  0  0  0  0  0
   41.6880   53.7840   18.7620 C   0  0  0  0  0  0  0  0  0  0  0  0
   42.5670   54.3770   19.6790 C   0  0  0  0  0  0  0  0  0  0  0  0
   43.6440   55.1790   19.2680 C   0  0  0  0  0  0  0  0  0  0  0  0
   44.5130   55.7620   20.1800 N   0  0  0  0  0  0  0  0  0  0  0  0
   44.3490   57.1590   20.5940 C   0  0  0  0  0  0  0  0  0  0  0  0
   44.8820   57.3660   22.0090 C   0  0  0  0  0  0  0  0  0  0  0  0
   46.3580   56.9930   22.1320 C   0  0  0  0  0  0  0  0  0  0  0  0
   46.7730   55.9080   21.1430 C   0  0  0  0  0  0  0  0  0  0  0  0
   45.6120   54.9890   20.7690 C   0  0  0  0  0  0  0  0  0  0  0  0
   43.7900   55.3660   17.8830 C   0  0  0  0  0  0  0  0  0  0  0  0
   42.9200   54.7780   16.9520 C   0  0  0  0  0  0  0  0  0  0  0  0
   39.5690   51.6400   14.2810 C   0  0  0  0  0  0  0  0  0  0  0  0
   36.7580   50.8880   14.0620 N   0  0  0  0  0  0  0  0  0  0  0  0
   34.9293   51.7761   16.8707 H   0  0  0  0  0  0  0  0  0  0  0  0
   36.0735   52.2469   15.5685 H   0  0  0  0  0  0  0  0  0  0  0  0
   34.3975   52.8932   15.5685 H   0  0  0  0  0  0  0  0  0  0  0  0
   34.3800   50.0460   15.5340 H   0  0  0  0  0  0  0  0  0  0  0  0
   35.3827   48.7473   11.2494 H   0  0  0  0  0  0  0  0  0  0  0  0
   37.7724   49.3916   11.1943 H   0  0  0  0  0  0  0  0  0  0  0  0
   39.4052   50.1591   11.2101 H   0  0  0  0  0  0  0  0  0  0  0  0
   41.7100   50.8820   11.2880 H   0  0  0  0  0  0  0  0  0  0  0  0
   42.4950   52.6660   15.2900 H   0  0  0  0  0  0  0  0  0  0  0  0
   40.8513   53.1687   19.1246 H   0  0  0  0  0  0  0  0  0  0  0  0
   42.4081   54.2088   20.7544 H   0  0  0  0  0  0  0  0  0  0  0  0
   44.9027   57.8090   19.9005 H   0  0  0  0  0  0  0  0  0  0  0  0
   43.2782   57.4102   20.5781 H   0  0  0  0  0  0  0  0  0  0  0  0
   44.7607   58.4248   22.2815 H   0  0  0  0  0  0  0  0  0  0  0  0
   44.3115   56.7102   22.6831 H   0  0  0  0  0  0  0  0  0  0  0  0
   46.9651   57.8910   21.9451 H   0  0  0  0  0  0  0  0  0  0  0  0
   46.5187   56.5986   23.1462 H   0  0  0  0  0  0  0  0  0  0  0  0
   47.1520   56.3888   20.2291 H   0  0  0  0  0  0  0  0  0  0  0  0
   47.5474   55.2926   21.6243 H   0  0  0  0  0  0  0  0  0  0  0  0
   45.9613   54.2432   20.0398 H   0  0  0  0  0  0  0  0  0  0  0  0
   45.2474   54.4889   21.6784 H   0  0  0  0  0  0  0  0  0  0  0  0
   44.6145   55.9949   17.5160 H   0  0  0  0  0  0  0  0  0  0  0  0
   43.0659   54.9534   15.8759 H   0  0  0  0  0  0  0  0  0  0  0  0
   38.9281   51.8368   15.1531 H   0  0  0  0  0  0  0  0  0  0  0  0
  1  2  1  0
  2  3  1  0
  3  4  2  0
  4  5  1  0
  5  6  2  0
  6  7  1  0
  7  8  1  0
  8  9  2  0
  9 10  1  0
 10 11  1  0
 11 12  2  0
 11 13  1  0
 13 14  1  0
 14 15  1  0
 15 16  2  0
 15 17  1  0
 17 18  2  0
 18 19  1  0
 19 20  2  0
 20 21  1  0
 21 22  1  0
 22 23  1  0
 23 24  1  0
 24 25  1  0
 25 26  1  0
 20 27  1  0
 27 28  2  0
 13 29  2  0
  7 30  2  0
 30  3  1  0
 29  8  1  0
 28 17  1  0
 26 21  1  0
  1 31  1  0
  1 32  1  0
  1 33  1  0
  2 34  1  0
  5 35  1  0
  6 36  1  0
  9 37  1  0
 10 38  1  0
 14 39  1  0
 18 40  1  0
 19 41  1  0
 22 42  1  0
 22 43  1  0
 23 44  1  0
 23 45  1  0
 24 46  1  0
 24 47  1  0
 25 48  1  0
 25 49  1  0
 26 50  1  0
 26 51  1  0
 27 52  1  0
 28 53  1  0
 29 54  1  0
M  END
>  <meeko>  (4) 
{"is_sidechain": [false], "free_energy": -8.506, "intermolecular_energy": -11.332, "internal_energy": -0.534}

$$$$
3qgy_ligand
     RDKit          3D

 54 57  0  0  0  0  0  0  0  0999 V2000
   32.3550   50.2020   18.6580 C   0  0  0  0  0  0  0  0  0  0  0  0
   32.0120   51.2210   17.6940 N   0  0  0  0  0  0  0  0  0  0  0  0
   32.2480   50.8690   16.3730 C   0  0  0  0  0  0  0  0  0  0  0  0
   31.1650   50.5290   15.6680 N   0  0  0  0  0  0  0  0  0  0  0  0
   31.3610   50.1940   14.3810 C   0  0  0  0  0  0  0  0  0  0  0  0
   32.5940   50.1810   13.7790 C   0  0  0  0  0  0  0  0  0  0  0  0
   33.6580   50.5440   14.5790 C   0  0  0  0  0  0  0  0  0  0  0  0
   35.0540   50.5710   14.0550 C   0  0  0  0  0  0  0  0  0  0  0  0
   35.3520   49.8330   12.9670 C   0  0  0  0  0  0  0  0  0  0  0  0
   36.6160   49.8180   12.4320 N   0  0  0  0  0  0  0  0  0  0  0  0
   37.6710   50.5280   12.9410 C   0  0  0  0  0  0  0  0  0  0  0  0
   38.7920   50.5100   12.4390 O   0  0  0  0  0  0  0  0  0  0  0  0
   37.3900   51.3510   14.1710 C   0  0  0  0  0  0  0  0  0  0  0  0
   38.4730   52.0460   14.6720 N   0  0  0  0  0  0  0  0  0  0  0  0
   39.2460   51.7500   15.7760 C   0  0  0  0  0  0  0  0  0  0  0  0
   39.1160   50.7640   16.4940 O   0  0  0  0  0  0  0  0  0  0  0  0
   40.3390   52.7190   16.0740 C   0  0  0  0  0  0  0  0  0  0  0  0
   40.1500   53.6400   17.1050 C   0  0  0  0  0  0  0  0  0  0  0  0
   41.1540   54.5670   17.4170 C   0  0  0  0  0  0  0  0  0  0  0  0
   42.3670   54.6190   16.7130 C   0  0  0  0  0  0  0  0  0  0  0  0
   43.3590   55.5370   17.0280 N   0  0  0  0  0  0  0  0  0  0  0  0
   43.1040   56.9790   16.9510 C   0  0  0  0  0  0  0  0  0  0  0  0
   43.9800   57.7330   17.9490 C   0  0  0  0  0  0  0  0  0  0  0  0
   45.4690   57.4880   17.7130 C   0  0  0  0  0  0  0  0  0  0  0  0
   45.7480   56.1230   17.0930 C   0  0  0  0  0  0  0  0  0  0  0  0
   44.6860   55.0900   17.4640 C   0  0  0  0  0  0  0  0  0  0  0  0
   42.5220   53.6920   15.6680 C   0  0  0  0  0  0  0  0  0  0  0  0
   41.5280   52.7570   15.3440 C   0  0  0  0  0  0  0  0  0  0  0  0
   36.1410   51.3380   14.6660 C   0  0  0  0  0  0  0  0  0  0  0  0
   33.4930   50.8750   15.8790 N   0  0  0  0  0  0  0  0  0  0  0  0
   32.2212   50.5994   19.6749 H   0  0  0  0  0  0  0  0  0  0  0  0
   31.7013   49.3287   18.5167 H   0  0  0  0  0  0  0  0  0  0  0  0
   33.4037   49.9017   18.5167 H   0  0  0  0  0  0  0  0  0  0  0  0
   31.0510   51.5450   17.7250 H   0  0  0  0  0  0  0  0  0  0  0  0
   30.4848   49.9150   13.7773 H   0  0  0  0  0  0  0  0  0  0  0  0
   32.7260   49.8987   12.7241 H   0  0  0  0  0  0  0  0  0  0  0  0
   34.5630   49.2280   12.4964 H   0  0  0  0  0  0  0  0  0  0  0  0
   36.8110   49.2560   11.6120 H   0  0  0  0  0  0  0  0  0  0  0  0
   38.7230   52.8530   14.1040 H   0  0  0  0  0  0  0  0  0  0  0  0
   39.2093   53.6386   17.6752 H   0  0  0  0  0  0  0  0  0  0  0  0
   40.9857   55.2768   18.2404 H   0  0  0  0  0  0  0  0  0  0  0  0
   43.3286   57.3322   15.9337 H   0  0  0  0  0  0  0  0  0  0  0  0
   42.0476   57.1661   17.1938 H   0  0  0  0  0  0  0  0  0  0  0  0
   43.7790   58.8102   17.8530 H   0  0  0  0  0  0  0  0  0  0  0  0
   43.7340   57.3671   18.9568 H   0  0  0  0  0  0  0  0  0  0  0  0
   45.8513   58.2668   17.0367 H   0  0  0  0  0  0  0  0  0  0  0  0
   45.9706   57.5181   18.6915 H   0  0  0  0  0  0  0  0  0  0  0  0
   45.7707   56.2296   15.9984 H   0  0  0  0  0  0  0  0  0  0  0  0
   46.7136   55.7676   17.4821 H   0  0  0  0  0  0  0  0  0  0  0  0
   44.9246   54.1341   16.9749 H   0  0  0  0  0  0  0  0  0  0  0  0
   44.6778   54.9656   18.5569 H   0  0  0  0  0  0  0  0  0  0  0  0
   43.4544   53.7000   15.0845 H   0  0  0  0  0  0  0  0  0  0  0  0
   41.6857   52.0529   14.5137 H   0  0  0  0  0  0  0  0  0  0  0  0
   35.9261   51.9287   15.5687 H   0  0  0  0  0  0  0  0  0  0  0  0
  1  2  1  0
  2  3  1  0
  3  4  2  0
  4  5  1  0
  5  6  2  0
  6  7  1  0
  7  8  1  0
  8  9  2  0
  9 10  1  0
 10 11  1  0
 11 12  2  0
 11 13  1  0
 13 14  1  0
 14 15  1  0
 15 16  2  0
 15 17  1  0
 17 18  2  0
 18 19  1  0
 19 20  2  0
 20 21  1  0
 21 22  1  0
 22 23  1  0
 23 24  1  0
 24 25  1  0
 25 26  1  0
 20 27  1  0
 27 28  2  0
 13 29  2  0
  7 30  2  0
 30  3  1  0
 29  8  1  0
 28 17  1  0
 26 21  1  0
  1 31  1  0
  1 32  1  0
  1 33  1  0
  2 34  1  0
  5 35  1  0
  6 36  1  0
  9 37  1  0
 10 38  1  0
 14 39  1  0
 18 40  1  0
 19 41  1  0
 22 42  1  0
 22 43  1  0
 23 44  1  0
 23 45  1  0
 24 46  1  0
 24 47  1  0
 25 48  1  0
 25 49  1  0
 26 50  1  0
 26 51  1  0
 27 52  1  0
 28 53  1  0
 29 54  1  0
M  END
>  <meeko>  (5) 
{"is_sidechain": [false], "free_energy": -8.492, "intermolecular_energy": -10.954, "internal_energy": -0.894}

$$$$
3qgy_ligand
     RDKit          3D

 54 57  0  0  0  0  0  0  0  0999 V2000
   33.9460   51.9520   16.0210 C   0  0  0  0  0  0  0  0  0  0  0  0
   35.3140   52.4120   16.0710 N   0  0  0  0  0  0  0  0  0  0  0  0
   36.1650   51.7960   15.1640 C   0  0  0  0  0  0  0  0  0  0  0  0
   35.5660   51.0380   14.2410 N   0  0  0  0  0  0  0  0  0  0  0  0
   36.3640   50.4360   13.3410 C   0  0  0  0  0  0  0  0  0  0  0  0
   37.7300   50.5610   13.3360 C   0  0  0  0  0  0  0  0  0  0  0  0
   38.2670   51.3600   14.3250 C   0  0  0  0  0  0  0  0  0  0  0  0
   39.7370   51.5810   14.4380 C   0  0  0  0  0  0  0  0  0  0  0  0
   40.5440   51.0590   13.4920 C   0  0  0  0  0  0  0  0  0  0  0  0
   41.9060   51.2300   13.5350 N   0  0  0  0  0  0  0  0  0  0  0  0
   42.5590   51.9230   14.5200 C   0  0  0  0  0  0  0  0  0  0  0  0
   43.7790   52.0740   14.5330 O   0  0  0  0  0  0  0  0  0  0  0  0
   41.6990   52.5050   15.6100 C   0  0  0  0  0  0  0  0  0  0  0  0
   42.3830   53.1860   16.5970 N   0  0  0  0  0  0  0  0  0  0  0  0
   42.7420   54.5190   16.6300 C   0  0  0  0  0  0  0  0  0  0  0  0
   42.4680   55.3520   15.7720 O   0  0  0  0  0  0  0  0  0  0  0  0
   43.5040   54.9500   17.8370 C   0  0  0  0  0  0  0  0  0  0  0  0
   42.9400   54.7330   19.0940 C   0  0  0  0  0  0  0  0  0  0  0  0
   43.6250   55.1220   20.2530 C   0  0  0  0  0  0  0  0  0  0  0  0
   44.8810   55.7470   20.2030 C   0  0  0  0  0  0  0  0  0  0  0  0
   45.5570   56.1290   21.3530 N   0  0  0  0  0  0  0  0  0  0  0  0
   46.3430   55.1600   22.1240 C   0  0  0  0  0  0  0  0  0  0  0  0
   47.4940   55.8550   22.8470 C   0  0  0  0  0  0  0  0  0  0  0  0
   47.0060   56.9490   23.7940 C   0  0  0  0  0  0  0  0  0  0  0  0
   45.6940   57.5780   23.3370 C   0  0  0  0  0  0  0  0  0  0  0  0
   45.5190   57.5190   21.8210 C   0  0  0  0  0  0  0  0  0  0  0  0
   45.4160   55.9700   18.9220 C   0  0  0  0  0  0  0  0  0  0  0  0
   44.7440   55.5850   17.7530 C   0  0  0  0  0  0  0  0  0  0  0  0
   40.3710   52.3140   15.5350 C   0  0  0  0  0  0  0  0  0  0  0  0
   37.4900   51.9680   15.2490 N   0  0  0  0  0  0  0  0  0  0  0  0
   33.5646   51.8238   17.0448 H   0  0  0  0  0  0  0  0  0  0  0  0
   33.3294   52.6922   15.4901 H   0  0  0  0  0  0  0  0  0  0  0  0
   33.9019   50.9896   15.4901 H   0  0  0  0  0  0  0  0  0  0  0  0
   35.4440   53.4090   15.9370 H   0  0  0  0  0  0  0  0  0  0  0  0
   35.8960   49.8097   12.5673 H   0  0  0  0  0  0  0  0  0  0  0  0
   38.3593   50.0551   12.5890 H   0  0  0  0  0  0  0  0  0  0  0  0
   40.1009   50.4827   12.6665 H   0  0  0  0  0  0  0  0  0  0  0  0
   42.4880   50.8290   12.8100 H   0  0  0  0  0  0  0  0  0  0  0  0
   42.5990   52.6040   17.4040 H   0  0  0  0  0  0  0  0  0  0  0  0
   41.9530   54.2543   19.1760 H   0  0  0  0  0  0  0  0  0  0  0  0
   43.1638   54.9315   21.2333 H   0  0  0  0  0  0  0  0  0  0  0  0
   45.6914   54.6741   22.8652 H   0  0  0  0  0  0  0  0  0  0  0  0
   46.7586   54.4113   21.4336 H   0  0  0  0  0  0  0  0  0  0  0  0
   48.0504   55.1055   23.4289 H   0  0  0  0  0  0  0  0  0  0  0  0
   48.1329   56.3279   22.0866 H   0  0  0  0  0  0  0  0  0  0  0  0
   46.8578   56.5107   24.7920 H   0  0  0  0  0  0  0  0  0  0  0  0
   47.7684   57.7418   23.8082 H   0  0  0  0  0  0  0  0  0  0  0  0
   44.8599   57.0394   23.8104 H   0  0  0  0  0  0  0  0  0  0  0  0
   45.7082   58.6374   23.6327 H   0  0  0  0  0  0  0  0  0  0  0  0
   44.5508   57.9656   21.5507 H   0  0  0  0  0  0  0  0  0  0  0  0
   46.3397   58.0768   21.3462 H   0  0  0  0  0  0  0  0  0  0  0  0
   46.3952   56.4634   18.8338 H   0  0  0  0  0  0  0  0  0  0  0  0
   45.1944   55.7836   16.7693 H   0  0  0  0  0  0  0  0  0  0  0  0
   39.7336   52.7257   16.3314 H   0  0  0  0  0  0  0  0  0  0  0  0
  1  2  1  0
  2  3  1  0
  3  4  2  0
  4  5  1  0
  5  6  2  0
  6  7  1  0
  7  8  1  0
  8  9  2  0
  9 10  1  0
 10 11  1  0
 11 12  2  0
 11 13  1  0
 13 14  1  0
 14 15  1  0
 15 16  2  0
 15 17  1  0
 17 18  2  0
 18 19  1  0
 19 20  2  0
 20 21  1  0
 21 22  1  0
 22 23  1  0
 23 24  1  0
 24 25  1  0
 25 26  1  0
 20 27  1  0
 27 28  2  0
 13 29  2  0
  7 30  2  0
 30  3  1  0
 29  8  1  0
 28 17  1  0
 26 21  1  0
  1 31  1  0
  1 32  1  0
  1 33  1  0
  2 34  1  0
  5 35  1  0
  6 36  1  0
  9 37  1  0
 10 38  1  0
 14 39  1  0
 18 40  1  0
 19 41  1  0
 22 42  1  0
 22 43  1  0
 23 44  1  0
 23 45  1  0
 24 46  1  0
 24 47  1  0
 25 48  1  0
 25 49  1  0
 26 50  1  0
 26 51  1  0
 27 52  1  0
 28 53  1  0
 29 54  1  0
M  END
>  <meeko>  (6) 
{"is_sidechain": [false], "free_energy": -8.231, "intermolecular_energy": -10.635, "internal_energy": -0.875}

$$$$
3qgy_ligand
     RDKit          3D

 54 57  0  0  0  0  0  0  0  0999 V2000
   43.6810   50.9330   12.5960 C   0  0  0  0  0  0  0  0  0  0  0  0
   42.5980   50.2640   11.9150 N   0  0  0  0  0  0  0  0  0  0  0  0
   41.3460   50.4710   12.4780 C   0  0  0  0  0  0  0  0  0  0  0  0
   40.3160   50.3960   11.6290 N   0  0  0  0  0  0  0  0  0  0  0  0
   39.0900   50.5810   12.1470 C   0  0  0  0  0  0  0  0  0  0  0  0
   38.8580   50.8420   13.4750 C   0  0  0  0  0  0  0  0  0  0  0  0
   39.9770   50.9040   14.2810 C   0  0  0  0  0  0  0  0  0  0  0  0
   39.8710   51.1820   15.7420 C   0  0  0  0  0  0  0  0  0  0  0  0
   38.7050   50.9230   16.3670 C   0  0  0  0  0  0  0  0  0  0  0  0
   38.5430   51.1520   17.7110 N   0  0  0  0  0  0  0  0  0  0  0  0
   39.5220   51.6580   18.5240 C   0  0  0  0  0  0  0  0  0  0  0  0
   39.3610   51.8440   19.7280 O   0  0  0  0  0  0  0  0  0  0  0  0
   40.8360   51.9840   17.8640 C   0  0  0  0  0  0  0  0  0  0  0  0
   41.8010   52.5060   18.7020 N   0  0  0  0  0  0  0  0  0  0  0  0
   42.1810   53.8240   18.8580 C   0  0  0  0  0  0  0  0  0  0  0  0
   41.6780   54.7840   18.2830 O   0  0  0  0  0  0  0  0  0  0  0  0
   43.2820   54.0650   19.8340 C   0  0  0  0  0  0  0  0  0  0  0  0
   44.1700   55.1130   19.5920 C   0  0  0  0  0  0  0  0  0  0  0  0
   45.2180   55.3730   20.4860 C   0  0  0  0  0  0  0  0  0  0  0  0
   45.4240   54.5980   21.6390 C   0  0  0  0  0  0  0  0  0  0  0  0
   46.4610   54.8600   22.5220 N   0  0  0  0  0  0  0  0  0  0  0  0
   47.3160   56.0400   22.3550 C   0  0  0  0  0  0  0  0  0  0  0  0
   47.8550   56.5100   23.7040 C   0  0  0  0  0  0  0  0  0  0  0  0
   48.6590   55.4240   24.4150 C   0  0  0  0  0  0  0  0  0  0  0  0
   48.1970   54.0170   24.0490 C   0  0  0  0  0  0  0  0  0  0  0  0
   46.7200   53.9740   23.6620 C   0  0  0  0  0  0  0  0  0  0  0  0
   44.5260   53.5370   21.8460 C   0  0  0  0  0  0  0  0  0  0  0  0
   43.4720   53.2650   20.9610 C   0  0  0  0  0  0  0  0  0  0  0  0
   40.9550   51.7490   16.5460 C   0  0  0  0  0  0  0  0  0  0  0  0
   41.2230   50.7330   13.7850 N   0  0  0  0  0  0  0  0  0  0  0  0
   43.5399   50.8458   13.6834 H   0  0  0  0  0  0  0  0  0  0  0  0
   44.6362   50.4673   12.3117 H   0  0  0  0  0  0  0  0  0  0  0  0
   43.6922   51.9956   12.3117 H   0  0  0  0  0  0  0  0  0  0  0  0
   42.4970   50.4860   10.9300 H   0  0  0  0  0  0  0  0  0  0  0  0
   38.2250   50.5200   11.4702 H   0  0  0  0  0  0  0  0  0  0  0  0
   37.8432   50.9924   13.8720 H   0  0  0  0  0  0  0  0  0  0  0  0
   37.8630   50.5184   15.7862 H   0  0  0  0  0  0  0  0  0  0  0  0
   37.6570   50.9450   18.1560 H   0  0  0  0  0  0  0  0  0  0  0  0
   42.2390   51.8010   19.2910 H   0  0  0  0  0  0  0  0  0  0  0  0
   44.0474   55.7384   18.6954 H   0  0  0  0  0  0  0  0  0  0  0  0
   45.9004   56.2103   20.2779 H   0  0  0  0  0  0  0  0  0  0  0  0
   48.1603   55.7843   21.6979 H   0  0  0  0  0  0  0  0  0  0  0  0
   46.7188   56.8499   21.9107 H   0  0  0  0  0  0  0  0  0  0  0  0
   48.5050   57.3824   23.5411 H   0  0  0  0  0  0  0  0  0  0  0  0
   46.9949   56.7643   24.3408 H   0  0  0  0  0  0  0  0  0  0  0  0
   49.7179   55.5306   24.1368 H   0  0  0  0  0  0  0  0  0  0  0  0
   48.5086   55.5529   25.4970 H   0  0  0  0  0  0  0  0  0  0  0  0
   48.7959   53.6579   23.1991 H   0  0  0  0  0  0  0  0  0  0  0  0
   48.3317   53.3778   24.9340 H   0  0  0  0  0  0  0  0  0  0  0  0
   46.4473   52.9439   23.3890 H   0  0  0  0  0  0  0  0  0  0  0  0
   46.1181   54.3116   24.5186 H   0  0  0  0  0  0  0  0  0  0  0  0
   44.6539   52.8980   22.7322 H   0  0  0  0  0  0  0  0  0  0  0  0
   42.7949   52.4203   21.1559 H   0  0  0  0  0  0  0  0  0  0  0  0
   41.9065   51.9929   16.0509 H   0  0  0  0  0  0  0  0  0  0  0  0
  1  2  1  0
  2  3  1  0
  3  4  2  0
  4  5  1  0
  5  6  2  0
  6  7  1  0
  7  8  1  0
  8  9  2  0
  9 10  1  0
 10 11  1  0
 11 12  2  0
 11 13  1  0
 13 14  1  0
 14 15  1  0
 15 16  2  0
 15 17  1  0
 17 18  2  0
 18 19  1  0
 19 20  2  0
 20 21  1  0
 21 22  1  0
 22 23  1  0
 23 24  1  0
 24 25  1  0
 25 26  1  0
 20 27  1  0
 27 28  2  0
 13 29  2  0
  7 30  2  0
 30  3  1  0
 29  8  1  0
 28 17  1  0
 26 21  1  0
  1 31  1  0
  1 32  1  0
  1 33  1  0
  2 34  1  0
  5 35  1  0
  6 36  1  0
  9 37  1  0
 10 38  1  0
 14 39  1  0
 18 40  1  0
 19 41  1  0
 22 42  1  0
 22 43  1  0
 23 44  1  0
 23 45  1  0
 24 46  1  0
 24 47  1  0
 25 48  1  0
 25 49  1  0
 26 50  1  0
 26 51  1  0
 27 52  1  0
 28 53  1  0
 29 54  1  0
M  END
>  <meeko>  (7) 
{"is_sidechain": [false], "free_energy": -8.172, "intermolecular_energy": -10.49, "internal_energy": -0.942}

$$$$
3qgy_ligand
     RDKit          3D

 54 57  0  0  0  0  0  0  0  0999 V2000
   46.4670   54.3150   19.3970 C   0  0  0  0  0  0  0  0  0  0  0  0
   46.6180   54.8660   18.0710 N   0  0  0  0  0  0  0  0  0  0  0  0
   45.5320   55.6090   17.6280 C   0  0  0  0  0  0  0  0  0  0  0  0
   45.8020   56.5050   16.6740 N   0  0  0  0  0  0  0  0  0  0  0  0
   44.7690   57.2330   16.2160 C   0  0  0  0  0  0  0  0  0  0  0  0
   43.4840   57.1010   16.6790 C   0  0  0  0  0  0  0  0  0  0  0  0
   43.2930   56.1550   17.6650 C   0  0  0  0  0  0  0  0  0  0  0  0
   41.9490   55.9090   18.2600 C   0  0  0  0  0  0  0  0  0  0  0  0
   41.6920   56.3800   19.4970 C   0  0  0  0  0  0  0  0  0  0  0  0
   40.4730   56.1920   20.1000 N   0  0  0  0  0  0  0  0  0  0  0  0
   39.4290   55.5190   19.5220 C   0  0  0  0  0  0  0  0  0  0  0  0
   38.3410   55.3720   20.0740 O   0  0  0  0  0  0  0  0  0  0  0  0
   39.6780   54.9550   18.1470 C   0  0  0  0  0  0  0  0  0  0  0  0
   38.6150   54.2690   17.5930 N   0  0  0  0  0  0  0  0  0  0  0  0
   38.4870   52.9120   17.3790 C   0  0  0  0  0  0  0  0  0  0  0  0
   39.3120   52.0590   17.6930 O   0  0  0  0  0  0  0  0  0  0  0  0
   37.2150   52.4800   16.7320 C   0  0  0  0  0  0  0  0  0  0  0  0
   36.0680   52.3790   17.5200 C   0  0  0  0  0  0  0  0  0  0  0  0
   34.8520   51.9780   16.9500 C   0  0  0  0  0  0  0  0  0  0  0  0
   34.7370   51.6540   15.5880 C   0  0  0  0  0  0  0  0  0  0  0  0
   33.5310   51.2600   15.0280 N   0  0  0  0  0  0  0  0  0  0  0  0
   32.2570   51.5570   15.6910 C   0  0  0  0  0  0  0  0  0  0  0  0
   31.1350   51.6940   14.6650 C   0  0  0  0  0  0  0  0  0  0  0  0
   30.9630   50.4320   13.8230 C   0  0  0  0  0  0  0  0  0  0  0  0
   32.2640   49.6500   13.6650 C   0  0  0  0  0  0  0  0  0  0  0  0
   33.4950   50.5500   13.7440 C   0  0  0  0  0  0  0  0  0  0  0  0
   35.9130   51.7460   14.8240 C   0  0  0  0  0  0  0  0  0  0  0  0
   37.1370   52.1480   15.3790 C   0  0  0  0  0  0  0  0  0  0  0  0
   40.8840   55.1570   17.5920 C   0  0  0  0  0  0  0  0  0  0  0  0
   44.3150   55.4160   18.1520 N   0  0  0  0  0  0  0  0  0  0  0  0
   46.6804   55.0936   20.1441 H   0  0  0  0  0  0  0  0  0  0  0  0
   45.4366   53.9532   19.5286 H   0  0  0  0  0  0  0  0  0  0  0  0
   47.1690   53.4784   19.5286 H   0  0  0  0  0  0  0  0  0  0  0  0
   47.4310   55.4570   17.9330 H   0  0  0  0  0  0  0  0  0  0  0  0
   44.9643   57.9746   15.4274 H   0  0  0  0  0  0  0  0  0  0  0  0
   42.6570   57.7119   16.2880 H   0  0  0  0  0  0  0  0  0  0  0  0
   42.4784   56.9284   20.0363 H   0  0  0  0  0  0  0  0  0  0  0  0
   40.3060   56.5600   21.0290 H   0  0  0  0  0  0  0  0  0  0  0  0
   37.8310   54.8750   17.3600 H   0  0  0  0  0  0  0  0  0  0  0  0
   36.1183   52.6151   18.5932 H   0  0  0  0  0  0  0  0  0  0  0  0
   33.9593   51.9150   17.5896 H   0  0  0  0  0  0  0  0  0  0  0  0
   32.0128   50.7406   16.3866 H   0  0  0  0  0  0  0  0  0  0  0  0
   32.3551   52.5067   16.2373 H   0  0  0  0  0  0  0  0  0  0  0  0
   30.1930   51.8963   15.1957 H   0  0  0  0  0  0  0  0  0  0  0  0
   31.3984   52.5184   13.9861 H   0  0  0  0  0  0  0  0  0  0  0  0
   30.2188   49.7834   14.3083 H   0  0  0  0  0  0  0  0  0  0  0  0
   30.6372   50.7429   12.8194 H   0  0  0  0  0  0  0  0  0  0  0  0
   32.3239   48.8978   14.4654 H   0  0  0  0  0  0  0  0  0  0  0  0
   32.2548   49.1793   12.6708 H   0  0  0  0  0  0  0  0  0  0  0  0
   34.4009   49.9338   13.6455 H   0  0  0  0  0  0  0  0  0  0  0  0
   33.4486   51.2886   12.9302 H   0  0  0  0  0  0  0  0  0  0  0  0
   35.8722   51.4941   13.7540 H   0  0  0  0  0  0  0  0  0  0  0  0
   38.0359   52.2015   14.7472 H   0  0  0  0  0  0  0  0  0  0  0  0
   41.0806   54.7400   16.5932 H   0  0  0  0  0  0  0  0  0  0  0  0
  1  2  1  0
  2  3  1  0
  3  4  2  0
  4  5  1  0
  5  6  2  0
  6  7  1  0
  7  8  1  0
  8  9  2  0
  9 10  1  0
 10 11  1  0
 11 12  2  0
 11 13  1  0
 13 14  1  0
 14 15  1  0
 15 16  2  0
 15 17  1  0
 17 18  2  0
 18 19  1  0
 19 20  2  0
 20 21  1  0
 21 22  1  0
 22 23  1  0
 23 24  1  0
 24 25  1  0
 25 26  1  0
 20 27  1  0
 27 28  2  0
 13 29  2  0
  7 30  2  0
 30  3  1  0
 29  8  1  0
 28 17  1  0
 26 21  1  0
  1 31  1  0
  1 32  1  0
  1 33  1  0
  2 34  1  0
  5 35  1  0
  6 36  1  0
  9 37  1  0
 10 38  1  0
 14 39  1  0
 18 40  1  0
 19 41  1  0
 22 42  1  0
 22 43  1  0
 23 44  1  0
 23 45  1  0
 24 46  1  0
 24 47  1  0
 25 48  1  0
 25 49  1  0
 26 50  1  0
 26 51  1  0
 27 52  1  0
 28 53  1  0
 29 54  1  0
M  END
>  <meeko>  (8) 
{"is_sidechain": [false], "free_energy": -8.083, "intermolecular_energy": -10.469, "internal_energy": -0.849}

$$$$
3qgy_ligand
     RDKit          3D

 54 57  0  0  0  0  0  0  0  0999 V2000
   41.4170   50.1690   12.1310 C   0  0  0  0  0  0  0  0  0  0  0  0
   40.2590   50.3190   11.2800 N   0  0  0  0  0  0  0  0  0  0  0  0
   39.0510   50.4000   11.9580 C   0  0  0  0  0  0  0  0  0  0  0  0
   38.0310   49.7460   11.3940 N   0  0  0  0  0  0  0  0  0  0  0  0
   36.8510   49.7970   12.0340 C   0  0  0  0  0  0  0  0  0  0  0  0
   36.6520   50.4800   13.2070 C   0  0  0  0  0  0  0  0  0  0  0  0
   37.7560   51.1300   13.7200 C   0  0  0  0  0  0  0  0  0  0  0  0
   37.6820   51.9120   14.9880 C   0  0  0  0  0  0  0  0  0  0  0  0
   36.4710   52.2850   15.4490 C   0  0  0  0  0  0  0  0  0  0  0  0
   36.3340   53.0020   16.6110 N   0  0  0  0  0  0  0  0  0  0  0  0
   37.3860   53.4020   17.3920 C   0  0  0  0  0  0  0  0  0  0  0  0
   37.2400   54.0340   18.4360 O   0  0  0  0  0  0  0  0  0  0  0  0
   38.7600   53.0270   16.9040 C   0  0  0  0  0  0  0  0  0  0  0  0
   39.8040   53.4550   17.7010 N   0  0  0  0  0  0  0  0  0  0  0  0
   40.6920   52.6950   18.4340 C   0  0  0  0  0  0  0  0  0  0  0  0
   40.7220   51.4680   18.4680 O   0  0  0  0  0  0  0  0  0  0  0  0
   41.7000   53.4630   19.2200 C   0  0  0  0  0  0  0  0  0  0  0  0
   42.5430   54.3440   18.5410 C   0  0  0  0  0  0  0  0  0  0  0  0
   43.5030   55.0850   19.2430 C   0  0  0  0  0  0  0  0  0  0  0  0
   43.6660   54.9690   20.6320 C   0  0  0  0  0  0  0  0  0  0  0  0
   44.6160   55.7070   21.3230 N   0  0  0  0  0  0  0  0  0  0  0  0
   44.3720   57.1090   21.6790 C   0  0  0  0  0  0  0  0  0  0  0  0
   45.1310   57.4810   22.9500 C   0  0  0  0  0  0  0  0  0  0  0  0
   46.6370   57.2700   22.8080 C   0  0  0  0  0  0  0  0  0  0  0  0
   46.9830   56.1580   21.8220 C   0  0  0  0  0  0  0  0  0  0  0  0
   45.8870   55.0990   21.7350 C   0  0  0  0  0  0  0  0  0  0  0  0
   42.8170   54.0600   21.2860 C   0  0  0  0  0  0  0  0  0  0  0  0
   41.8490   53.3120   20.5980 C   0  0  0  0  0  0  0  0  0  0  0  0
   38.8540   52.3280   15.7610 C   0  0  0  0  0  0  0  0  0  0  0  0
   38.9540   51.1050   13.0930 N   0  0  0  0  0  0  0  0  0  0  0  0
   41.1051   50.2094   13.1851 H   0  0  0  0  0  0  0  0  0  0  0  0
   41.8984   49.2010   11.9279 H   0  0  0  0  0  0  0  0  0  0  0  0
   42.1291   50.9824   11.9279 H   0  0  0  0  0  0  0  0  0  0  0  0
   40.2780   51.1160   10.6530 H   0  0  0  0  0  0  0  0  0  0  0  0
   35.9972   49.2616   11.5932 H   0  0  0  0  0  0  0  0  0  0  0  0
   35.6730   50.5078   13.7077 H   0  0  0  0  0  0  0  0  0  0  0  0
   35.5713   52.0079   14.8800 H   0  0  0  0  0  0  0  0  0  0  0  0
   35.4110   53.2660   16.9350 H   0  0  0  0  0  0  0  0  0  0  0  0
   39.9230   54.4660   17.6890 H   0  0  0  0  0  0  0  0  0  0  0  0
   42.4535   54.4571   17.4505 H   0  0  0  0  0  0  0  0  0  0  0  0
   44.1497   55.7800   18.6874 H   0  0  0  0  0  0  0  0  0  0  0  0
   44.7087   57.7550   20.8548 H   0  0  0  0  0  0  0  0  0  0  0  0
   43.2952   57.2475   21.8559 H   0  0  0  0  0  0  0  0  0  0  0  0
   44.9421   58.5405   23.1777 H   0  0  0  0  0  0  0  0  0  0  0  0
   44.7741   56.8267   23.7590 H   0  0  0  0  0  0  0  0  0  0  0  0
   47.0925   58.2074   22.4560 H   0  0  0  0  0  0  0  0  0  0  0  0
   47.0266   56.9748   23.7934 H   0  0  0  0  0  0  0  0  0  0  0  0
   47.1268   56.6010   20.8255 H   0  0  0  0  0  0  0  0  0  0  0  0
   47.8995   55.6652   22.1787 H   0  0  0  0  0  0  0  0  0  0  0  0
   46.1787   54.3358   20.9985 H   0  0  0  0  0  0  0  0  0  0  0  0
   45.7568   54.6396   22.7260 H   0  0  0  0  0  0  0  0  0  0  0  0
   42.9144   53.9303   22.3740 H   0  0  0  0  0  0  0  0  0  0  0  0
   41.2076   52.6063   21.1462 H   0  0  0  0  0  0  0  0  0  0  0  0
   39.8534   52.0566   15.3900 H   0  0  0  0  0  0  0  0  0  0  0  0
  1  2  1  0
  2  3  1  0
  3  4  2  0
  4  5  1  0
  5  6  2  0
  6  7  1  0
  7  8  1  0
  8  9  2  0
  9 10  1  0
 10 11  1  0
 11 12  2  0
 11 13  1  0
 13 14  1  0
 14 15  1  0
 15 16  2  0
 15 17  1  0
 17 18  2  0
 18 19  1  0
 19 20  2  0
 20 21  1  0
 21 22  1  0
 22 23  1  0
 23 24  1  0
 24 25  1  0
 25 26  1  0
 20 27  1  0
 27 28  2  0
 13 29  2  0
  7 30  2  0
 30  3  1  0
 29  8  1  0
 28 17  1  0
 26 21  1  0
  1 31  1  0
  1 32  1  0
  1 33  1  0
  2 34  1  0
  5 35  1  0
  6 36  1  0
  9 37  1  0
 10 38  1  0
 14 39  1  0
 18 40  1  0
 19 41  1  0
 22 42  1  0
 22 43  1  0
 23 44  1  0
 23 45  1  0
 24 46  1  0
 24 47  1  0
 25 48  1  0
 25 49  1  0
 26 50  1  0
 26 51  1  0
 27 52  1  0
 28 53  1  0
 29 54  1  0
M  END
>  <meeko>  (9) 
{"is_sidechain": [false], "free_energy": -7.848, "intermolecular_energy": -10.148, "internal_energy": -0.867}

$$$$
