4agq_ligand
     RDKit          3D

 63 65  0  0  0  0  0  0  0  0999 V2000
   91.7980  101.0510  -41.1570 C   0  0  0  0  0  0  0  0  0  0  0  0
   91.6630   99.8340  -42.0500 C   0  0  0  0  0  0  0  0  0  0  0  0
   90.9010  100.1030  -43.3290 N   0  0  0  0  0  0  0  0  0  0  0  0
   89.5330  100.7110  -43.1090 C   0  0  0  0  0  0  0  0  0  0  0  0
   88.4890   99.7180  -42.6350 C   0  0  0  0  0  0  0  0  0  0  0  0
   91.7060  100.6120  -44.5440 C   0  0  0  0  0  0  0  0  0  0  0  0
   90.7730  100.8630  -45.7480 C   0  0  0  0  0  0  0  0  0  0  0  0
   90.1670   99.5610  -46.2950 C   0  0  0  0  0  0  0  0  0  0  0  0
   90.6040   98.4330  -45.4650 N   0  0  0  0  0  0  0  0  0  0  0  0
   89.8890   97.1920  -45.8000 C   0  0  0  0  0  0  0  0  0  0  0  0
   90.5380   95.9840  -45.1590 C   0  0  0  0  0  0  0  0  0  0  0  0
   90.8270   94.8560  -45.9480 C   0  0  0  0  0  0  0  0  0  0  0  0
   91.4210   93.7230  -45.3850 C   0  0  0  0  0  0  0  0  0  0  0  0
   91.7130   92.5860  -46.2010 C   0  0  0  0  0  0  0  0  0  0  0  0
   91.9780   91.6110  -46.8500 C   0  0  0  0  0  0  0  0  0  0  0  0
   92.2710   90.4400  -47.6870 C   0  0  0  0  0  0  0  0  0  0  0  0
   92.1400   90.7660  -49.0990 N   0  0  0  0  0  0  0  0  0  0  0  0
   90.8910   90.9060  -49.7090 C   0  0  0  0  0  0  0  0  0  0  0  0
   90.7160   91.9420  -50.6390 C   0  0  0  0  0  0  0  0  0  0  0  0
   89.5150   92.1060  -51.3360 C   0  0  0  0  0  0  0  0  0  0  0  0
   88.4680   91.2130  -51.1320 C   0  0  0  0  0  0  0  0  0  0  0  0
   88.6320   90.1550  -50.2440 C   0  0  0  0  0  0  0  0  0  0  0  0
   89.8390   89.9970  -49.5520 C   0  0  0  0  0  0  0  0  0  0  0  0
   91.7330   93.6930  -44.0260 C   0  0  0  0  0  0  0  0  0  0  0  0
   91.4480   94.8030  -43.2290 C   0  0  0  0  0  0  0  0  0  0  0  0
   91.9480   94.7330  -41.2020 I   0  0  0  0  0  0  0  0  0  0  0  0
   90.8530   95.9410  -43.7910 C   0  0  0  0  0  0  0  0  0  0  0  0
   90.5740   97.0390  -43.0120 O   0  0  0  0  0  0  0  0  0  0  0  0
   92.0660   98.2830  -45.5220 C   0  0  0  0  0  0  0  0  0  0  0  0
   92.7380   99.5660  -45.0090 C   0  0  0  0  0  0  0  0  0  0  0  0
   91.7633  100.7381  -40.1030 H   0  0  0  0  0  0  0  0  0  0  0  0
   92.7570  101.5501  -41.3599 H   0  0  0  0  0  0  0  0  0  0  0  0
   90.9717  101.7482  -41.3599 H   0  0  0  0  0  0  0  0  0  0  0  0
   92.6714   99.4823  -42.3134 H   0  0  0  0  0  0  0  0  0  0  0  0
   91.0917   99.0819  -41.4862 H   0  0  0  0  0  0  0  0  0  0  0  0
   90.6700   99.1310  -43.6430 H   0  0  0  0  0  0  0  0  0  0  0  0
   89.6242  101.5051  -42.3533 H   0  0  0  0  0  0  0  0  0  0  0  0
   89.1924  101.0925  -44.0829 H   0  0  0  0  0  0  0  0  0  0  0  0
   88.4715   99.7013  -41.5353 H   0  0  0  0  0  0  0  0  0  0  0  0
   87.5002  100.0171  -43.0130 H   0  0  0  0  0  0  0  0  0  0  0  0
   88.7382   98.7155  -43.0130 H   0  0  0  0  0  0  0  0  0  0  0  0
   92.2053  101.5376  -44.2216 H   0  0  0  0  0  0  0  0  0  0  0  0
   89.9561  101.5278  -45.4305 H   0  0  0  0  0  0  0  0  0  0  0  0
   91.3722  101.3192  -46.5498 H   0  0  0  0  0  0  0  0  0  0  0  0
   89.0694   99.6294  -46.2725 H   0  0  0  0  0  0  0  0  0  0  0  0
   90.5031   99.4064  -47.3309 H   0  0  0  0  0  0  0  0  0  0  0  0
   88.8513   97.2707  -45.4437 H   0  0  0  0  0  0  0  0  0  0  0  0
   89.9210   97.0607  -46.8917 H   0  0  0  0  0  0  0  0  0  0  0  0
   90.5827   94.8657  -47.0205 H   0  0  0  0  0  0  0  0  0  0  0  0
   93.2994   90.1037  -47.4888 H   0  0  0  0  0  0  0  0  0  0  0  0
   91.5528   89.6438  -47.4417 H   0  0  0  0  0  0  0  0  0  0  0  0
   92.7860   91.4980  -49.3850 H   0  0  0  0  0  0  0  0  0  0  0  0
   91.5438   92.6423  -50.8243 H   0  0  0  0  0  0  0  0  0  0  0  0
   89.3983   92.9395  -52.0443 H   0  0  0  0  0  0  0  0  0  0  0  0
   87.5169   91.3427  -51.6693 H   0  0  0  0  0  0  0  0  0  0  0  0
   87.8111   89.4403  -50.0849 H   0  0  0  0  0  0  0  0  0  0  0  0
   89.9625   89.1415  -48.8716 H   0  0  0  0  0  0  0  0  0  0  0  0
   92.2007   92.8004  -43.5850 H   0  0  0  0  0  0  0  0  0  0  0  0
   89.6060   97.1670  -43.0760 H   0  0  0  0  0  0  0  0  0  0  0  0
   92.3713   97.4336  -44.8932 H   0  0  0  0  0  0  0  0  0  0  0  0
   92.3735   98.1014  -46.5624 H   0  0  0  0  0  0  0  0  0  0  0  0
   93.3911   99.3104  -44.1616 H   0  0  0  0  0  0  0  0  0  0  0  0
   93.3143  100.0025  -45.8380 H   0  0  0  0  0  0  0  0  0  0  0  0
  1  2  1  0
  2  3  1  0
  3  4  1  0
  4  5  1  0
  3  6  1  0
  6  7  1  0
  7  8  1  0
  8  9  1  0
  9 10  1  0
 10 11  1  0
 11 12  2  0
 12 13  1  0
 13 14  1  0
 14 15  3  0
 15 16  1  0
 16 17  1  0
 17 18  1  0
 18 19  2  0
 19 20  1  0
 20 21  2  0
 21 22  1  0
 22 23  2  0
 13 24  2  0
 24 25  1  0
 25 26  1  0
 25 27  2  0
 27 28  1  0
  9 29  1  0
 29 30  1  0
 30  6  1  0
 27 11  1  0
 23 18  1  0
  1 31  1  0
  1 32  1  0
  1 33  1  0
  2 34  1  0
  2 35  1  0
  3 36  1  0
  4 37  1  0
  4 38  1  0
  5 39  1  0
  5 40  1  0
  5 41  1  0
  6 42  1  0
  7 43  1  0
  7 44  1  0
  8 45  1  0
  8 46  1  0
 10 47  1  0
 10 48  1  0
 12 49  1  0
 16 50  1  0
 16 51  1  0
 17 52  1  0
 19 53  1  0
 20 54  1  0
 21 55  1  0
 22 56  1  0
 23 57  1  0
 24 58  1  0
 28 59  1  0
 29 60  1  0
 29 61  1  0
 30 62  1  0
 30 63  1  0
M  CHG  1   3   1
M  END
>  <meeko>  (1) 
{"is_sidechain": [false], "free_energy": -7.033, "intermolecular_energy": -10.528, "internal_energy": -1.116}

$$$$
4agq_ligand
     RDKit          3D

 63 65  0  0  0  0  0  0  0  0999 V2000
   88.2730   96.8470  -47.3170 C   0  0  0  0  0  0  0  0  0  0  0  0
   87.4310   97.2820  -46.1350 C   0  0  0  0  0  0  0  0  0  0  0  0
   86.8960   98.6930  -46.2590 N   0  0  0  0  0  0  0  0  0  0  0  0
   87.6210   99.5340  -47.2870 C   0  0  0  0  0  0  0  0  0  0  0  0
   88.6560  100.4710  -46.6930 C   0  0  0  0  0  0  0  0  0  0  0  0
   85.3680   98.8870  -46.1460 C   0  0  0  0  0  0  0  0  0  0  0  0
   85.0190  100.3860  -46.0150 C   0  0  0  0  0  0  0  0  0  0  0  0
   85.5110  100.9830  -44.6870 C   0  0  0  0  0  0  0  0  0  0  0  0
   86.2420   99.9590  -43.9320 N   0  0  0  0  0  0  0  0  0  0  0  0
   86.9240  100.5220  -42.7580 C   0  0  0  0  0  0  0  0  0  0  0  0
   88.3980  100.1730  -42.7470 C   0  0  0  0  0  0  0  0  0  0  0  0
   88.8480   99.0590  -43.4780 C   0  0  0  0  0  0  0  0  0  0  0  0
   90.2010   98.7070  -43.4850 C   0  0  0  0  0  0  0  0  0  0  0  0
   90.6440   97.5750  -44.2360 C   0  0  0  0  0  0  0  0  0  0  0  0
   91.0600   96.6340  -44.8560 C   0  0  0  0  0  0  0  0  0  0  0  0
   91.5680   95.4530  -45.5640 C   0  0  0  0  0  0  0  0  0  0  0  0
   91.2370   94.2330  -44.8430 N   0  0  0  0  0  0  0  0  0  0  0  0
   91.8090   93.9300  -43.6060 C   0  0  0  0  0  0  0  0  0  0  0  0
   93.0820   93.3400  -43.5870 C   0  0  0  0  0  0  0  0  0  0  0  0
   93.7440   93.0660  -42.3860 C   0  0  0  0  0  0  0  0  0  0  0  0
   93.1520   93.4040  -41.1750 C   0  0  0  0  0  0  0  0  0  0  0  0
   91.9080   94.0270  -41.1700 C   0  0  0  0  0  0  0  0  0  0  0  0
   91.2520   94.2990  -42.3760 C   0  0  0  0  0  0  0  0  0  0  0  0
   91.1270   99.4580  -42.7600 C   0  0  0  0  0  0  0  0  0  0  0  0
   90.6950  100.5630  -42.0260 C   0  0  0  0  0  0  0  0  0  0  0  0
   92.1110  101.6780  -40.9700 I   0  0  0  0  0  0  0  0  0  0  0  0
   89.3380  100.9190  -42.0190 C   0  0  0  0  0  0  0  0  0  0  0  0
   88.9070  102.0100  -41.3010 O   0  0  0  0  0  0  0  0  0  0  0  0
   85.3580   98.8330  -43.5950 C   0  0  0  0  0  0  0  0  0  0  0  0
   84.8090   98.2020  -44.8840 C   0  0  0  0  0  0  0  0  0  0  0  0
   89.1956   96.3703  -46.9543 H   0  0  0  0  0  0  0  0  0  0  0  0
   87.7051   96.1295  -47.9274 H   0  0  0  0  0  0  0  0  0  0  0  0
   88.5296   97.7254  -47.9274 H   0  0  0  0  0  0  0  0  0  0  0  0
   86.5781   96.5934  -46.0433 H   0  0  0  0  0  0  0  0  0  0  0  0
   88.0828   97.2606  -45.2491 H   0  0  0  0  0  0  0  0  0  0  0  0
   87.2120   99.1160  -45.3540 H   0  0  0  0  0  0  0  0  0  0  0  0
   88.1285   98.8588  -47.9917 H   0  0  0  0  0  0  0  0  0  0  0  0
   86.8637  100.1632  -47.7774 H   0  0  0  0  0  0  0  0  0  0  0  0
   88.6051  100.4249  -45.5951 H   0  0  0  0  0  0  0  0  0  0  0  0
   89.6594  100.1679  -47.0266 H   0  0  0  0  0  0  0  0  0  0  0  0
   88.4538  101.4995  -47.0266 H   0  0  0  0  0  0  0  0  0  0  0  0
   84.9296   98.4490  -47.0548 H   0  0  0  0  0  0  0  0  0  0  0  0
   85.4896  100.9331  -46.8452 H   0  0  0  0  0  0  0  0  0  0  0  0
   83.9235  100.4812  -46.0426 H   0  0  0  0  0  0  0  0  0  0  0  0
   86.1779  101.8335  -44.8919 H   0  0  0  0  0  0  0  0  0  0  0  0
   84.6484  101.3274  -44.0977 H   0  0  0  0  0  0  0  0  0  0  0  0
   86.8167  101.6166  -42.7740 H   0  0  0  0  0  0  0  0  0  0  0  0
   86.4631  100.0946  -41.8553 H   0  0  0  0  0  0  0  0  0  0  0  0
   88.1269   98.4575  -44.0510 H   0  0  0  0  0  0  0  0  0  0  0  0
   91.1171   95.4125  -46.5665 H   0  0  0  0  0  0  0  0  0  0  0  0
   92.6627   95.5315  -45.6380 H   0  0  0  0  0  0  0  0  0  0  0  0
   90.2380   94.0400  -44.8570 H   0  0  0  0  0  0  0  0  0  0  0  0
   93.5708   93.0870  -44.5394 H   0  0  0  0  0  0  0  0  0  0  0  0
   94.7324   92.5834  -42.3999 H   0  0  0  0  0  0  0  0  0  0  0  0
   93.6634   93.1805  -40.2271 H   0  0  0  0  0  0  0  0  0  0  0  0
   91.4386   94.3066  -40.2153 H   0  0  0  0  0  0  0  0  0  0  0  0
   90.2796   94.8129  -42.3569 H   0  0  0  0  0  0  0  0  0  0  0  0
   92.1914   99.1804  -42.7672 H   0  0  0  0  0  0  0  0  0  0  0  0
   88.7980  102.7280  -41.9560 H   0  0  0  0  0  0  0  0  0  0  0  0
   85.9260   98.0781  -43.0315 H   0  0  0  0  0  0  0  0  0  0  0  0
   84.5203   99.1980  -42.9826 H   0  0  0  0  0  0  0  0  0  0  0  0
   85.0871   97.1379  -44.9048 H   0  0  0  0  0  0  0  0  0  0  0  0
   83.7162   98.3279  -44.8850 H   0  0  0  0  0  0  0  0  0  0  0  0
  1  2  1  0
  2  3  1  0
  3  4  1  0
  4  5  1  0
  3  6  1  0
  6  7  1  0
  7  8  1  0
  8  9  1  0
  9 10  1  0
 10 11  1  0
 11 12  2  0
 12 13  1  0
 13 14  1  0
 14 15  3  0
 15 16  1  0
 16 17  1  0
 17 18  1  0
 18 19  2  0
 19 20  1  0
 20 21  2  0
 21 22  1  0
 22 23  2  0
 13 24  2  0
 24 25  1  0
 25 26  1  0
 25 27  2  0
 27 28  1  0
  9 29  1  0
 29 30  1  0
 30  6  1  0
 27 11  1  0
 23 18  1  0
  1 31  1  0
  1 32  1  0
  1 33  1  0
  2 34  1  0
  2 35  1  0
  3 36  1  0
  4 37  1  0
  4 38  1  0
  5 39  1  0
  5 40  1  0
  5 41  1  0
  6 42  1  0
  7 43  1  0
  7 44  1  0
  8 45  1  0
  8 46  1  0
 10 47  1  0
 10 48  1  0
 12 49  1  0
 16 50  1  0
 16 51  1  0
 17 52  1  0
 19 53  1  0
 20 54  1  0
 21 55  1  0
 22 56  1  0
 23 57  1  0
 24 58  1  0
 28 59  1  0
 29 60  1  0
 29 61  1  0
 30 62  1  0
 30 63  1  0
M  CHG  1   3   1
M  END
>  <meeko>  (2) 
{"is_sidechain": [false], "free_energy": -6.577, "intermolecular_energy": -9.07, "internal_energy": -1.891}

$$$$
4agq_ligand
     RDKit          3D

 63 65  0  0  0  0  0  0  0  0999 V2000
   92.6380   99.0090  -45.2820 C   0  0  0  0  0  0  0  0  0  0  0  0
   91.6390  100.0960  -44.9450 C   0  0  0  0  0  0  0  0  0  0  0  0
   91.3370  100.2040  -43.4660 N   0  0  0  0  0  0  0  0  0  0  0  0
   91.8940   99.0630  -42.6430 C   0  0  0  0  0  0  0  0  0  0  0  0
   90.8690   97.9990  -42.2970 C   0  0  0  0  0  0  0  0  0  0  0  0
   91.3820  101.6110  -42.8310 C   0  0  0  0  0  0  0  0  0  0  0  0
   90.6890  101.6070  -41.4510 C   0  0  0  0  0  0  0  0  0  0  0  0
   89.1770  101.3590  -41.5600 C   0  0  0  0  0  0  0  0  0  0  0  0
   88.8200  101.1290  -42.9640 N   0  0  0  0  0  0  0  0  0  0  0  0
   87.4300  100.6710  -43.1120 C   0  0  0  0  0  0  0  0  0  0  0  0
   87.3110   99.5780  -44.1540 C   0  0  0  0  0  0  0  0  0  0  0  0
   88.3830   98.6900  -44.3480 C   0  0  0  0  0  0  0  0  0  0  0  0
   88.3060   97.6740  -45.3060 C   0  0  0  0  0  0  0  0  0  0  0  0
   89.4030   96.7750  -45.4870 C   0  0  0  0  0  0  0  0  0  0  0  0
   90.2980   95.9970  -45.6710 C   0  0  0  0  0  0  0  0  0  0  0  0
   91.3830   95.0220  -45.8430 C   0  0  0  0  0  0  0  0  0  0  0  0
   91.1800   93.8620  -44.9880 N   0  0  0  0  0  0  0  0  0  0  0  0
   91.7520   93.7760  -43.7170 C   0  0  0  0  0  0  0  0  0  0  0  0
   93.0500   93.2550  -43.6050 C   0  0  0  0  0  0  0  0  0  0  0  0
   93.7120   93.1950  -42.3740 C   0  0  0  0  0  0  0  0  0  0  0  0
   93.0920   93.6830  -41.2300 C   0  0  0  0  0  0  0  0  0  0  0  0
   91.8210   94.2410  -41.3230 C   0  0  0  0  0  0  0  0  0  0  0  0
   91.1650   94.2980  -42.5580 C   0  0  0  0  0  0  0  0  0  0  0  0
   87.1610   97.5310  -46.0890 C   0  0  0  0  0  0  0  0  0  0  0  0
   86.0900   98.4080  -45.9120 C   0  0  0  0  0  0  0  0  0  0  0  0
   84.3820   98.1520  -47.0870 I   0  0  0  0  0  0  0  0  0  0  0  0
   86.1640   99.4270  -44.9510 C   0  0  0  0  0  0  0  0  0  0  0  0
   85.1110  100.2920  -44.7690 O   0  0  0  0  0  0  0  0  0  0  0  0
   89.1200  102.3170  -43.7770 C   0  0  0  0  0  0  0  0  0  0  0  0
   90.6200  102.6370  -43.6930 C   0  0  0  0  0  0  0  0  0  0  0  0
   93.0361   98.5759  -44.3525 H   0  0  0  0  0  0  0  0  0  0  0  0
   92.1405   98.2230  -45.8691 H   0  0  0  0  0  0  0  0  0  0  0  0
   93.4631   99.4385  -45.8691 H   0  0  0  0  0  0  0  0  0  0  0  0
   92.0441  101.0593  -45.2884 H   0  0  0  0  0  0  0  0  0  0  0  0
   90.6964   99.8352  -45.4485 H   0  0  0  0  0  0  0  0  0  0  0  0
   90.3070  100.0170  -43.4480 H   0  0  0  0  0  0  0  0  0  0  0  0
   92.7068   98.5891  -43.2129 H   0  0  0  0  0  0  0  0  0  0  0  0
   92.2413   99.4939  -41.6924 H   0  0  0  0  0  0  0  0  0  0  0  0
   90.7854   97.9122  -41.2036 H   0  0  0  0  0  0  0  0  0  0  0  0
   89.8925   98.2798  -42.7183 H   0  0  0  0  0  0  0  0  0  0  0  0
   91.1861   97.0336  -42.7183 H   0  0  0  0  0  0  0  0  0  0  0  0
   92.4447  101.8822  -42.7471 H   0  0  0  0  0  0  0  0  0  0  0  0
   91.1343  100.8130  -40.8336 H   0  0  0  0  0  0  0  0  0  0  0  0
   90.8361  102.5981  -40.9971 H   0  0  0  0  0  0  0  0  0  0  0  0
   88.9062  100.4755  -40.9632 H   0  0  0  0  0  0  0  0  0  0  0  0
   88.6329  102.2371  -41.1821 H   0  0  0  0  0  0  0  0  0  0  0  0
   87.0773  100.2825  -42.1452 H   0  0  0  0  0  0  0  0  0  0  0  0
   86.8191  101.5255  -43.4384 H   0  0  0  0  0  0  0  0  0  0  0  0
   89.2931   98.7953  -43.7393 H   0  0  0  0  0  0  0  0  0  0  0  0
   91.4101   94.6950  -46.8929 H   0  0  0  0  0  0  0  0  0  0  0  0
   92.3332   95.5013  -45.5648 H   0  0  0  0  0  0  0  0  0  0  0  0
   90.2120   93.5500  -44.9900 H   0  0  0  0  0  0  0  0  0  0  0  0
   93.5594   92.8848  -44.5069 H   0  0  0  0  0  0  0  0  0  0  0  0
   94.7214   92.7623  -42.3117 H   0  0  0  0  0  0  0  0  0  0  0  0
   93.6029   93.6284  -40.2573 H   0  0  0  0  0  0  0  0  0  0  0  0
   91.3299   94.6388  -40.4227 H   0  0  0  0  0  0  0  0  0  0  0  0
   90.1694   94.7617  -42.6192 H   0  0  0  0  0  0  0  0  0  0  0  0
   87.1023   96.7313  -46.8420 H   0  0  0  0  0  0  0  0  0  0  0  0
   85.2020  100.9680  -45.4710 H   0  0  0  0  0  0  0  0  0  0  0  0
   88.8459  102.1220  -44.8243 H   0  0  0  0  0  0  0  0  0  0  0  0
   88.5432  103.1732  -43.3973 H   0  0  0  0  0  0  0  0  0  0  0  0
   91.0419  102.6305  -44.7088 H   0  0  0  0  0  0  0  0  0  0  0  0
   90.7308  103.6251  -43.2224 H   0  0  0  0  0  0  0  0  0  0  0  0
  1  2  1  0
  2  3  1  0
  3  4  1  0
  4  5  1  0
  3  6  1  0
  6  7  1  0
  7  8  1  0
  8  9  1  0
  9 10  1  0
 10 11  1  0
 11 12  2  0
 12 13  1  0
 13 14  1  0
 14 15  3  0
 15 16  1  0
 16 17  1  0
 17 18  1  0
 18 19  2  0
 19 20  1  0
 20 21  2  0
 21 22  1  0
 22 23  2  0
 13 24  2  0
 24 25  1  0
 25 26  1  0
 25 27  2  0
 27 28  1  0
  9 29  1  0
 29 30  1  0
 30  6  1  0
 27 11  1  0
 23 18  1  0
  1 31  1  0
  1 32  1  0
  1 33  1  0
  2 34  1  0
  2 35  1  0
  3 36  1  0
  4 37  1  0
  4 38  1  0
  5 39  1  0
  5 40  1  0
  5 41  1  0
  6 42  1  0
  7 43  1  0
  7 44  1  0
  8 45  1  0
  8 46  1  0
 10 47  1  0
 10 48  1  0
 12 49  1  0
 16 50  1  0
 16 51  1  0
 17 52  1  0
 19 53  1  0
 20 54  1  0
 21 55  1  0
 22 56  1  0
 23 57  1  0
 24 58  1  0
 28 59  1  0
 29 60  1  0
 29 61  1  0
 30 62  1  0
 30 63  1  0
M  CHG  1   3   1
M  END
>  <meeko>  (3) 
{"is_sidechain": [false], "free_energy": -6.499, "intermolecular_energy": -8.815, "internal_energy": -2.03}

$$$$
4agq_ligand
     RDKit          3D

 63 65  0  0  0  0  0  0  0  0999 V2000
   88.3610  101.8160  -42.9650 C   0  0  0  0  0  0  0  0  0  0  0  0
   89.4790  102.6480  -43.5600 C   0  0  0  0  0  0  0  0  0  0  0  0
   90.4570  101.8450  -44.3890 N   0  0  0  0  0  0  0  0  0  0  0  0
   90.1820  101.8940  -45.8760 C   0  0  0  0  0  0  0  0  0  0  0  0
   90.5240  103.2250  -46.5200 C   0  0  0  0  0  0  0  0  0  0  0  0
   91.9370  101.8530  -43.9500 C   0  0  0  0  0  0  0  0  0  0  0  0
   92.7270  100.7440  -44.6790 C   0  0  0  0  0  0  0  0  0  0  0  0
   92.2800   99.3370  -44.2540 C   0  0  0  0  0  0  0  0  0  0  0  0
   91.1670   99.4440  -43.3050 N   0  0  0  0  0  0  0  0  0  0  0  0
   90.5510   98.1380  -43.0270 C   0  0  0  0  0  0  0  0  0  0  0  0
   90.1900   97.4080  -44.3040 C   0  0  0  0  0  0  0  0  0  0  0  0
   90.7410   96.1390  -44.5520 C   0  0  0  0  0  0  0  0  0  0  0  0
   90.4320   95.4410  -45.7240 C   0  0  0  0  0  0  0  0  0  0  0  0
   90.9960   94.1490  -45.9590 C   0  0  0  0  0  0  0  0  0  0  0  0
   91.4440   93.0600  -46.1950 C   0  0  0  0  0  0  0  0  0  0  0  0
   91.9710   91.7330  -46.5390 C   0  0  0  0  0  0  0  0  0  0  0  0
   92.1790   91.6130  -47.9740 N   0  0  0  0  0  0  0  0  0  0  0  0
   91.1790   91.1350  -48.8250 C   0  0  0  0  0  0  0  0  0  0  0  0
   90.9150   89.7570  -48.8340 C   0  0  0  0  0  0  0  0  0  0  0  0
   89.8880   89.2140  -49.6130 C   0  0  0  0  0  0  0  0  0  0  0  0
   89.0840   90.0490  -50.3810 C   0  0  0  0  0  0  0  0  0  0  0  0
   89.3020   91.4230  -50.3560 C   0  0  0  0  0  0  0  0  0  0  0  0
   90.3310   91.9590  -49.5740 C   0  0  0  0  0  0  0  0  0  0  0  0
   89.5730   96.0010  -46.6690 C   0  0  0  0  0  0  0  0  0  0  0  0
   89.0230   97.2620  -46.4400 C   0  0  0  0  0  0  0  0  0  0  0  0
   87.7240   98.0610  -47.8680 I   0  0  0  0  0  0  0  0  0  0  0  0
   89.3300   97.9630  -45.2650 C   0  0  0  0  0  0  0  0  0  0  0  0
   88.7880   99.2050  -45.0320 O   0  0  0  0  0  0  0  0  0  0  0  0
   91.5910  100.1470  -42.0850 C   0  0  0  0  0  0  0  0  0  0  0  0
   92.0750  101.5600  -42.4430 C   0  0  0  0  0  0  0  0  0  0  0  0
   88.4172  101.8578  -41.8672 H   0  0  0  0  0  0  0  0  0  0  0  0
   87.3909  102.2136  -43.2979 H   0  0  0  0  0  0  0  0  0  0  0  0
   88.4633  100.7726  -43.2979 H   0  0  0  0  0  0  0  0  0  0  0  0
   89.0327  103.4219  -44.2018 H   0  0  0  0  0  0  0  0  0  0  0  0
   90.0446  103.0762  -42.7193 H   0  0  0  0  0  0  0  0  0  0  0  0
   90.1870  100.8640  -44.1400 H   0  0  0  0  0  0  0  0  0  0  0  0
   90.7781  101.1092  -46.3647 H   0  0  0  0  0  0  0  0  0  0  0  0
   89.1000  101.7444  -46.0062 H   0  0  0  0  0  0  0  0  0  0  0  0
   90.7162  103.9728  -45.7365 H   0  0  0  0  0  0  0  0  0  0  0  0
   91.4218  103.1099  -47.1451 H   0  0  0  0  0  0  0  0  0  0  0  0
   89.6820  103.5570  -47.1451 H   0  0  0  0  0  0  0  0  0  0  0  0
   92.3283  102.8521  -44.1921 H   0  0  0  0  0  0  0  0  0  0  0  0
   92.5719  100.8526  -45.7626 H   0  0  0  0  0  0  0  0  0  0  0  0
   93.7885  100.8555  -44.4130 H   0  0  0  0  0  0  0  0  0  0  0  0
   91.9536   98.7726  -45.1400 H   0  0  0  0  0  0  0  0  0  0  0  0
   93.1210   98.8137  -43.7756 H   0  0  0  0  0  0  0  0  0  0  0  0
   91.2605   97.5237  -42.4531 H   0  0  0  0  0  0  0  0  0  0  0  0
   89.6267   98.3085  -42.4554 H   0  0  0  0  0  0  0  0  0  0  0  0
   91.4234   95.6894  -43.8156 H   0  0  0  0  0  0  0  0  0  0  0  0
   92.9301   91.5813  -46.0221 H   0  0  0  0  0  0  0  0  0  0  0  0
   91.2408   90.9726  -46.2249 H   0  0  0  0  0  0  0  0  0  0  0  0
   92.6510   92.4260  -48.3620 H   0  0  0  0  0  0  0  0  0  0  0  0
   91.5300   89.0881  -48.2140 H   0  0  0  0  0  0  0  0  0  0  0  0
   89.7165   88.1275  -49.6181 H   0  0  0  0  0  0  0  0  0  0  0  0
   88.2816   89.6265  -51.0037 H   0  0  0  0  0  0  0  0  0  0  0  0
   88.6631   92.0902  -50.9532 H   0  0  0  0  0  0  0  0  0  0  0  0
   90.4763   93.0490  -49.5473 H   0  0  0  0  0  0  0  0  0  0  0  0
   89.3304   95.4510  -47.5903 H   0  0  0  0  0  0  0  0  0  0  0  0
   88.6910   99.2700  -44.0600 H   0  0  0  0  0  0  0  0  0  0  0  0
   90.7417  100.2168  -41.3894 H   0  0  0  0  0  0  0  0  0  0  0  0
   92.4124   99.5900  -41.6106 H   0  0  0  0  0  0  0  0  0  0  0  0
   91.4764  102.2931  -41.8824 H   0  0  0  0  0  0  0  0  0  0  0  0
   93.1405  101.6312  -42.1792 H   0  0  0  0  0  0  0  0  0  0  0  0
  1  2  1  0
  2  3  1  0
  3  4  1  0
  4  5  1  0
  3  6  1  0
  6  7  1  0
  7  8  1  0
  8  9  1  0
  9 10  1  0
 10 11  1  0
 11 12  2  0
 12 13  1  0
 13 14  1  0
 14 15  3  0
 15 16  1  0
 16 17  1  0
 17 18  1  0
 18 19  2  0
 19 20  1  0
 20 21  2  0
 21 22  1  0
 22 23  2  0
 13 24  2  0
 24 25  1  0
 25 26  1  0
 25 27  2  0
 27 28  1  0
  9 29  1  0
 29 30  1  0
 30  6  1  0
 27 11  1  0
 23 18  1  0
  1 31  1  0
  1 32  1  0
  1 33  1  0
  2 34  1  0
  2 35  1  0
  3 36  1  0
  4 37  1  0
  4 38  1  0
  5 39  1  0
  5 40  1  0
  5 41  1  0
  6 42  1  0
  7 43  1  0
  7 44  1  0
  8 45  1  0
  8 46  1  0
 10 47  1  0
 10 48  1  0
 12 49  1  0
 16 50  1  0
 16 51  1  0
 17 52  1  0
 19 53  1  0
 20 54  1  0
 21 55  1  0
 22 56  1  0
 23 57  1  0
 24 58  1  0
 28 59  1  0
 29 60  1  0
 29 61  1  0
 30 62  1  0
 30 63  1  0
M  CHG  1   3   1
M  END
>  <meeko>  (4) 
{"is_sidechain": [false], "free_energy": -6.291, "intermolecular_energy": -8.993, "internal_energy": -1.54}

$$$$
4agq_ligand
     RDKit          3D

 63 65  0  0  0  0  0  0  0  0999 V2000
   88.1240   97.1090  -46.0930 C   0  0  0  0  0  0  0  0  0  0  0  0
   87.5830   97.1340  -47.5080 C   0  0  0  0  0  0  0  0  0  0  0  0
   86.2910   97.9090  -47.6490 N   0  0  0  0  0  0  0  0  0  0  0  0
   86.4860   99.3540  -48.0540 C   0  0  0  0  0  0  0  0  0  0  0  0
   86.5800  100.3120  -46.8810 C   0  0  0  0  0  0  0  0  0  0  0  0
   85.0800   97.1700  -48.2580 C   0  0  0  0  0  0  0  0  0  0  0  0
   83.8030   98.0300  -48.1430 C   0  0  0  0  0  0  0  0  0  0  0  0
   83.3580   98.2170  -46.6840 C   0  0  0  0  0  0  0  0  0  0  0  0
   84.3230   97.5660  -45.7920 N   0  0  0  0  0  0  0  0  0  0  0  0
   84.0750   97.8930  -44.3790 C   0  0  0  0  0  0  0  0  0  0  0  0
   85.0260   98.9600  -43.8780 C   0  0  0  0  0  0  0  0  0  0  0  0
   86.3740   98.6310  -43.6510 C   0  0  0  0  0  0  0  0  0  0  0  0
   87.2760   99.5910  -43.1830 C   0  0  0  0  0  0  0  0  0  0  0  0
   88.6440   99.2430  -42.9630 C   0  0  0  0  0  0  0  0  0  0  0  0
   89.8030   98.9950  -42.7660 C   0  0  0  0  0  0  0  0  0  0  0  0
   91.2040   98.6650  -42.4770 C   0  0  0  0  0  0  0  0  0  0  0  0
   91.2940   97.5170  -41.5870 N   0  0  0  0  0  0  0  0  0  0  0  0
   91.4900   96.2230  -42.0730 C   0  0  0  0  0  0  0  0  0  0  0  0
   91.8350   95.2140  -41.1610 C   0  0  0  0  0  0  0  0  0  0  0  0
   91.9870   93.8830  -41.5640 C   0  0  0  0  0  0  0  0  0  0  0  0
   91.7690   93.5320  -42.8910 C   0  0  0  0  0  0  0  0  0  0  0  0
   91.3870   94.5080  -43.8060 C   0  0  0  0  0  0  0  0  0  0  0  0
   91.2370   95.8380  -43.3940 C   0  0  0  0  0  0  0  0  0  0  0  0
   86.8470  100.8950  -42.9300 C   0  0  0  0  0  0  0  0  0  0  0  0
   85.5110  101.2350  -43.1460 C   0  0  0  0  0  0  0  0  0  0  0  0
   84.9070  103.2010  -42.7770 I   0  0  0  0  0  0  0  0  0  0  0  0
   84.6050  100.2740  -43.6160 C   0  0  0  0  0  0  0  0  0  0  0  0
   83.2880  100.6040  -43.8340 O   0  0  0  0  0  0  0  0  0  0  0  0
   84.3690   96.1180  -46.0440 C   0  0  0  0  0  0  0  0  0  0  0  0
   84.7870   95.8600  -47.5000 C   0  0  0  0  0  0  0  0  0  0  0  0
   87.2874   97.1477  -45.3798 H   0  0  0  0  0  0  0  0  0  0  0  0
   88.6972   96.1834  -45.9359 H   0  0  0  0  0  0  0  0  0  0  0  0
   88.7802   97.9778  -45.9359 H   0  0  0  0  0  0  0  0  0  0  0  0
   88.3384   97.5955  -48.1610 H   0  0  0  0  0  0  0  0  0  0  0  0
   87.3669   96.0927  -47.7892 H   0  0  0  0  0  0  0  0  0  0  0  0
   85.9860   97.9910  -46.6510 H   0  0  0  0  0  0  0  0  0  0  0  0
   87.4155   99.4281  -48.6375 H   0  0  0  0  0  0  0  0  0  0  0  0
   85.5991   99.6460  -48.6355 H   0  0  0  0  0  0  0  0  0  0  0  0
   86.5244   99.7456  -45.9397 H   0  0  0  0  0  0  0  0  0  0  0  0
   87.5357  100.8547  -46.9265 H   0  0  0  0  0  0  0  0  0  0  0  0
   85.7480  101.0301  -46.9265 H   0  0  0  0  0  0  0  0  0  0  0  0
   85.3346   96.9666  -49.3086 H   0  0  0  0  0  0  0  0  0  0  0  0
   84.0012   99.0188  -48.5823 H   0  0  0  0  0  0  0  0  0  0  0  0
   82.9956   97.5085  -48.6779 H   0  0  0  0  0  0  0  0  0  0  0  0
   83.3089   99.2908  -46.4503 H   0  0  0  0  0  0  0  0  0  0  0  0
   82.3650   97.7655  -46.5425 H   0  0  0  0  0  0  0  0  0  0  0  0
   83.0424   98.2569  -44.2728 H   0  0  0  0  0  0  0  0  0  0  0  0
   84.2343   96.9827  -43.7823 H   0  0  0  0  0  0  0  0  0  0  0  0
   86.7231   97.6059  -43.8440 H   0  0  0  0  0  0  0  0  0  0  0  0
   91.7208   98.4314  -43.4195 H   0  0  0  0  0  0  0  0  0  0  0  0
   91.6744   99.5290  -41.9849 H   0  0  0  0  0  0  0  0  0  0  0  0
   91.8720   97.7080  -40.7720 H   0  0  0  0  0  0  0  0  0  0  0  0
   91.9896   95.4758  -40.1039 H   0  0  0  0  0  0  0  0  0  0  0  0
   92.2786   93.1156  -40.8319 H   0  0  0  0  0  0  0  0  0  0  0  0
   91.8977   92.4890  -43.2158 H   0  0  0  0  0  0  0  0  0  0  0  0
   91.2024   94.2344  -44.8553 H   0  0  0  0  0  0  0  0  0  0  0  0
   90.9138   96.5951  -44.1236 H   0  0  0  0  0  0  0  0  0  0  0  0
   87.5577  101.6499  -42.5626 H   0  0  0  0  0  0  0  0  0  0  0  0
   83.2150  101.5530  -43.6110 H   0  0  0  0  0  0  0  0  0  0  0  0
   85.0987   95.6516  -45.3657 H   0  0  0  0  0  0  0  0  0  0  0  0
   83.3731   95.6853  -45.8682 H   0  0  0  0  0  0  0  0  0  0  0  0
   85.6936   95.2371  -47.5040 H   0  0  0  0  0  0  0  0  0  0  0  0
   83.9533   95.3530  -48.0079 H   0  0  0  0  0  0  0  0  0  0  0  0
  1  2  1  0
  2  3  1  0
  3  4  1  0
  4  5  1  0
  3  6  1  0
  6  7  1  0
  7  8  1  0
  8  9  1  0
  9 10  1  0
 10 11  1  0
 11 12  2  0
 12 13  1  0
 13 14  1  0
 14 15  3  0
 15 16  1  0
 16 17  1  0
 17 18  1  0
 18 19  2  0
 19 20  1  0
 20 21  2  0
 21 22  1  0
 22 23  2  0
 13 24  2  0
 24 25  1  0
 25 26  1  0
 25 27  2  0
 27 28  1  0
  9 29  1  0
 29 30  1  0
 30  6  1  0
 27 11  1  0
 23 18  1  0
  1 31  1  0
  1 32  1  0
  1 33  1  0
  2 34  1  0
  2 35  1  0
  3 36  1  0
  4 37  1  0
  4 38  1  0
  5 39  1  0
  5 40  1  0
  5 41  1  0
  6 42  1  0
  7 43  1  0
  7 44  1  0
  8 45  1  0
  8 46  1  0
 10 47  1  0
 10 48  1  0
 12 49  1  0
 16 50  1  0
 16 51  1  0
 17 52  1  0
 19 53  1  0
 20 54  1  0
 21 55  1  0
 22 56  1  0
 23 57  1  0
 24 58  1  0
 28 59  1  0
 29 60  1  0
 29 61  1  0
 30 62  1  0
 30 63  1  0
M  CHG  1   3   1
M  END
>  <meeko>  (5) 
{"is_sidechain": [false], "free_energy": -6.128, "intermolecular_energy": -8.192, "internal_energy": -2.098}

$$$$
4agq_ligand
     RDKit          3D

 63 65  0  0  0  0  0  0  0  0999 V2000
   89.8940  101.5210  -46.0820 C   0  0  0  0  0  0  0  0  0  0  0  0
   91.3700  101.4610  -45.7440 C   0  0  0  0  0  0  0  0  0  0  0  0
   91.6460  101.1310  -44.2940 N   0  0  0  0  0  0  0  0  0  0  0  0
   92.0980   99.7050  -44.0670 C   0  0  0  0  0  0  0  0  0  0  0  0
   92.5160   98.9850  -45.3350 C   0  0  0  0  0  0  0  0  0  0  0  0
   92.3130  102.2230  -43.4290 C   0  0  0  0  0  0  0  0  0  0  0  0
   92.4340  101.7560  -41.9620 C   0  0  0  0  0  0  0  0  0  0  0  0
   91.0630  101.6120  -41.2840 C   0  0  0  0  0  0  0  0  0  0  0  0
   90.0040  101.9020  -42.2560 N   0  0  0  0  0  0  0  0  0  0  0  0
   88.6700  101.5710  -41.7340 C   0  0  0  0  0  0  0  0  0  0  0  0
   87.9080  100.6660  -42.6800 C   0  0  0  0  0  0  0  0  0  0  0  0
   88.6000   99.6610  -43.3790 C   0  0  0  0  0  0  0  0  0  0  0  0
   87.9270   98.8130  -44.2640 C   0  0  0  0  0  0  0  0  0  0  0  0
   88.6430   97.7930  -44.9630 C   0  0  0  0  0  0  0  0  0  0  0  0
   89.2040   96.9210  -45.5690 C   0  0  0  0  0  0  0  0  0  0  0  0
   89.9410   95.8770  -46.2930 C   0  0  0  0  0  0  0  0  0  0  0  0
   91.2750   95.7040  -45.7390 N   0  0  0  0  0  0  0  0  0  0  0  0
   91.4800   95.1660  -44.4660 C   0  0  0  0  0  0  0  0  0  0  0  0
   91.3250   96.0080  -43.3540 C   0  0  0  0  0  0  0  0  0  0  0  0
   91.4530   95.5260  -42.0480 C   0  0  0  0  0  0  0  0  0  0  0  0
   91.7130   94.1780  -41.8290 C   0  0  0  0  0  0  0  0  0  0  0  0
   91.8310   93.3170  -42.9150 C   0  0  0  0  0  0  0  0  0  0  0  0
   91.7010   93.8070  -44.2190 C   0  0  0  0  0  0  0  0  0  0  0  0
   86.5550   98.9570  -44.4700 C   0  0  0  0  0  0  0  0  0  0  0  0
   85.8560   99.9530  -43.7880 C   0  0  0  0  0  0  0  0  0  0  0  0
   83.7980  100.1270  -44.1030 I   0  0  0  0  0  0  0  0  0  0  0  0
   86.5280  100.8040  -42.8980 C   0  0  0  0  0  0  0  0  0  0  0  0
   85.8440  101.7850  -42.2200 O   0  0  0  0  0  0  0  0  0  0  0  0
   90.1030  103.2900  -42.7330 C   0  0  0  0  0  0  0  0  0  0  0  0
   91.4670  103.5110  -43.4040 C   0  0  0  0  0  0  0  0  0  0  0  0
   89.3057  101.5449  -45.1528 H   0  0  0  0  0  0  0  0  0  0  0  0
   89.6889  102.4282  -46.6693 H   0  0  0  0  0  0  0  0  0  0  0  0
   89.6159  100.6334  -46.6693 H   0  0  0  0  0  0  0  0  0  0  0  0
   91.8395  100.6893  -46.3718 H   0  0  0  0  0  0  0  0  0  0  0  0
   91.7850  102.4623  -45.9317 H   0  0  0  0  0  0  0  0  0  0  0  0
   90.6790  101.1300  -43.8910 H   0  0  0  0  0  0  0  0  0  0  0  0
   92.9550   99.7186  -43.3776 H   0  0  0  0  0  0  0  0  0  0  0  0
   91.2362   99.1576  -43.6575 H   0  0  0  0  0  0  0  0  0  0  0  0
   93.0523   98.0612  -45.0723 H   0  0  0  0  0  0  0  0  0  0  0  0
   91.6227   98.7349  -45.9261 H   0  0  0  0  0  0  0  0  0  0  0  0
   93.1761   99.6368  -45.9261 H   0  0  0  0  0  0  0  0  0  0  0  0
   93.3010  102.4132  -43.8736 H   0  0  0  0  0  0  0  0  0  0  0  0
   92.9435  100.7813  -41.9414 H   0  0  0  0  0  0  0  0  0  0  0  0
   93.0049  102.5179  -41.4110 H   0  0  0  0  0  0  0  0  0  0  0  0
   90.9454  100.5845  -40.9093 H   0  0  0  0  0  0  0  0  0  0  0  0
   90.9933  102.3189  -40.4441 H   0  0  0  0  0  0  0  0  0  0  0  0
   88.7823  101.0613  -40.7657 H   0  0  0  0  0  0  0  0  0  0  0  0
   88.1029  102.5070  -41.6228 H   0  0  0  0  0  0  0  0  0  0  0  0
   89.6829   99.5406  -43.2279 H   0  0  0  0  0  0  0  0  0  0  0  0
   89.3919   94.9272  -46.2130 H   0  0  0  0  0  0  0  0  0  0  0  0
   90.0345   96.1793  -47.3465 H   0  0  0  0  0  0  0  0  0  0  0  0
   91.9270   95.3240  -46.4210 H   0  0  0  0  0  0  0  0  0  0  0  0
   91.0974   97.0723  -43.5138 H   0  0  0  0  0  0  0  0  0  0  0  0
   91.3481   96.2124  -41.1948 H   0  0  0  0  0  0  0  0  0  0  0  0
   91.8246   93.7949  -40.8039 H   0  0  0  0  0  0  0  0  0  0  0  0
   92.0271   92.2476  -42.7481 H   0  0  0  0  0  0  0  0  0  0  0  0
   91.7740   93.1098  -45.0667 H   0  0  0  0  0  0  0  0  0  0  0  0
   86.0272   98.2888  -45.1664 H   0  0  0  0  0  0  0  0  0  0  0  0
   86.0820  101.6670  -41.2780 H   0  0  0  0  0  0  0  0  0  0  0  0
   89.3016  103.4845  -43.4610 H   0  0  0  0  0  0  0  0  0  0  0  0
   90.0014  103.9765  -41.8796 H   0  0  0  0  0  0  0  0  0  0  0  0
   91.3036  103.8488  -44.4380 H   0  0  0  0  0  0  0  0  0  0  0  0
   92.0145  104.2661  -42.8208 H   0  0  0  0  0  0  0  0  0  0  0  0
  1  2  1  0
  2  3  1  0
  3  4  1  0
  4  5  1  0
  3  6  1  0
  6  7  1  0
  7  8  1  0
  8  9  1  0
  9 10  1  0
 10 11  1  0
 11 12  2  0
 12 13  1  0
 13 14  1  0
 14 15  3  0
 15 16  1  0
 16 17  1  0
 17 18  1  0
 18 19  2  0
 19 20  1  0
 20 21  2  0
 21 22  1  0
 22 23  2  0
 13 24  2  0
 24 25  1  0
 25 26  1  0
 25 27  2  0
 27 28  1  0
  9 29  1  0
 29 30  1  0
 30  6  1  0
 27 11  1  0
 23 18  1  0
  1 31  1  0
  1 32  1  0
  1 33  1  0
  2 34  1  0
  2 35  1  0
  3 36  1  0
  4 37  1  0
  4 38  1  0
  5 39  1  0
  5 40  1  0
  5 41  1  0
  6 42  1  0
  7 43  1  0
  7 44  1  0
  8 45  1  0
  8 46  1  0
 10 47  1  0
 10 48  1  0
 12 49  1  0
 16 50  1  0
 16 51  1  0
 17 52  1  0
 19 53  1  0
 20 54  1  0
 21 55  1  0
 22 56  1  0
 23 57  1  0
 24 58  1  0
 28 59  1  0
 29 60  1  0
 29 61  1  0
 30 62  1  0
 30 63  1  0
M  CHG  1   3   1
M  END
>  <meeko>  (6) 
{"is_sidechain": [false], "free_energy": -6.128, "intermolecular_energy": -8.217, "internal_energy": -2.073}

$$$$
4agq_ligand
     RDKit          3D

 63 65  0  0  0  0  0  0  0  0999 V2000
   92.6410   99.8230  -45.5970 C   0  0  0  0  0  0  0  0  0  0  0  0
   91.9560  100.4240  -46.8070 C   0  0  0  0  0  0  0  0  0  0  0  0
   90.6020  101.0260  -46.5000 N   0  0  0  0  0  0  0  0  0  0  0  0
   90.5660  101.8270  -45.2170 C   0  0  0  0  0  0  0  0  0  0  0  0
   91.0520  103.2560  -45.3720 C   0  0  0  0  0  0  0  0  0  0  0  0
   89.7790  101.5700  -47.6880 C   0  0  0  0  0  0  0  0  0  0  0  0
   88.2800  101.6410  -47.3230 C   0  0  0  0  0  0  0  0  0  0  0  0
   87.6640  100.2470  -47.1250 C   0  0  0  0  0  0  0  0  0  0  0  0
   88.7060   99.2260  -47.2790 N   0  0  0  0  0  0  0  0  0  0  0  0
   88.2320   97.8900  -46.8870 C   0  0  0  0  0  0  0  0  0  0  0  0
   89.2450   97.1690  -46.0230 C   0  0  0  0  0  0  0  0  0  0  0  0
   89.7030   95.8980  -46.4110 C   0  0  0  0  0  0  0  0  0  0  0  0
   90.6340   95.2040  -45.6330 C   0  0  0  0  0  0  0  0  0  0  0  0
   91.0940   93.9150  -46.0440 C   0  0  0  0  0  0  0  0  0  0  0  0
   91.5100   92.8320  -46.3530 C   0  0  0  0  0  0  0  0  0  0  0  0
   91.9940   91.5140  -46.7830 C   0  0  0  0  0  0  0  0  0  0  0  0
   92.0880   91.4430  -48.2330 N   0  0  0  0  0  0  0  0  0  0  0  0
   91.0090   91.0370  -49.0220 C   0  0  0  0  0  0  0  0  0  0  0  0
   90.4210   91.9770  -49.8820 C   0  0  0  0  0  0  0  0  0  0  0  0
   89.3780   91.6290  -50.7460 C   0  0  0  0  0  0  0  0  0  0  0  0
   88.9190   90.3170  -50.7840 C   0  0  0  0  0  0  0  0  0  0  0  0
   89.5140   89.3580  -49.9700 C   0  0  0  0  0  0  0  0  0  0  0  0
   90.5570   89.7150  -49.1080 C   0  0  0  0  0  0  0  0  0  0  0  0
   91.1200   95.7650  -44.4510 C   0  0  0  0  0  0  0  0  0  0  0  0
   90.6710   97.0240  -44.0500 C   0  0  0  0  0  0  0  0  0  0  0  0
   91.4350   97.8430  -42.2860 I   0  0  0  0  0  0  0  0  0  0  0  0
   89.7380   97.7220  -44.8300 C   0  0  0  0  0  0  0  0  0  0  0  0
   89.2950   98.9640  -44.4420 O   0  0  0  0  0  0  0  0  0  0  0  0
   89.2670   99.2580  -48.6380 C   0  0  0  0  0  0  0  0  0  0  0  0
   89.8820  100.6390  -48.9120 C   0  0  0  0  0  0  0  0  0  0  0  0
   92.1841  100.2239  -44.6802 H   0  0  0  0  0  0  0  0  0  0  0  0
   92.5258   98.7292  -45.6161 H   0  0  0  0  0  0  0  0  0  0  0  0
   93.7105  100.0795  -45.6161 H   0  0  0  0  0  0  0  0  0  0  0  0
   92.6030  101.2139  -47.2163 H   0  0  0  0  0  0  0  0  0  0  0  0
   91.7903   99.6058  -47.5233 H   0  0  0  0  0  0  0  0  0  0  0  0
   90.0450  100.1750  -46.2520 H   0  0  0  0  0  0  0  0  0  0  0  0
   89.5284  101.8514  -44.8527 H   0  0  0  0  0  0  0  0  0  0  0  0
   91.2491  101.3316  -44.5114 H   0  0  0  0  0  0  0  0  0  0  0  0
   91.2036  103.7016  -44.3778 H   0  0  0  0  0  0  0  0  0  0  0  0
   92.0027  103.2620  -45.9253 H   0  0  0  0  0  0  0  0  0  0  0  0
   90.3021  103.8404  -45.9253 H   0  0  0  0  0  0  0  0  0  0  0  0
   90.1847  102.5659  -47.9194 H   0  0  0  0  0  0  0  0  0  0  0  0
   88.1693  102.2130  -46.3899 H   0  0  0  0  0  0  0  0  0  0  0  0
   87.7523  102.1281  -48.1562 H   0  0  0  0  0  0  0  0  0  0  0  0
   87.2291  100.1780  -46.1170 H   0  0  0  0  0  0  0  0  0  0  0  0
   86.8767  100.0838  -47.8757 H   0  0  0  0  0  0  0  0  0  0  0  0
   87.2933   97.9957  -46.3234 H   0  0  0  0  0  0  0  0  0  0  0  0
   88.0775   97.2984  -47.8014 H   0  0  0  0  0  0  0  0  0  0  0  0
   89.3240   95.4439  -47.3384 H   0  0  0  0  0  0  0  0  0  0  0  0
   92.9888   91.3364  -46.3485 H   0  0  0  0  0  0  0  0  0  0  0  0
   91.2823   90.7490  -46.4392 H   0  0  0  0  0  0  0  0  0  0  0  0
   92.5610   92.2530  -48.6260 H   0  0  0  0  0  0  0  0  0  0  0  0
   90.7897   93.0134  -49.8764 H   0  0  0  0  0  0  0  0  0  0  0  0
   88.9216   92.3916  -51.3942 H   0  0  0  0  0  0  0  0  0  0  0  0
   88.0912   90.0391  -51.4530 H   0  0  0  0  0  0  0  0  0  0  0  0
   89.1634   88.3159  -50.0042 H   0  0  0  0  0  0  0  0  0  0  0  0
   91.0310   88.9415  -48.4858 H   0  0  0  0  0  0  0  0  0  0  0  0
   91.8525   95.2181  -43.8392 H   0  0  0  0  0  0  0  0  0  0  0  0
   90.0740   99.4110  -44.0540 H   0  0  0  0  0  0  0  0  0  0  0  0
   90.0453   98.4862  -48.7305 H   0  0  0  0  0  0  0  0  0  0  0  0
   88.4665   99.0646  -49.3672 H   0  0  0  0  0  0  0  0  0  0  0  0
   90.9431  100.5100  -49.1718 H   0  0  0  0  0  0  0  0  0  0  0  0
   89.3233  101.1018  -49.7389 H   0  0  0  0  0  0  0  0  0  0  0  0
  1  2  1  0
  2  3  1  0
  3  4  1  0
  4  5  1  0
  3  6  1  0
  6  7  1  0
  7  8  1  0
  8  9  1  0
  9 10  1  0
 10 11  1  0
 11 12  2  0
 12 13  1  0
 13 14  1  0
 14 15  3  0
 15 16  1  0
 16 17  1  0
 17 18  1  0
 18 19  2  0
 19 20  1  0
 20 21  2  0
 21 22  1  0
 22 23  2  0
 13 24  2  0
 24 25  1  0
 25 26  1  0
 25 27  2  0
 27 28  1  0
  9 29  1  0
 29 30  1  0
 30  6  1  0
 27 11  1  0
 23 18  1  0
  1 31  1  0
  1 32  1  0
  1 33  1  0
  2 34  1  0
  2 35  1  0
  3 36  1  0
  4 37  1  0
  4 38  1  0
  5 39  1  0
  5 40  1  0
  5 41  1  0
  6 42  1  0
  7 43  1  0
  7 44  1  0
  8 45  1  0
  8 46  1  0
 10 47  1  0
 10 48  1  0
 12 49  1  0
 16 50  1  0
 16 51  1  0
 17 52  1  0
 19 53  1  0
 20 54  1  0
 21 55  1  0
 22 56  1  0
 23 57  1  0
 24 58  1  0
 28 59  1  0
 29 60  1  0
 29 61  1  0
 30 62  1  0
 30 63  1  0
M  CHG  1   3   1
M  END
>  <meeko>  (7) 
{"is_sidechain": [false], "free_energy": -6.112, "intermolecular_energy": -8.394, "internal_energy": -1.871}

$$$$
4agq_ligand
     RDKit          3D

 63 65  0  0  0  0  0  0  0  0999 V2000
   87.6180  100.0320  -42.6330 C   0  0  0  0  0  0  0  0  0  0  0  0
   87.4890  101.3590  -43.3520 C   0  0  0  0  0  0  0  0  0  0  0  0
   88.8190  101.9870  -43.7100 N   0  0  0  0  0  0  0  0  0  0  0  0
   89.1700  101.8800  -45.1780 C   0  0  0  0  0  0  0  0  0  0  0  0
   87.9900  101.5360  -46.0680 C   0  0  0  0  0  0  0  0  0  0  0  0
   89.2030  103.2990  -42.9930 C   0  0  0  0  0  0  0  0  0  0  0  0
   90.6410  103.7200  -43.3640 C   0  0  0  0  0  0  0  0  0  0  0  0
   91.6930  102.7420  -42.8170 C   0  0  0  0  0  0  0  0  0  0  0  0
   91.0190  101.6300  -42.1380 N   0  0  0  0  0  0  0  0  0  0  0  0
   91.9540  100.5520  -41.7840 C   0  0  0  0  0  0  0  0  0  0  0  0
   91.5160   99.2210  -42.3590 C   0  0  0  0  0  0  0  0  0  0  0  0
   90.7990   99.1960  -43.5680 C   0  0  0  0  0  0  0  0  0  0  0  0
   90.3760   97.9840  -44.1230 C   0  0  0  0  0  0  0  0  0  0  0  0
   89.6530   97.9740  -45.3560 C   0  0  0  0  0  0  0  0  0  0  0  0
   89.0450   97.9190  -46.3900 C   0  0  0  0  0  0  0  0  0  0  0  0
   88.2700   97.8090  -47.6330 C   0  0  0  0  0  0  0  0  0  0  0  0
   86.9580   97.2330  -47.3760 N   0  0  0  0  0  0  0  0  0  0  0  0
   86.1050   97.7510  -46.3990 C   0  0  0  0  0  0  0  0  0  0  0  0
   85.9500   97.0340  -45.2030 C   0  0  0  0  0  0  0  0  0  0  0  0
   85.1620   97.5200  -44.1540 C   0  0  0  0  0  0  0  0  0  0  0  0
   84.5330   98.7540  -44.2740 C   0  0  0  0  0  0  0  0  0  0  0  0
   84.7060   99.5010  -45.4350 C   0  0  0  0  0  0  0  0  0  0  0  0
   85.4960   99.0080  -46.4800 C   0  0  0  0  0  0  0  0  0  0  0  0
   90.6570   96.7790  -43.4790 C   0  0  0  0  0  0  0  0  0  0  0  0
   91.3630   96.7890  -42.2750 C   0  0  0  0  0  0  0  0  0  0  0  0
   91.7840   94.9650  -41.3480 I   0  0  0  0  0  0  0  0  0  0  0  0
   91.7890   98.0030  -41.7170 C   0  0  0  0  0  0  0  0  0  0  0  0
   92.4890   98.0190  -40.5340 O   0  0  0  0  0  0  0  0  0  0  0  0
   90.2460  102.1180  -40.9860 C   0  0  0  0  0  0  0  0  0  0  0  0
   89.1870  103.1230  -41.4610 C   0  0  0  0  0  0  0  0  0  0  0  0
   87.6016  100.2007  -41.5461 H   0  0  0  0  0  0  0  0  0  0  0  0
   86.7791   99.3789  -42.9154 H   0  0  0  0  0  0  0  0  0  0  0  0
   88.5670   99.5527  -42.9154 H   0  0  0  0  0  0  0  0  0  0  0  0
   86.9198  101.1980  -44.2794 H   0  0  0  0  0  0  0  0  0  0  0  0
   86.9811  102.0504  -42.6636 H   0  0  0  0  0  0  0  0  0  0  0  0
   89.4910  101.3190  -43.2660 H   0  0  0  0  0  0  0  0  0  0  0  0
   89.5823  102.8453  -45.5069 H   0  0  0  0  0  0  0  0  0  0  0  0
   89.8937  101.0572  -45.2745 H   0  0  0  0  0  0  0  0  0  0  0  0
   87.1210  101.2827  -45.4430 H   0  0  0  0  0  0  0  0  0  0  0  0
   87.7455  102.4003  -46.7030 H   0  0  0  0  0  0  0  0  0  0  0  0
   88.2482  100.6757  -46.7030 H   0  0  0  0  0  0  0  0  0  0  0  0
   88.4682  104.0544  -43.3083 H   0  0  0  0  0  0  0  0  0  0  0  0
   90.7276  103.7565  -44.4600 H   0  0  0  0  0  0  0  0  0  0  0  0
   90.8305  104.7056  -42.9138 H   0  0  0  0  0  0  0  0  0  0  0  0
   92.2982  102.3515  -43.6484 H   0  0  0  0  0  0  0  0  0  0  0  0
   92.3458  103.2662  -42.1036 H   0  0  0  0  0  0  0  0  0  0  0  0
   92.9505  100.8003  -42.1782 H   0  0  0  0  0  0  0  0  0  0  0  0
   91.9756  100.4622  -40.6879 H   0  0  0  0  0  0  0  0  0  0  0  0
   90.5682  100.1401  -44.0831 H   0  0  0  0  0  0  0  0  0  0  0  0
   88.1446   98.8109  -48.0694 H   0  0  0  0  0  0  0  0  0  0  0  0
   88.8125   97.1526  -48.3293 H   0  0  0  0  0  0  0  0  0  0  0  0
   86.4610   97.0150  -48.2360 H   0  0  0  0  0  0  0  0  0  0  0  0
   86.4603   96.0664  -45.0873 H   0  0  0  0  0  0  0  0  0  0  0  0
   85.0403   96.9267  -43.2358 H   0  0  0  0  0  0  0  0  0  0  0  0
   83.9034   99.1369  -43.4573 H   0  0  0  0  0  0  0  0  0  0  0  0
   84.2200  100.4830  -45.5320 H   0  0  0  0  0  0  0  0  0  0  0  0
   85.6408   99.6205  -47.3821 H   0  0  0  0  0  0  0  0  0  0  0  0
   90.3242   95.8266  -43.9174 H   0  0  0  0  0  0  0  0  0  0  0  0
   91.9200   97.5560  -39.8870 H   0  0  0  0  0  0  0  0  0  0  0  0
   89.7494  101.2693  -40.4930 H   0  0  0  0  0  0  0  0  0  0  0  0
   90.9246  102.6127  -40.2755 H   0  0  0  0  0  0  0  0  0  0  0  0
   88.1935  102.7630  -41.1553 H   0  0  0  0  0  0  0  0  0  0  0  0
   89.4150  104.0976  -41.0048 H   0  0  0  0  0  0  0  0  0  0  0  0
  1  2  1  0
  2  3  1  0
  3  4  1  0
  4  5  1  0
  3  6  1  0
  6  7  1  0
  7  8  1  0
  8  9  1  0
  9 10  1  0
 10 11  1  0
 11 12  2  0
 12 13  1  0
 13 14  1  0
 14 15  3  0
 15 16  1  0
 16 17  1  0
 17 18  1  0
 18 19  2  0
 19 20  1  0
 20 21  2  0
 21 22  1  0
 22 23  2  0
 13 24  2  0
 24 25  1  0
 25 26  1  0
 25 27  2  0
 27 28  1  0
  9 29  1  0
 29 30  1  0
 30  6  1  0
 27 11  1  0
 23 18  1  0
  1 31  1  0
  1 32  1  0
  1 33  1  0
  2 34  1  0
  2 35  1  0
  3 36  1  0
  4 37  1  0
  4 38  1  0
  5 39  1  0
  5 40  1  0
  5 41  1  0
  6 42  1  0
  7 43  1  0
  7 44  1  0
  8 45  1  0
  8 46  1  0
 10 47  1  0
 10 48  1  0
 12 49  1  0
 16 50  1  0
 16 51  1  0
 17 52  1  0
 19 53  1  0
 20 54  1  0
 21 55  1  0
 22 56  1  0
 23 57  1  0
 24 58  1  0
 28 59  1  0
 29 60  1  0
 29 61  1  0
 30 62  1  0
 30 63  1  0
M  CHG  1   3   1
M  END
>  <meeko>  (8) 
{"is_sidechain": [false], "free_energy": -6.01, "intermolecular_energy": -7.471, "internal_energy": -2.641}

$$$$
4agq_ligand
     RDKit          3D

 63 65  0  0  0  0  0  0  0  0999 V2000
   86.8620  100.6400  -46.6140 C   0  0  0  0  0  0  0  0  0  0  0  0
   85.9590  101.2800  -45.5790 C   0  0  0  0  0  0  0  0  0  0  0  0
   85.4270  100.3050  -44.5520 N   0  0  0  0  0  0  0  0  0  0  0  0
   86.3830  100.0370  -43.4100 C   0  0  0  0  0  0  0  0  0  0  0  0
   87.0600  101.2830  -42.8720 C   0  0  0  0  0  0  0  0  0  0  0  0
   83.9250  100.3880  -44.2030 C   0  0  0  0  0  0  0  0  0  0  0  0
   83.4980   99.1760  -43.3470 C   0  0  0  0  0  0  0  0  0  0  0  0
   83.5660   97.8570  -44.1320 C   0  0  0  0  0  0  0  0  0  0  0  0
   84.0870   98.1170  -45.4780 N   0  0  0  0  0  0  0  0  0  0  0  0
   84.3820   96.8720  -46.2050 C   0  0  0  0  0  0  0  0  0  0  0  0
   85.8310   96.8110  -46.6410 C   0  0  0  0  0  0  0  0  0  0  0  0
   86.8430   97.1420  -45.7230 C   0  0  0  0  0  0  0  0  0  0  0  0
   88.1890   97.1010  -46.0950 C   0  0  0  0  0  0  0  0  0  0  0  0
   89.2070   97.4340  -45.1480 C   0  0  0  0  0  0  0  0  0  0  0  0
   90.0930   97.7030  -44.3850 C   0  0  0  0  0  0  0  0  0  0  0  0
   91.1470   98.0080  -43.4080 C   0  0  0  0  0  0  0  0  0  0  0  0
   91.0650   97.1170  -42.2610 N   0  0  0  0  0  0  0  0  0  0  0  0
   91.4850   95.7860  -42.3310 C   0  0  0  0  0  0  0  0  0  0  0  0
   91.8550   95.1410  -41.1410 C   0  0  0  0  0  0  0  0  0  0  0  0
   92.2270   93.7930  -41.1240 C   0  0  0  0  0  0  0  0  0  0  0  0
   92.2100   93.0550  -42.3020 C   0  0  0  0  0  0  0  0  0  0  0  0
   91.8090   93.6630  -43.4870 C   0  0  0  0  0  0  0  0  0  0  0  0
   91.4370   95.0120  -43.4960 C   0  0  0  0  0  0  0  0  0  0  0  0
   88.5490   96.7340  -47.3920 C   0  0  0  0  0  0  0  0  0  0  0  0
   87.5560   96.4080  -48.3170 C   0  0  0  0  0  0  0  0  0  0  0  0
   88.1310   95.8430  -50.2440 I   0  0  0  0  0  0  0  0  0  0  0  0
   86.2050   96.4470  -47.9450 C   0  0  0  0  0  0  0  0  0  0  0  0
   85.2220   96.1240  -48.8500 O   0  0  0  0  0  0  0  0  0  0  0  0
   83.1850   99.0110  -46.2200 C   0  0  0  0  0  0  0  0  0  0  0  0
   83.0530  100.3470  -45.4730 C   0  0  0  0  0  0  0  0  0  0  0  0
   87.6584  100.0755  -46.1069 H   0  0  0  0  0  0  0  0  0  0  0  0
   86.2722   99.9572  -47.2432 H   0  0  0  0  0  0  0  0  0  0  0  0
   87.3109  101.4227  -47.2432 H   0  0  0  0  0  0  0  0  0  0  0  0
   86.5300  102.0602  -45.0544 H   0  0  0  0  0  0  0  0  0  0  0  0
   85.0902  101.6870  -46.1171 H   0  0  0  0  0  0  0  0  0  0  0  0
   85.4520   99.4040  -45.0860 H   0  0  0  0  0  0  0  0  0  0  0  0
   85.8204   99.5667  -42.5901 H   0  0  0  0  0  0  0  0  0  0  0  0
   87.1774   99.3860  -43.8038 H   0  0  0  0  0  0  0  0  0  0  0  0
   87.0480  101.2610  -41.7723 H   0  0  0  0  0  0  0  0  0  0  0  0
   88.1007  101.3171  -43.2268 H   0  0  0  0  0  0  0  0  0  0  0  0
   86.5223  102.1746  -43.2268 H   0  0  0  0  0  0  0  0  0  0  0  0
   83.7825  101.3344  -43.6608 H   0  0  0  0  0  0  0  0  0  0  0  0
   84.1662   99.1046  -42.4761 H   0  0  0  0  0  0  0  0  0  0  0  0
   82.4535   99.3318  -43.0391 H   0  0  0  0  0  0  0  0  0  0  0  0
   84.2317   97.1535  -43.6105 H   0  0  0  0  0  0  0  0  0  0  0  0
   82.5587   97.4213  -44.2059 H   0  0  0  0  0  0  0  0  0  0  0  0
   84.1708   96.0160  -45.5473 H   0  0  0  0  0  0  0  0  0  0  0  0
   83.7503   96.8412  -47.1050 H   0  0  0  0  0  0  0  0  0  0  0  0
   86.5716   97.4371  -44.6987 H   0  0  0  0  0  0  0  0  0  0  0  0
   92.1292   97.8873  -43.8883 H   0  0  0  0  0  0  0  0  0  0  0  0
   91.0144   99.0429  -43.0594 H   0  0  0  0  0  0  0  0  0  0  0  0
   91.3730   97.5670  -41.4030 H   0  0  0  0  0  0  0  0  0  0  0  0
   91.8524   95.7092  -40.1991 H   0  0  0  0  0  0  0  0  0  0  0  0
   92.5325   93.3175  -40.1803 H   0  0  0  0  0  0  0  0  0  0  0  0
   92.5117   91.9972  -42.2970 H   0  0  0  0  0  0  0  0  0  0  0  0
   91.7842   93.0814  -44.4203 H   0  0  0  0  0  0  0  0  0  0  0  0
   91.1005   95.4727  -44.4365 H   0  0  0  0  0  0  0  0  0  0  0  0
   89.6091   96.7018  -47.6838 H   0  0  0  0  0  0  0  0  0  0  0  0
   85.5100   96.5130  -49.7010 H   0  0  0  0  0  0  0  0  0  0  0  0
   83.5945   99.1924  -47.2247 H   0  0  0  0  0  0  0  0  0  0  0  0
   82.1941   98.5410  -46.3052 H   0  0  0  0  0  0  0  0  0  0  0  0
   83.3646  101.1611  -46.1439 H   0  0  0  0  0  0  0  0  0  0  0  0
   82.0027  100.4626  -45.1674 H   0  0  0  0  0  0  0  0  0  0  0  0
  1  2  1  0
  2  3  1  0
  3  4  1  0
  4  5  1  0
  3  6  1  0
  6  7  1  0
  7  8  1  0
  8  9  1  0
  9 10  1  0
 10 11  1  0
 11 12  2  0
 12 13  1  0
 13 14  1  0
 14 15  3  0
 15 16  1  0
 16 17  1  0
 17 18  1  0
 18 19  2  0
 19 20  1  0
 20 21  2  0
 21 22  1  0
 22 23  2  0
 13 24  2  0
 24 25  1  0
 25 26  1  0
 25 27  2  0
 27 28  1  0
  9 29  1  0
 29 30  1  0
 30  6  1  0
 27 11  1  0
 23 18  1  0
  1 31  1  0
  1 32  1  0
  1 33  1  0
  2 34  1  0
  2 35  1  0
  3 36  1  0
  4 37  1  0
  4 38  1  0
  5 39  1  0
  5 40  1  0
  5 41  1  0
  6 42  1  0
  7 43  1  0
  7 44  1  0
  8 45  1  0
  8 46  1  0
 10 47  1  0
 10 48  1  0
 12 49  1  0
 16 50  1  0
 16 51  1  0
 17 52  1  0
 19 53  1  0
 20 54  1  0
 21 55  1  0
 22 56  1  0
 23 57  1  0
 24 58  1  0
 28 59  1  0
 29 60  1  0
 29 61  1  0
 30 62  1  0
 30 63  1  0
M  CHG  1   3   1
M  END
>  <meeko>  (9) 
{"is_sidechain": [false], "free_energy": -5.723, "intermolecular_energy": -8.086, "internal_energy": -1.598}

$$$$
