4f9w_ligand
     RDKit          3D

 43 46  0  0  0  0  0  0  0  0999 V2000
    1.1520    4.3650   22.7520 C   0  0  0  0  0  0  0  0  0  0  0  0
    0.1640    3.5330   23.4430 N   0  0  0  0  0  0  0  0  0  0  0  0
    0.7490    2.5700   24.3780 C   0  0  0  0  0  0  0  0  0  0  0  0
   -0.7560    2.9370   22.5510 C   0  0  0  0  0  0  0  0  0  0  0  0
   -1.2160    1.6440   22.7860 C   0  0  0  0  0  0  0  0  0  0  0  0
   -2.1420    1.0260   21.9260 C   0  0  0  0  0  0  0  0  0  0  0  0
   -2.5600   -0.3600   22.2080 C   0  0  0  0  0  0  0  0  0  0  0  0
   -2.1980   -1.4160   21.3650 C   0  0  0  0  0  0  0  0  0  0  0  0
   -2.6180   -2.7000   21.6780 C   0  0  0  0  0  0  0  0  0  0  0  0
   -3.3570   -3.0030   22.7650 N   0  0  0  0  0  0  0  0  0  0  0  0
   -3.6940   -1.9780   23.5730 C   0  0  0  0  0  0  0  0  0  0  0  0
   -3.3250   -0.6630   23.3430 C   0  0  0  0  0  0  0  0  0  0  0  0
   -2.5940    1.7700   20.8300 C   0  0  0  0  0  0  0  0  0  0  0  0
   -3.5680    1.3040   19.8280 C   0  0  0  0  0  0  0  0  0  0  0  0
   -4.8810    0.9550   20.1750 C   0  0  0  0  0  0  0  0  0  0  0  0
   -5.7870    0.4980   19.2130 C   0  0  0  0  0  0  0  0  0  0  0  0
   -5.4080    0.3900   17.8670 C   0  0  0  0  0  0  0  0  0  0  0  0
   -6.3040   -0.0670   16.8880 C   0  0  0  0  0  0  0  0  0  0  0  0
   -5.9120   -0.1610   15.5520 C   0  0  0  0  0  0  0  0  0  0  0  0
   -4.6220    0.2020   15.1780 C   0  0  0  0  0  0  0  0  0  0  0  0
   -3.7200    0.6590   16.1410 C   0  0  0  0  0  0  0  0  0  0  0  0
   -4.0980    0.7570   17.4900 C   0  0  0  0  0  0  0  0  0  0  0  0
   -3.2000    1.2110   18.4730 C   0  0  0  0  0  0  0  0  0  0  0  0
   -2.1370    3.0250   20.6170 N   0  0  0  0  0  0  0  0  0  0  0  0
   -1.2320    3.6040   21.4830 N   0  0  0  0  0  0  0  0  0  0  0  0
    1.7735    4.8884   23.4935 H   0  0  0  0  0  0  0  0  0  0  0  0
    1.7907    3.7287   22.1218 H   0  0  0  0  0  0  0  0  0  0  0  0
    0.6337    5.1027   22.1218 H   0  0  0  0  0  0  0  0  0  0  0  0
    0.5517    2.8949   25.4102 H   0  0  0  0  0  0  0  0  0  0  0  0
    0.2998    1.5795   24.2131 H   0  0  0  0  0  0  0  0  0  0  0  0
    1.8350    2.5121   24.2131 H   0  0  0  0  0  0  0  0  0  0  0  0
   -0.8470    1.0933   23.6639 H   0  0  0  0  0  0  0  0  0  0  0  0
   -1.5895   -1.2307   20.4676 H   0  0  0  0  0  0  0  0  0  0  0  0
   -2.3321   -3.5184   21.0009 H   0  0  0  0  0  0  0  0  0  0  0  0
   -4.2967   -2.1986   24.4664 H   0  0  0  0  0  0  0  0  0  0  0  0
   -3.6277    0.1318   24.0406 H   0  0  0  0  0  0  0  0  0  0  0  0
   -5.2041    1.0423   21.2229 H   0  0  0  0  0  0  0  0  0  0  0  0
   -6.8076    0.2203   19.5150 H   0  0  0  0  0  0  0  0  0  0  0  0
   -7.3258   -0.3540   17.1769 H   0  0  0  0  0  0  0  0  0  0  0  0
   -6.6231   -0.5222   14.7944 H   0  0  0  0  0  0  0  0  0  0  0  0
   -4.3130    0.1291   14.1248 H   0  0  0  0  0  0  0  0  0  0  0  0
   -2.7017    0.9455   15.8395 H   0  0  0  0  0  0  0  0  0  0  0  0
   -2.1820    1.5013   18.1742 H   0  0  0  0  0  0  0  0  0  0  0  0
  1  2  1  0
  2  3  1  0
  2  4  1  0
  4  5  2  0
  5  6  1  0
  6  7  1  0
  7  8  2  0
  8  9  1  0
  9 10  2  0
 10 11  1  0
 11 12  2  0
  6 13  2  0
 13 14  1  0
 14 15  2  0
 15 16  1  0
 16 17  2  0
 17 18  1  0
 18 19  2  0
 19 20  1  0
 20 21  2  0
 21 22  1  0
 22 23  2  0
 13 24  1  0
 24 25  2  0
 25  4  1  0
 12  7  1  0
 23 14  1  0
 22 17  1  0
  1 26  1  0
  1 27  1  0
  1 28  1  0
  3 29  1  0
  3 30  1  0
  3 31  1  0
  5 32  1  0
  8 33  1  0
  9 34  1  0
 11 35  1  0
 12 36  1  0
 15 37  1  0
 16 38  1  0
 18 39  1  0
 19 40  1  0
 20 41  1  0
 21 42  1  0
 23 43  1  0
M  END
>  <meeko>  (1) 
{"is_sidechain": [false], "free_energy": -10.522, "intermolecular_energy": -12.367, "internal_energy": -0.926}

$$$$
4f9w_ligand
     RDKit          3D

 43 46  0  0  0  0  0  0  0  0999 V2000
   -0.4150   -1.6300   25.6590 C   0  0  0  0  0  0  0  0  0  0  0  0
    0.2620   -1.4150   24.3780 N   0  0  0  0  0  0  0  0  0  0  0  0
    1.4550   -0.5720   24.4720 C   0  0  0  0  0  0  0  0  0  0  0  0
   -0.6270   -0.9900   23.3640 C   0  0  0  0  0  0  0  0  0  0  0  0
   -0.7470    0.3640   23.0660 C   0  0  0  0  0  0  0  0  0  0  0  0
   -1.6110    0.8210   22.0540 C   0  0  0  0  0  0  0  0  0  0  0  0
   -1.7220    2.2710   21.8130 C   0  0  0  0  0  0  0  0  0  0  0  0
   -2.6950    3.0440   22.4570 C   0  0  0  0  0  0  0  0  0  0  0  0
   -2.7540    4.4050   22.1940 C   0  0  0  0  0  0  0  0  0  0  0  0
   -1.9160    5.0420   21.3510 N   0  0  0  0  0  0  0  0  0  0  0  0
   -0.9790    4.2870   20.7420 C   0  0  0  0  0  0  0  0  0  0  0  0
   -0.8430    2.9230   20.9380 C   0  0  0  0  0  0  0  0  0  0  0  0
   -2.3380   -0.1470   21.3490 C   0  0  0  0  0  0  0  0  0  0  0  0
   -3.2800    0.1300   20.2510 C   0  0  0  0  0  0  0  0  0  0  0  0
   -4.6580    0.2660   20.4720 C   0  0  0  0  0  0  0  0  0  0  0  0
   -5.5390    0.5120   19.4140 C   0  0  0  0  0  0  0  0  0  0  0  0
   -5.0640    0.6430   18.1010 C   0  0  0  0  0  0  0  0  0  0  0  0
   -5.9340    0.8880   17.0280 C   0  0  0  0  0  0  0  0  0  0  0  0
   -5.4430    1.0220   15.7280 C   0  0  0  0  0  0  0  0  0  0  0  0
   -4.0770    0.9150   15.4870 C   0  0  0  0  0  0  0  0  0  0  0  0
   -3.1990    0.6710   16.5450 C   0  0  0  0  0  0  0  0  0  0  0  0
   -3.6780    0.5310   17.8570 C   0  0  0  0  0  0  0  0  0  0  0  0
   -2.8080    0.2810   18.9330 C   0  0  0  0  0  0  0  0  0  0  0  0
   -2.2090   -1.4580   21.6520 N   0  0  0  0  0  0  0  0  0  0  0  0
   -1.3480   -1.8730   22.6470 N   0  0  0  0  0  0  0  0  0  0  0  0
    0.2800   -1.4093   26.4826 H   0  0  0  0  0  0  0  0  0  0  0  0
   -1.2885   -0.9651   25.7282 H   0  0  0  0  0  0  0  0  0  0  0  0
   -0.7448   -2.6771   25.7282 H   0  0  0  0  0  0  0  0  0  0  0  0
    1.6994   -0.3993   25.5305 H   0  0  0  0  0  0  0  0  0  0  0  0
    2.2993   -1.0751   23.9781 H   0  0  0  0  0  0  0  0  0  0  0  0
    1.2627    0.3919   23.9781 H   0  0  0  0  0  0  0  0  0  0  0  0
   -0.1525    1.0940   23.6349 H   0  0  0  0  0  0  0  0  0  0  0  0
   -3.4018    2.5798   23.1606 H   0  0  0  0  0  0  0  0  0  0  0  0
   -3.5285    4.9983   22.7021 H   0  0  0  0  0  0  0  0  0  0  0  0
   -0.2828    4.7832   20.0498 H   0  0  0  0  0  0  0  0  0  0  0  0
   -0.0565    2.3596   20.4145 H   0  0  0  0  0  0  0  0  0  0  0  0
   -5.0528    0.1777   21.4949 H   0  0  0  0  0  0  0  0  0  0  0  0
   -6.6168    0.6038   19.6140 H   0  0  0  0  0  0  0  0  0  0  0  0
   -7.0148    0.9755   17.2130 H   0  0  0  0  0  0  0  0  0  0  0  0
   -6.1357    1.2120   14.8949 H   0  0  0  0  0  0  0  0  0  0  0  0
   -3.6888    1.0226   14.4634 H   0  0  0  0  0  0  0  0  0  0  0  0
   -2.1200    0.5876   16.3481 H   0  0  0  0  0  0  0  0  0  0  0  0
   -1.7281    0.2011   18.7396 H   0  0  0  0  0  0  0  0  0  0  0  0
  1  2  1  0
  2  3  1  0
  2  4  1  0
  4  5  2  0
  5  6  1  0
  6  7  1  0
  7  8  2  0
  8  9  1  0
  9 10  2  0
 10 11  1  0
 11 12  2  0
  6 13  2  0
 13 14  1  0
 14 15  2  0
 15 16  1  0
 16 17  2  0
 17 18  1  0
 18 19  2  0
 19 20  1  0
 20 21  2  0
 21 22  1  0
 22 23  2  0
 13 24  1  0
 24 25  2  0
 25  4  1  0
 12  7  1  0
 23 14  1  0
 22 17  1  0
  1 26  1  0
  1 27  1  0
  1 28  1  0
  3 29  1  0
  3 30  1  0
  3 31  1  0
  5 32  1  0
  8 33  1  0
  9 34  1  0
 11 35  1  0
 12 36  1  0
 15 37  1  0
 16 38  1  0
 18 39  1  0
 19 40  1  0
 20 41  1  0
 21 42  1  0
 23 43  1  0
M  END
>  <meeko>  (2) 
{"is_sidechain": [false], "free_energy": -10.002, "intermolecular_energy": -11.478, "internal_energy": -1.204}

$$$$
4f9w_ligand
     RDKit          3D

 43 46  0  0  0  0  0  0  0  0999 V2000
   -2.6170    3.3170   26.3520 C   0  0  0  0  0  0  0  0  0  0  0  0
   -2.3440    4.1690   25.1930 N   0  0  0  0  0  0  0  0  0  0  0  0
   -2.9950    5.4800   25.2520 C   0  0  0  0  0  0  0  0  0  0  0  0
   -2.5750    3.5020   23.9680 C   0  0  0  0  0  0  0  0  0  0  0  0
   -2.6780    2.1140   23.9400 C   0  0  0  0  0  0  0  0  0  0  0  0
   -2.9220    1.4190   22.7410 C   0  0  0  0  0  0  0  0  0  0  0  0
   -2.9820   -0.0540   22.7720 C   0  0  0  0  0  0  0  0  0  0  0  0
   -2.1780   -0.8330   21.9320 C   0  0  0  0  0  0  0  0  0  0  0  0
   -2.2750   -2.2150   22.0030 C   0  0  0  0  0  0  0  0  0  0  0  0
   -3.1000   -2.8670   22.8480 N   0  0  0  0  0  0  0  0  0  0  0  0
   -3.8640   -2.1040   23.6560 C   0  0  0  0  0  0  0  0  0  0  0  0
   -3.8410   -0.7190   23.6570 C   0  0  0  0  0  0  0  0  0  0  0  0
   -3.0690    2.1830   21.5770 C   0  0  0  0  0  0  0  0  0  0  0  0
   -3.3390    1.6440   20.2340 C   0  0  0  0  0  0  0  0  0  0  0  0
   -2.3180    1.4500   19.2920 C   0  0  0  0  0  0  0  0  0  0  0  0
   -2.5960    0.9520   18.0150 C   0  0  0  0  0  0  0  0  0  0  0  0
   -3.9070    0.6190   17.6460 C   0  0  0  0  0  0  0  0  0  0  0  0
   -4.2050    0.1200   16.3690 C   0  0  0  0  0  0  0  0  0  0  0  0
   -5.5150   -0.2120   16.0210 C   0  0  0  0  0  0  0  0  0  0  0  0
   -6.5420   -0.0520   16.9450 C   0  0  0  0  0  0  0  0  0  0  0  0
   -6.2610    0.4440   18.2200 C   0  0  0  0  0  0  0  0  0  0  0  0
   -4.9490    0.7850   18.5840 C   0  0  0  0  0  0  0  0  0  0  0  0
   -4.6500    1.2900   19.8630 C   0  0  0  0  0  0  0  0  0  0  0  0
   -2.9650    3.5310   21.6230 N   0  0  0  0  0  0  0  0  0  0  0  0
   -2.7310    4.1820   22.8170 N   0  0  0  0  0  0  0  0  0  0  0  0
   -2.4349    3.8854   27.2760 H   0  0  0  0  0  0  0  0  0  0  0  0
   -3.6659    2.9868   26.3254 H   0  0  0  0  0  0  0  0  0  0  0  0
   -1.9553    2.4387   26.3254 H   0  0  0  0  0  0  0  0  0  0  0  0
   -3.1394    5.7707   26.3030 H   0  0  0  0  0  0  0  0  0  0  0  0
   -2.3628    6.2263   24.7486 H   0  0  0  0  0  0  0  0  0  0  0  0
   -3.9717    5.4274   24.7486 H   0  0  0  0  0  0  0  0  0  0  0  0
   -2.5661    1.5477   24.8764 H   0  0  0  0  0  0  0  0  0  0  0  0
   -1.4805   -0.3571   21.2270 H   0  0  0  0  0  0  0  0  0  0  0  0
   -1.6425   -2.8140   21.3313 H   0  0  0  0  0  0  0  0  0  0  0  0
   -4.5452   -2.6111   24.3551 H   0  0  0  0  0  0  0  0  0  0  0  0
   -4.4870   -0.1501   24.3419 H   0  0  0  0  0  0  0  0  0  0  0  0
   -1.2800    1.6939   19.5625 H   0  0  0  0  0  0  0  0  0  0  0  0
   -1.7773    0.8202   17.2923 H   0  0  0  0  0  0  0  0  0  0  0  0
   -3.3971   -0.0110   15.6340 H   0  0  0  0  0  0  0  0  0  0  0  0
   -5.7353   -0.6003   15.0157 H   0  0  0  0  0  0  0  0  0  0  0  0
   -7.5744   -0.3158   16.6720 H   0  0  0  0  0  0  0  0  0  0  0  0
   -7.0770    0.5688   18.9470 H   0  0  0  0  0  0  0  0  0  0  0  0
   -5.4635    1.4115   20.5934 H   0  0  0  0  0  0  0  0  0  0  0  0
  1  2  1  0
  2  3  1  0
  2  4  1  0
  4  5  2  0
  5  6  1  0
  6  7  1  0
  7  8  2  0
  8  9  1  0
  9 10  2  0
 10 11  1  0
 11 12  2  0
  6 13  2  0
 13 14  1  0
 14 15  2  0
 15 16  1  0
 16 17  2  0
 17 18  1  0
 18 19  2  0
 19 20  1  0
 20 21  2  0
 21 22  1  0
 22 23  2  0
 13 24  1  0
 24 25  2  0
 25  4  1  0
 12  7  1  0
 23 14  1  0
 22 17  1  0
  1 26  1  0
  1 27  1  0
  1 28  1  0
  3 29  1  0
  3 30  1  0
  3 31  1  0
  5 32  1  0
  8 33  1  0
  9 34  1  0
 11 35  1  0
 12 36  1  0
 15 37  1  0
 16 38  1  0
 18 39  1  0
 19 40  1  0
 20 41  1  0
 21 42  1  0
 23 43  1  0
M  END
>  <meeko>  (3) 
{"is_sidechain": [false], "free_energy": -9.488, "intermolecular_energy": -11.224, "internal_energy": -0.854}

$$$$
4f9w_ligand
     RDKit          3D

 43 46  0  0  0  0  0  0  0  0999 V2000
   -1.5240    0.5020   26.5840 C   0  0  0  0  0  0  0  0  0  0  0  0
   -1.6570   -0.7040   25.7630 N   0  0  0  0  0  0  0  0  0  0  0  0
   -0.5150   -1.6160   25.8570 C   0  0  0  0  0  0  0  0  0  0  0  0
   -2.0080   -0.4070   24.4260 C   0  0  0  0  0  0  0  0  0  0  0  0
   -1.8550    0.8860   23.9360 C   0  0  0  0  0  0  0  0  0  0  0  0
   -2.1810    1.2120   22.6060 C   0  0  0  0  0  0  0  0  0  0  0  0
   -2.0330    2.6090   22.1590 C   0  0  0  0  0  0  0  0  0  0  0  0
   -0.9060    3.0290   21.4440 C   0  0  0  0  0  0  0  0  0  0  0  0
   -0.8180    4.3550   21.0470 C   0  0  0  0  0  0  0  0  0  0  0  0
   -1.7680    5.2780   21.3000 N   0  0  0  0  0  0  0  0  0  0  0  0
   -2.8530    4.8590   21.9830 C   0  0  0  0  0  0  0  0  0  0  0  0
   -3.0290    3.5580   22.4250 C   0  0  0  0  0  0  0  0  0  0  0  0
   -2.6540    0.1760   21.7910 C   0  0  0  0  0  0  0  0  0  0  0  0
   -3.0350    0.3150   20.3750 C   0  0  0  0  0  0  0  0  0  0  0  0
   -2.0870    0.5570   19.3710 C   0  0  0  0  0  0  0  0  0  0  0  0
   -2.4700    0.7020   18.0340 C   0  0  0  0  0  0  0  0  0  0  0  0
   -3.8170    0.5960   17.6590 C   0  0  0  0  0  0  0  0  0  0  0  0
   -4.2190    0.7400   16.3220 C   0  0  0  0  0  0  0  0  0  0  0  0
   -5.5630    0.6240   15.9660 C   0  0  0  0  0  0  0  0  0  0  0  0
   -6.5200    0.3610   16.9400 C   0  0  0  0  0  0  0  0  0  0  0  0
   -6.1360    0.2150   18.2740 C   0  0  0  0  0  0  0  0  0  0  0  0
   -4.7870    0.3310   18.6490 C   0  0  0  0  0  0  0  0  0  0  0  0
   -4.3830    0.1910   19.9890 C   0  0  0  0  0  0  0  0  0  0  0  0
   -2.7970   -1.0750   22.2840 N   0  0  0  0  0  0  0  0  0  0  0  0
   -2.4630   -1.3620   23.5920 N   0  0  0  0  0  0  0  0  0  0  0  0
   -1.5544    0.2261   27.6484 H   0  0  0  0  0  0  0  0  0  0  0  0
   -0.5661    0.9942   26.3600 H   0  0  0  0  0  0  0  0  0  0  0  0
   -2.3516    1.1912   26.3600 H   0  0  0  0  0  0  0  0  0  0  0  0
   -0.2811   -1.8028   26.9155 H   0  0  0  0  0  0  0  0  0  0  0  0
   -0.7635   -2.5669   25.3631 H   0  0  0  0  0  0  0  0  0  0  0  0
    0.3574   -1.1633   25.3631 H   0  0  0  0  0  0  0  0  0  0  0  0
   -1.4705    1.6716   24.6031 H   0  0  0  0  0  0  0  0  0  0  0  0
   -0.1023    2.3186   21.2005 H   0  0  0  0  0  0  0  0  0  0  0  0
    0.0784    4.6720   20.4939 H   0  0  0  0  0  0  0  0  0  0  0  0
   -3.6433    5.5923   22.2015 H   0  0  0  0  0  0  0  0  0  0  0  0
   -3.9373    3.2741   22.9767 H   0  0  0  0  0  0  0  0  0  0  0  0
   -1.0231    0.6342   19.6397 H   0  0  0  0  0  0  0  0  0  0  0  0
   -1.7062    0.9014   17.2680 H   0  0  0  0  0  0  0  0  0  0  0  0
   -3.4665    0.9465   15.5467 H   0  0  0  0  0  0  0  0  0  0  0  0
   -5.8656    0.7406   14.9149 H   0  0  0  0  0  0  0  0  0  0  0  0
   -7.5795    0.2680   16.6592 H   0  0  0  0  0  0  0  0  0  0  0  0
   -6.8977    0.0069   19.0398 H   0  0  0  0  0  0  0  0  0  0  0  0
   -5.1416   -0.0213   20.7567 H   0  0  0  0  0  0  0  0  0  0  0  0
  1  2  1  0
  2  3  1  0
  2  4  1  0
  4  5  2  0
  5  6  1  0
  6  7  1  0
  7  8  2  0
  8  9  1  0
  9 10  2  0
 10 11  1  0
 11 12  2  0
  6 13  2  0
 13 14  1  0
 14 15  2  0
 15 16  1  0
 16 17  2  0
 17 18  1  0
 18 19  2  0
 19 20  1  0
 20 21  2  0
 21 22  1  0
 22 23  2  0
 13 24  1  0
 24 25  2  0
 25  4  1  0
 12  7  1  0
 23 14  1  0
 22 17  1  0
  1 26  1  0
  1 27  1  0
  1 28  1  0
  3 29  1  0
  3 30  1  0
  3 31  1  0
  5 32  1  0
  8 33  1  0
  9 34  1  0
 11 35  1  0
 12 36  1  0
 15 37  1  0
 16 38  1  0
 18 39  1  0
 19 40  1  0
 20 41  1  0
 21 42  1  0
 23 43  1  0
M  END
>  <meeko>  (4) 
{"is_sidechain": [false], "free_energy": -8.584, "intermolecular_energy": -10.06, "internal_energy": -0.956}

$$$$
4f9w_ligand
     RDKit          3D

 43 46  0  0  0  0  0  0  0  0999 V2000
    0.0180    7.2190   18.9380 C   0  0  0  0  0  0  0  0  0  0  0  0
    0.3370    7.1060   20.3620 N   0  0  0  0  0  0  0  0  0  0  0  0
    1.7570    7.2860   20.6700 C   0  0  0  0  0  0  0  0  0  0  0  0
   -0.2020    5.9340   20.9430 C   0  0  0  0  0  0  0  0  0  0  0  0
    0.0970    5.6100   22.2630 C   0  0  0  0  0  0  0  0  0  0  0  0
   -0.4330    4.4590   22.8760 C   0  0  0  0  0  0  0  0  0  0  0  0
   -0.0470    4.1510   24.2650 C   0  0  0  0  0  0  0  0  0  0  0  0
   -0.5580    4.8840   25.3420 C   0  0  0  0  0  0  0  0  0  0  0  0
   -0.1630    4.5510   26.6290 C   0  0  0  0  0  0  0  0  0  0  0  0
    0.6880    3.5440   26.9150 N   0  0  0  0  0  0  0  0  0  0  0  0
    1.1680    2.8410   25.8690 C   0  0  0  0  0  0  0  0  0  0  0  0
    0.8350    3.1000   24.5490 C   0  0  0  0  0  0  0  0  0  0  0  0
   -1.2850    3.6590   22.1050 C   0  0  0  0  0  0  0  0  0  0  0  0
   -1.9450    2.4270   22.5690 C   0  0  0  0  0  0  0  0  0  0  0  0
   -2.8790    2.4330   23.6150 C   0  0  0  0  0  0  0  0  0  0  0  0
   -3.4830    1.2500   24.0530 C   0  0  0  0  0  0  0  0  0  0  0  0
   -3.1780    0.0230   23.4460 C   0  0  0  0  0  0  0  0  0  0  0  0
   -3.7740   -1.1740   23.8740 C   0  0  0  0  0  0  0  0  0  0  0  0
   -3.4640   -2.3850   23.2540 C   0  0  0  0  0  0  0  0  0  0  0  0
   -2.5570   -2.4140   22.1980 C   0  0  0  0  0  0  0  0  0  0  0  0
   -1.9580   -1.2320   21.7620 C   0  0  0  0  0  0  0  0  0  0  0  0
   -2.2570   -0.0050   22.3770 C   0  0  0  0  0  0  0  0  0  0  0  0
   -1.6580    1.1940   21.9520 C   0  0  0  0  0  0  0  0  0  0  0  0
   -1.5640    3.9890   20.8240 N   0  0  0  0  0  0  0  0  0  0  0  0
   -1.0320    5.1280   20.2540 N   0  0  0  0  0  0  0  0  0  0  0  0
   -1.0130    7.5842   18.8211 H   0  0  0  0  0  0  0  0  0  0  0  0
    0.7135    7.9255   18.4614 H   0  0  0  0  0  0  0  0  0  0  0  0
    0.1137    6.2323   18.4614 H   0  0  0  0  0  0  0  0  0  0  0  0
    1.8962    7.3036   21.7610 H   0  0  0  0  0  0  0  0  0  0  0  0
    2.3338    6.4538   20.2402 H   0  0  0  0  0  0  0  0  0  0  0  0
    2.1079    8.2358   20.2402 H   0  0  0  0  0  0  0  0  0  0  0  0
    0.7627    6.2683   22.8405 H   0  0  0  0  0  0  0  0  0  0  0  0
   -1.2621    5.7115   25.1704 H   0  0  0  0  0  0  0  0  0  0  0  0
   -0.5667    5.1418   27.4645 H   0  0  0  0  0  0  0  0  0  0  0  0
    1.8639    2.0145   26.0755 H   0  0  0  0  0  0  0  0  0  0  0  0
    1.2566    2.4898   23.7366 H   0  0  0  0  0  0  0  0  0  0  0  0
   -3.1413    3.3850   24.0996 H   0  0  0  0  0  0  0  0  0  0  0  0
   -4.2049    1.2823   24.8823 H   0  0  0  0  0  0  0  0  0  0  0  0
   -4.4927   -1.1570   24.7066 H   0  0  0  0  0  0  0  0  0  0  0  0
   -3.9361   -3.3166   23.5994 H   0  0  0  0  0  0  0  0  0  0  0  0
   -2.3130   -3.3681   21.7080 H   0  0  0  0  0  0  0  0  0  0  0  0
   -1.2430   -1.2612   20.9266 H   0  0  0  0  0  0  0  0  0  0  0  0
   -0.9455    1.1682   21.1144 H   0  0  0  0  0  0  0  0  0  0  0  0
  1  2  1  0
  2  3  1  0
  2  4  1  0
  4  5  2  0
  5  6  1  0
  6  7  1  0
  7  8  2  0
  8  9  1  0
  9 10  2  0
 10 11  1  0
 11 12  2  0
  6 13  2  0
 13 14  1  0
 14 15  2  0
 15 16  1  0
 16 17  2  0
 17 18  1  0
 18 19  2  0
 19 20  1  0
 20 21  2  0
 21 22  1  0
 22 23  2  0
 13 24  1  0
 24 25  2  0
 25  4  1  0
 12  7  1  0
 23 14  1  0
 22 17  1  0
  1 26  1  0
  1 27  1  0
  1 28  1  0
  3 29  1  0
  3 30  1  0
  3 31  1  0
  5 32  1  0
  8 33  1  0
  9 34  1  0
 11 35  1  0
 12 36  1  0
 15 37  1  0
 16 38  1  0
 18 39  1  0
 19 40  1  0
 20 41  1  0
 21 42  1  0
 23 43  1  0
M  END
>  <meeko>  (5) 
{"is_sidechain": [false], "free_energy": -7.602, "intermolecular_energy": -8.878, "internal_energy": -0.984}

$$$$
