2ymd_ligand
     RDKit          3D

 26 27  0  0  0  0  0  0  0  0999 V2000
  -25.3900  -52.4900   44.8790 N   0  0  0  0  0  0  0  0  0  0  0  0
  -25.0250  -51.7420   46.1130 C   0  0  0  0  0  0  0  0  0  0  0  0
  -26.1870  -51.7260   47.1110 C   0  0  0  0  0  0  0  0  0  0  0  0
  -27.0380  -52.9540   47.0230 C   0  0  0  0  0  0  0  0  0  0  0  0
  -26.5890  -54.2600   47.0640 C   0  0  0  0  0  0  0  0  0  0  0  0
  -27.6730  -55.0930   46.9750 N   0  0  0  0  0  0  0  0  0  0  0  0
  -28.8310  -54.3530   46.9170 C   0  0  0  0  0  0  0  0  0  0  0  0
  -30.1610  -54.7810   46.8580 C   0  0  0  0  0  0  0  0  0  0  0  0
  -31.1520  -53.8000   46.7750 C   0  0  0  0  0  0  0  0  0  0  0  0
  -30.8120  -52.4550   46.7310 C   0  0  0  0  0  0  0  0  0  0  0  0
  -31.8340  -51.5570   46.6290 O   0  0  0  0  0  0  0  0  0  0  0  0
  -29.4830  -52.0330   46.7920 C   0  0  0  0  0  0  0  0  0  0  0  0
  -28.4650  -53.0060   46.9030 C   0  0  0  0  0  0  0  0  0  0  0  0
  -26.2310  -52.0740   44.4490 H   0  0  0  0  0  0  0  0  0  0  0  0
  -24.6440  -52.4540   44.1740 H   0  0  0  0  0  0  0  0  0  0  0  0
  -25.6030  -53.4750   45.0760 H   0  0  0  0  0  0  0  0  0  0  0  0
  -24.1550  -52.2249   46.5820 H   0  0  0  0  0  0  0  0  0  0  0  0
  -24.7877  -50.7043   45.8357 H   0  0  0  0  0  0  0  0  0  0  0  0
  -25.7762  -51.6542   48.1289 H   0  0  0  0  0  0  0  0  0  0  0  0
  -26.8229  -50.8618   46.8683 H   0  0  0  0  0  0  0  0  0  0  0  0
  -25.5395  -54.5771   47.1530 H   0  0  0  0  0  0  0  0  0  0  0  0
  -27.6400  -56.1050   46.9470 H   0  0  0  0  0  0  0  0  0  0  0  0
  -30.4173  -55.8506   46.8763 H   0  0  0  0  0  0  0  0  0  0  0  0
  -32.2110  -54.0960   46.7442 H   0  0  0  0  0  0  0  0  0  0  0  0
  -31.4990  -50.7210   46.2670 H   0  0  0  0  0  0  0  0  0  0  0  0
  -29.2329  -50.9625   46.7543 H   0  0  0  0  0  0  0  0  0  0  0  0
  1  2  1  0
  2  3  1  0
  3  4  1  0
  4  5  2  0
  5  6  1  0
  6  7  1  0
  7  8  2  0
  8  9  1  0
  9 10  2  0
 10 11  1  0
 10 12  1  0
 12 13  2  0
 13  4  1  0
 13  7  1  0
  1 14  1  0
  1 15  1  0
  1 16  1  0
  2 17  1  0
  2 18  1  0
  3 19  1  0
  3 20  1  0
  5 21  1  0
  6 22  1  0
  8 23  1  0
  9 24  1  0
 11 25  1  0
 12 26  1  0
M  CHG  1   1   1
M  END
>  <meeko>  (1) 
{"is_sidechain": [false], "free_energy": -7.469, "intermolecular_energy": -8.778, "internal_energy": 0.221}

$$$$
2ymd_ligand
     RDKit          3D

 26 27  0  0  0  0  0  0  0  0999 V2000
  -32.5810  -53.4080   47.1200 N   0  0  0  0  0  0  0  0  0  0  0  0
  -31.4420  -52.7000   47.7660 C   0  0  0  0  0  0  0  0  0  0  0  0
  -30.3040  -52.4650   46.7680 C   0  0  0  0  0  0  0  0  0  0  0  0
  -29.2000  -53.4660   46.9080 C   0  0  0  0  0  0  0  0  0  0  0  0
  -29.3500  -54.8060   47.2120 C   0  0  0  0  0  0  0  0  0  0  0  0
  -28.1100  -55.3870   47.2290 N   0  0  0  0  0  0  0  0  0  0  0  0
  -27.1510  -54.4590   46.8990 C   0  0  0  0  0  0  0  0  0  0  0  0
  -25.7680  -54.6140   46.7570 C   0  0  0  0  0  0  0  0  0  0  0  0
  -25.0190  -53.4790   46.4410 C   0  0  0  0  0  0  0  0  0  0  0  0
  -25.6340  -52.2440   46.2980 C   0  0  0  0  0  0  0  0  0  0  0  0
  -24.8340  -51.1780   46.0090 O   0  0  0  0  0  0  0  0  0  0  0  0
  -27.0150  -52.0930   46.4380 C   0  0  0  0  0  0  0  0  0  0  0  0
  -27.7970  -53.2320   46.7330 C   0  0  0  0  0  0  0  0  0  0  0  0
  -33.4500  -52.8660   47.2420 H   0  0  0  0  0  0  0  0  0  0  0  0
  -32.4390  -53.5210   46.1090 H   0  0  0  0  0  0  0  0  0  0  0  0
  -32.7380  -54.3360   47.5310 H   0  0  0  0  0  0  0  0  0  0  0  0
  -31.7918  -51.7294   48.1477 H   0  0  0  0  0  0  0  0  0  0  0  0
  -31.0630  -53.3240   48.5888 H   0  0  0  0  0  0  0  0  0  0  0  0
  -30.7109  -52.5296   45.7481 H   0  0  0  0  0  0  0  0  0  0  0  0
  -29.8805  -51.4708   46.9736 H   0  0  0  0  0  0  0  0  0  0  0  0
  -30.3035  -55.3187   47.4071 H   0  0  0  0  0  0  0  0  0  0  0  0
  -27.9140  -56.3540   47.4560 H   0  0  0  0  0  0  0  0  0  0  0  0
  -25.2879  -55.5948   46.8895 H   0  0  0  0  0  0  0  0  0  0  0  0
  -23.9309  -53.5649   46.3041 H   0  0  0  0  0  0  0  0  0  0  0  0
  -25.1260  -50.7650   45.1800 H   0  0  0  0  0  0  0  0  0  0  0  0
  -27.4853  -51.1056   46.3208 H   0  0  0  0  0  0  0  0  0  0  0  0
  1  2  1  0
  2  3  1  0
  3  4  1  0
  4  5  2  0
  5  6  1  0
  6  7  1  0
  7  8  2  0
  8  9  1  0
  9 10  2  0
 10 11  1  0
 10 12  1  0
 12 13  2  0
 13  4  1  0
 13  7  1  0
  1 14  1  0
  1 15  1  0
  1 16  1  0
  2 17  1  0
  2 18  1  0
  3 19  1  0
  3 20  1  0
  5 21  1  0
  6 22  1  0
  8 23  1  0
  9 24  1  0
 11 25  1  0
 12 26  1  0
M  CHG  1   1   1
M  END
>  <meeko>  (2) 
{"is_sidechain": [false], "free_energy": -6.915, "intermolecular_energy": -7.841, "internal_energy": -0.066}

$$$$
2ymd_ligand
     RDKit          3D

 26 27  0  0  0  0  0  0  0  0999 V2000
  -24.9480  -54.3220   45.2330 N   0  0  0  0  0  0  0  0  0  0  0  0
  -24.6330  -53.0390   45.9180 C   0  0  0  0  0  0  0  0  0  0  0  0
  -25.3740  -52.9320   47.2530 C   0  0  0  0  0  0  0  0  0  0  0  0
  -26.8230  -52.5980   47.0830 C   0  0  0  0  0  0  0  0  0  0  0  0
  -27.3480  -51.3380   46.8700 C   0  0  0  0  0  0  0  0  0  0  0  0
  -28.7080  -51.4510   46.7460 N   0  0  0  0  0  0  0  0  0  0  0  0
  -29.0790  -52.7720   46.8330 C   0  0  0  0  0  0  0  0  0  0  0  0
  -30.3470  -53.3520   46.7250 C   0  0  0  0  0  0  0  0  0  0  0  0
  -30.4410  -54.7350   46.8880 C   0  0  0  0  0  0  0  0  0  0  0  0
  -29.3120  -55.4920   47.1690 C   0  0  0  0  0  0  0  0  0  0  0  0
  -29.4860  -56.8340   47.3340 O   0  0  0  0  0  0  0  0  0  0  0  0
  -28.0480  -54.9090   47.2730 C   0  0  0  0  0  0  0  0  0  0  0  0
  -27.9250  -53.5150   47.0870 C   0  0  0  0  0  0  0  0  0  0  0  0
  -25.0670  -54.1640   44.2200 H   0  0  0  0  0  0  0  0  0  0  0  0
  -24.1940  -55.0110   45.3410 H   0  0  0  0  0  0  0  0  0  0  0  0
  -25.8200  -54.7400   45.5810 H   0  0  0  0  0  0  0  0  0  0  0  0
  -23.5499  -52.9867   46.1029 H   0  0  0  0  0  0  0  0  0  0  0  0
  -24.9549  -52.2091   45.2717 H   0  0  0  0  0  0  0  0  0  0  0  0
  -25.2939  -53.8951   47.7783 H   0  0  0  0  0  0  0  0  0  0  0  0
  -24.9097  -52.1164   47.8268 H   0  0  0  0  0  0  0  0  0  0  0  0
  -26.7720  -50.4028   46.8101 H   0  0  0  0  0  0  0  0  0  0  0  0
  -29.3550  -50.6830   46.6170 H   0  0  0  0  0  0  0  0  0  0  0  0
  -31.2379  -52.7405   46.5191 H   0  0  0  0  0  0  0  0  0  0  0  0
  -31.4189  -55.2296   46.7929 H   0  0  0  0  0  0  0  0  0  0  0  0
  -28.6860  -57.2230   47.7230 H   0  0  0  0  0  0  0  0  0  0  0  0
  -27.1639  -55.5245   47.4958 H   0  0  0  0  0  0  0  0  0  0  0  0
  1  2  1  0
  2  3  1  0
  3  4  1  0
  4  5  2  0
  5  6  1  0
  6  7  1  0
  7  8  2  0
  8  9  1  0
  9 10  2  0
 10 11  1  0
 10 12  1  0
 12 13  2  0
 13  4  1  0
 13  7  1  0
  1 14  1  0
  1 15  1  0
  1 16  1  0
  2 17  1  0
  2 18  1  0
  3 19  1  0
  3 20  1  0
  5 21  1  0
  6 22  1  0
  8 23  1  0
  9 24  1  0
 11 25  1  0
 12 26  1  0
M  CHG  1   1   1
M  END
>  <meeko>  (3) 
{"is_sidechain": [false], "free_energy": -6.583, "intermolecular_energy": -7.367, "internal_energy": -0.149}

$$$$
2ymd_ligand
     RDKit          3D

 26 27  0  0  0  0  0  0  0  0999 V2000
  -30.2700  -48.5600   56.8290 N   0  0  0  0  0  0  0  0  0  0  0  0
  -29.3250  -49.4160   57.5970 C   0  0  0  0  0  0  0  0  0  0  0  0
  -28.1210  -48.6060   58.0850 C   0  0  0  0  0  0  0  0  0  0  0  0
  -26.8340  -49.3620   57.9740 C   0  0  0  0  0  0  0  0  0  0  0  0
  -26.6890  -50.7350   58.0360 C   0  0  0  0  0  0  0  0  0  0  0  0
  -25.3630  -51.0370   57.8730 N   0  0  0  0  0  0  0  0  0  0  0  0
  -24.6400  -49.8860   57.6650 C   0  0  0  0  0  0  0  0  0  0  0  0
  -23.2740  -49.7220   57.4160 C   0  0  0  0  0  0  0  0  0  0  0  0
  -22.7950  -48.4190   57.2710 C   0  0  0  0  0  0  0  0  0  0  0  0
  -23.6520  -47.3340   57.3930 C   0  0  0  0  0  0  0  0  0  0  0  0
  -23.1070  -46.0910   57.2590 O   0  0  0  0  0  0  0  0  0  0  0  0
  -25.0160  -47.5020   57.6390 C   0  0  0  0  0  0  0  0  0  0  0  0
  -25.5270  -48.8130   57.7640 C   0  0  0  0  0  0  0  0  0  0  0  0
  -30.9680  -48.1440   57.4660 H   0  0  0  0  0  0  0  0  0  0  0  0
  -29.7900  -47.7820   56.3620 H   0  0  0  0  0  0  0  0  0  0  0  0
  -30.7840  -49.0960   56.1200 H   0  0  0  0  0  0  0  0  0  0  0  0
  -29.8492  -49.8398   58.4663 H   0  0  0  0  0  0  0  0  0  0  0  0
  -28.9628  -50.2172   56.9361 H   0  0  0  0  0  0  0  0  0  0  0  0
  -28.0446  -47.6901   57.4806 H   0  0  0  0  0  0  0  0  0  0  0  0
  -28.2824  -48.3784   59.1490 H   0  0  0  0  0  0  0  0  0  0  0  0
  -27.5004  -51.4616   58.1900 H   0  0  0  0  0  0  0  0  0  0  0  0
  -24.9600  -51.9660   57.9080 H   0  0  0  0  0  0  0  0  0  0  0  0
  -22.6011  -50.5886   57.3372 H   0  0  0  0  0  0  0  0  0  0  0  0
  -21.7290  -48.2505   57.0582 H   0  0  0  0  0  0  0  0  0  0  0  0
  -23.8090  -45.4430   57.0840 H   0  0  0  0  0  0  0  0  0  0  0  0
  -25.6800  -46.6302   57.7337 H   0  0  0  0  0  0  0  0  0  0  0  0
  1  2  1  0
  2  3  1  0
  3  4  1  0
  4  5  2  0
  5  6  1  0
  6  7  1  0
  7  8  2  0
  8  9  1  0
  9 10  2  0
 10 11  1  0
 10 12  1  0
 12 13  2  0
 13  4  1  0
 13  7  1  0
  1 14  1  0
  1 15  1  0
  1 16  1  0
  2 17  1  0
  2 18  1  0
  3 19  1  0
  3 20  1  0
  5 21  1  0
  6 22  1  0
  8 23  1  0
  9 24  1  0
 11 25  1  0
 12 26  1  0
M  CHG  1   1   1
M  END
>  <meeko>  (4) 
{"is_sidechain": [false], "free_energy": -6.147, "intermolecular_energy": -6.929, "internal_energy": -0.075}

$$$$
2ymd_ligand
     RDKit          3D

 26 27  0  0  0  0  0  0  0  0999 V2000
  -35.2890  -56.8970   53.4700 N   0  0  0  0  0  0  0  0  0  0  0  0
  -33.9100  -57.2760   53.8860 C   0  0  0  0  0  0  0  0  0  0  0  0
  -32.9630  -57.3090   52.6830 C   0  0  0  0  0  0  0  0  0  0  0  0
  -32.3500  -58.6570   52.4710 C   0  0  0  0  0  0  0  0  0  0  0  0
  -32.5860  -59.7870   53.2290 C   0  0  0  0  0  0  0  0  0  0  0  0
  -31.8550  -60.8210   52.7060 N   0  0  0  0  0  0  0  0  0  0  0  0
  -31.1740  -60.3960   51.5890 C   0  0  0  0  0  0  0  0  0  0  0  0
  -30.3430  -61.1140   50.7230 C   0  0  0  0  0  0  0  0  0  0  0  0
  -29.7470  -60.4150   49.6710 C   0  0  0  0  0  0  0  0  0  0  0  0
  -29.9630  -59.0530   49.5160 C   0  0  0  0  0  0  0  0  0  0  0  0
  -29.3310  -58.4350   48.4770 O   0  0  0  0  0  0  0  0  0  0  0  0
  -30.7950  -58.3400   50.3820 C   0  0  0  0  0  0  0  0  0  0  0  0
  -31.4290  -59.0320   51.4380 C   0  0  0  0  0  0  0  0  0  0  0  0
  -35.4960  -55.9310   53.7670 H   0  0  0  0  0  0  0  0  0  0  0  0
  -35.4040  -56.9280   52.4490 H   0  0  0  0  0  0  0  0  0  0  0  0
  -35.9980  -57.5070   53.8930 H   0  0  0  0  0  0  0  0  0  0  0  0
  -33.5395  -56.5406   54.6153 H   0  0  0  0  0  0  0  0  0  0  0  0
  -33.9427  -58.2802   54.3337 H   0  0  0  0  0  0  0  0  0  0  0  0
  -33.5293  -57.0336   51.7811 H   0  0  0  0  0  0  0  0  0  0  0  0
  -32.1467  -56.5990   52.8817 H   0  0  0  0  0  0  0  0  0  0  0  0
  -33.2489  -59.8468   54.1048 H   0  0  0  0  0  0  0  0  0  0  0  0
  -31.8070  -61.7610   53.0800 H   0  0  0  0  0  0  0  0  0  0  0  0
  -30.1653  -62.1902   50.8653 H   0  0  0  0  0  0  0  0  0  0  0  0
  -29.1006  -60.9489   48.9589 H   0  0  0  0  0  0  0  0  0  0  0  0
  -28.4150  -58.7500   48.4170 H   0  0  0  0  0  0  0  0  0  0  0  0
  -30.9536  -57.2602   50.2445 H   0  0  0  0  0  0  0  0  0  0  0  0
  1  2  1  0
  2  3  1  0
  3  4  1  0
  4  5  2  0
  5  6  1  0
  6  7  1  0
  7  8  2  0
  8  9  1  0
  9 10  2  0
 10 11  1  0
 10 12  1  0
 12 13  2  0
 13  4  1  0
 13  7  1  0
  1 14  1  0
  1 15  1  0
  1 16  1  0
  2 17  1  0
  2 18  1  0
  3 19  1  0
  3 20  1  0
  5 21  1  0
  6 22  1  0
  8 23  1  0
  9 24  1  0
 11 25  1  0
 12 26  1  0
M  CHG  1   1   1
M  END
>  <meeko>  (5) 
{"is_sidechain": [false], "free_energy": -5.429, "intermolecular_energy": -6.065, "internal_energy": -0.094}

$$$$
2ymd_ligand
     RDKit          3D

 26 27  0  0  0  0  0  0  0  0999 V2000
  -18.8090  -50.4160   56.4700 N   0  0  0  0  0  0  0  0  0  0  0  0
  -19.1660  -49.4610   57.5550 C   0  0  0  0  0  0  0  0  0  0  0  0
  -20.1650  -50.0870   58.5320 C   0  0  0  0  0  0  0  0  0  0  0  0
  -21.5400  -50.2060   57.9520 C   0  0  0  0  0  0  0  0  0  0  0  0
  -22.2150  -51.3840   57.6950 C   0  0  0  0  0  0  0  0  0  0  0  0
  -23.4490  -51.0730   57.1870 N   0  0  0  0  0  0  0  0  0  0  0  0
  -23.6100  -49.7080   57.1450 C   0  0  0  0  0  0  0  0  0  0  0  0
  -24.7140  -48.9500   56.7400 C   0  0  0  0  0  0  0  0  0  0  0  0
  -24.5910  -47.5600   56.7710 C   0  0  0  0  0  0  0  0  0  0  0  0
  -23.4030  -46.9650   57.1720 C   0  0  0  0  0  0  0  0  0  0  0  0
  -23.3510  -45.6020   57.1570 O   0  0  0  0  0  0  0  0  0  0  0  0
  -22.3040  -47.7240   57.5790 C   0  0  0  0  0  0  0  0  0  0  0  0
  -22.4140  -49.1330   57.5790 C   0  0  0  0  0  0  0  0  0  0  0  0
  -17.8220  -50.7010   56.5600 H   0  0  0  0  0  0  0  0  0  0  0  0
  -19.3730  -51.2740   56.5130 H   0  0  0  0  0  0  0  0  0  0  0  0
  -18.9250  -50.0000   55.5380 H   0  0  0  0  0  0  0  0  0  0  0  0
  -18.2539  -49.1821   58.1030 H   0  0  0  0  0  0  0  0  0  0  0  0
  -19.6302  -48.5731   57.1009 H   0  0  0  0  0  0  0  0  0  0  0  0
  -19.8093  -51.0917   58.8041 H   0  0  0  0  0  0  0  0  0  0  0  0
  -20.2298  -49.4279   59.4103 H   0  0  0  0  0  0  0  0  0  0  0  0
  -21.8276  -52.3988   57.8687 H   0  0  0  0  0  0  0  0  0  0  0  0
  -24.1460  -51.7390   56.8770 H   0  0  0  0  0  0  0  0  0  0  0  0
  -25.6456  -49.4322   56.4090 H   0  0  0  0  0  0  0  0  0  0  0  0
  -25.4432  -46.9306   56.4750 H   0  0  0  0  0  0  0  0  0  0  0  0
  -23.4790  -45.2790   56.2510 H   0  0  0  0  0  0  0  0  0  0  0  0
  -21.3704  -47.2347   57.8936 H   0  0  0  0  0  0  0  0  0  0  0  0
  1  2  1  0
  2  3  1  0
  3  4  1  0
  4  5  2  0
  5  6  1  0
  6  7  1  0
  7  8  2  0
  8  9  1  0
  9 10  2  0
 10 11  1  0
 10 12  1  0
 12 13  2  0
 13  4  1  0
 13  7  1  0
  1 14  1  0
  1 15  1  0
  1 16  1  0
  2 17  1  0
  2 18  1  0
  3 19  1  0
  3 20  1  0
  5 21  1  0
  6 22  1  0
  8 23  1  0
  9 24  1  0
 11 25  1  0
 12 26  1  0
M  CHG  1   1   1
M  END
>  <meeko>  (6) 
{"is_sidechain": [false], "free_energy": -5.427, "intermolecular_energy": -6.051, "internal_energy": -0.106}

$$$$
2ymd_ligand
     RDKit          3D

 26 27  0  0  0  0  0  0  0  0999 V2000
  -32.8460  -60.2130   52.3120 N   0  0  0  0  0  0  0  0  0  0  0  0
  -31.9590  -59.0560   52.0090 C   0  0  0  0  0  0  0  0  0  0  0  0
  -30.4870  -59.4250   52.2090 C   0  0  0  0  0  0  0  0  0  0  0  0
  -29.7680  -59.6470   50.9150 C   0  0  0  0  0  0  0  0  0  0  0  0
  -29.1190  -58.6830   50.1680 C   0  0  0  0  0  0  0  0  0  0  0  0
  -28.5710  -59.2850   49.0660 N   0  0  0  0  0  0  0  0  0  0  0  0
  -28.8150  -60.6380   49.1000 C   0  0  0  0  0  0  0  0  0  0  0  0
  -28.4140  -61.6400   48.2100 C   0  0  0  0  0  0  0  0  0  0  0  0
  -28.8350  -62.9450   48.4750 C   0  0  0  0  0  0  0  0  0  0  0  0
  -29.6390  -63.2190   49.5720 C   0  0  0  0  0  0  0  0  0  0  0  0
  -30.0270  -64.5150   49.7530 O   0  0  0  0  0  0  0  0  0  0  0  0
  -30.0350  -62.2170   50.4590 C   0  0  0  0  0  0  0  0  0  0  0  0
  -29.6000  -60.8930   50.2260 C   0  0  0  0  0  0  0  0  0  0  0  0
  -32.2780  -61.0520   52.5070 H   0  0  0  0  0  0  0  0  0  0  0  0
  -33.4260  -60.0440   53.1430 H   0  0  0  0  0  0  0  0  0  0  0  0
  -33.4650  -60.4380   51.5240 H   0  0  0  0  0  0  0  0  0  0  0  0
  -32.1138  -58.7482   50.9644 H   0  0  0  0  0  0  0  0  0  0  0  0
  -32.2100  -58.2334   52.6948 H   0  0  0  0  0  0  0  0  0  0  0  0
  -29.9898  -58.6081   52.7526 H   0  0  0  0  0  0  0  0  0  0  0  0
  -30.4539  -60.3680   52.7744 H   0  0  0  0  0  0  0  0  0  0  0  0
  -29.0533  -57.6133   50.4160 H   0  0  0  0  0  0  0  0  0  0  0  0
  -28.0660  -58.8140   48.3260 H   0  0  0  0  0  0  0  0  0  0  0  0
  -27.7903  -61.4086   47.3340 H   0  0  0  0  0  0  0  0  0  0  0  0
  -28.5263  -63.7632   47.8078 H   0  0  0  0  0  0  0  0  0  0  0  0
  -29.6590  -65.0680   49.0460 H   0  0  0  0  0  0  0  0  0  0  0  0
  -30.6735  -62.4534   51.3229 H   0  0  0  0  0  0  0  0  0  0  0  0
  1  2  1  0
  2  3  1  0
  3  4  1  0
  4  5  2  0
  5  6  1  0
  6  7  1  0
  7  8  2  0
  8  9  1  0
  9 10  2  0
 10 11  1  0
 10 12  1  0
 12 13  2  0
 13  4  1  0
 13  7  1  0
  1 14  1  0
  1 15  1  0
  1 16  1  0
  2 17  1  0
  2 18  1  0
  3 19  1  0
  3 20  1  0
  5 21  1  0
  6 22  1  0
  8 23  1  0
  9 24  1  0
 11 25  1  0
 12 26  1  0
M  CHG  1   1   1
M  END
>  <meeko>  (7) 
{"is_sidechain": [false], "free_energy": -5.347, "intermolecular_energy": -5.92, "internal_energy": -0.144}

$$$$
2ymd_ligand
     RDKit          3D

 26 27  0  0  0  0  0  0  0  0999 V2000
  -28.7730  -63.2560   47.8730 N   0  0  0  0  0  0  0  0  0  0  0  0
  -28.6810  -61.8930   48.4640 C   0  0  0  0  0  0  0  0  0  0  0  0
  -29.5650  -61.7730   49.7090 C   0  0  0  0  0  0  0  0  0  0  0  0
  -29.9340  -60.3560   50.0180 C   0  0  0  0  0  0  0  0  0  0  0  0
  -29.4590  -59.2310   49.3710 C   0  0  0  0  0  0  0  0  0  0  0  0
  -30.0480  -58.1280   49.9310 N   0  0  0  0  0  0  0  0  0  0  0  0
  -30.9350  -58.5140   50.9080 C   0  0  0  0  0  0  0  0  0  0  0  0
  -31.7790  -57.7360   51.7070 C   0  0  0  0  0  0  0  0  0  0  0  0
  -32.5630  -58.3960   52.6550 C   0  0  0  0  0  0  0  0  0  0  0  0
  -32.4820  -59.7740   52.8020 C   0  0  0  0  0  0  0  0  0  0  0  0
  -33.2650  -60.3460   53.7620 O   0  0  0  0  0  0  0  0  0  0  0  0
  -31.6410  -60.5480   52.0000 C   0  0  0  0  0  0  0  0  0  0  0  0
  -30.8570  -59.9040   51.0180 C   0  0  0  0  0  0  0  0  0  0  0  0
  -28.6910  -63.9700   48.6130 H   0  0  0  0  0  0  0  0  0  0  0  0
  -29.6750  -63.4110   47.4060 H   0  0  0  0  0  0  0  0  0  0  0  0
  -28.0230  -63.4310   47.1940 H   0  0  0  0  0  0  0  0  0  0  0  0
  -27.6364  -61.6922   48.7440 H   0  0  0  0  0  0  0  0  0  0  0  0
  -29.0272  -61.1634   47.7171 H   0  0  0  0  0  0  0  0  0  0  0  0
  -30.4873  -62.3491   49.5432 H   0  0  0  0  0  0  0  0  0  0  0  0
  -28.9919  -62.1621   50.5635 H   0  0  0  0  0  0  0  0  0  0  0  0
  -28.7313  -59.2225   48.5461 H   0  0  0  0  0  0  0  0  0  0  0  0
  -29.8620  -57.1650   49.6780 H   0  0  0  0  0  0  0  0  0  0  0  0
  -31.8235  -56.6429   51.5925 H   0  0  0  0  0  0  0  0  0  0  0  0
  -33.2508  -57.8192   53.2909 H   0  0  0  0  0  0  0  0  0  0  0  0
  -33.5570  -59.6680   54.3920 H   0  0  0  0  0  0  0  0  0  0  0  0
  -31.5902  -61.6390   52.1307 H   0  0  0  0  0  0  0  0  0  0  0  0
  1  2  1  0
  2  3  1  0
  3  4  1  0
  4  5  2  0
  5  6  1  0
  6  7  1  0
  7  8  2  0
  8  9  1  0
  9 10  2  0
 10 11  1  0
 10 12  1  0
 12 13  2  0
 13  4  1  0
 13  7  1  0
  1 14  1  0
  1 15  1  0
  1 16  1  0
  2 17  1  0
  2 18  1  0
  3 19  1  0
  3 20  1  0
  5 21  1  0
  6 22  1  0
  8 23  1  0
  9 24  1  0
 11 25  1  0
 12 26  1  0
M  CHG  1   1   1
M  END
>  <meeko>  (8) 
{"is_sidechain": [false], "free_energy": -5.17, "intermolecular_energy": -5.78, "internal_energy": -0.075}

$$$$
2ymd_ligand
     RDKit          3D

 26 27  0  0  0  0  0  0  0  0999 V2000
  -33.3050  -61.2290   53.1150 N   0  0  0  0  0  0  0  0  0  0  0  0
  -31.9130  -61.5680   53.5210 C   0  0  0  0  0  0  0  0  0  0  0  0
  -30.9480  -61.4350   52.3400 C   0  0  0  0  0  0  0  0  0  0  0  0
  -30.3930  -62.7530   51.8990 C   0  0  0  0  0  0  0  0  0  0  0  0
  -30.3550  -63.9130   52.6500 C   0  0  0  0  0  0  0  0  0  0  0  0
  -29.7920  -64.9030   51.8890 N   0  0  0  0  0  0  0  0  0  0  0  0
  -29.4970  -64.4220   50.6350 C   0  0  0  0  0  0  0  0  0  0  0  0
  -28.9520  -65.0840   49.5300 C   0  0  0  0  0  0  0  0  0  0  0  0
  -28.7260  -64.3330   48.3740 C   0  0  0  0  0  0  0  0  0  0  0  0
  -29.0150  -62.9770   48.3450 C   0  0  0  0  0  0  0  0  0  0  0  0
  -28.7490  -62.3060   47.1870 O   0  0  0  0  0  0  0  0  0  0  0  0
  -29.5620  -62.3200   49.4490 C   0  0  0  0  0  0  0  0  0  0  0  0
  -29.8230  -63.0640   50.6210 C   0  0  0  0  0  0  0  0  0  0  0  0
  -33.9220  -62.0440   53.2530 H   0  0  0  0  0  0  0  0  0  0  0  0
  -33.6920  -60.4610   53.6770 H   0  0  0  0  0  0  0  0  0  0  0  0
  -33.3620  -60.9660   52.1240 H   0  0  0  0  0  0  0  0  0  0  0  0
  -31.5960  -60.8851   54.3229 H   0  0  0  0  0  0  0  0  0  0  0  0
  -31.8949  -62.6103   53.8721 H   0  0  0  0  0  0  0  0  0  0  0  0
  -31.4854  -60.9787   51.4956 H   0  0  0  0  0  0  0  0  0  0  0  0
  -30.1037  -60.8111   52.6683 H   0  0  0  0  0  0  0  0  0  0  0  0
  -30.7157  -64.0224   53.6834 H   0  0  0  0  0  0  0  0  0  0  0  0
  -29.6070  -65.8510   52.1950 H   0  0  0  0  0  0  0  0  0  0  0  0
  -28.7103  -66.1564   49.5698 H   0  0  0  0  0  0  0  0  0  0  0  0
  -28.3150  -64.8218   47.4784 H   0  0  0  0  0  0  0  0  0  0  0  0
  -27.8500  -61.9400   47.2210 H   0  0  0  0  0  0  0  0  0  0  0  0
  -29.7854  -61.2437   49.4068 H   0  0  0  0  0  0  0  0  0  0  0  0
  1  2  1  0
  2  3  1  0
  3  4  1  0
  4  5  2  0
  5  6  1  0
  6  7  1  0
  7  8  2  0
  8  9  1  0
  9 10  2  0
 10 11  1  0
 10 12  1  0
 12 13  2  0
 13  4  1  0
 13  7  1  0
  1 14  1  0
  1 15  1  0
  1 16  1  0
  2 17  1  0
  2 18  1  0
  3 19  1  0
  3 20  1  0
  5 21  1  0
  6 22  1  0
  8 23  1  0
  9 24  1  0
 11 25  1  0
 12 26  1  0
M  CHG  1   1   1
M  END
>  <meeko>  (9) 
{"is_sidechain": [false], "free_energy": -5.102, "intermolecular_energy": -5.683, "internal_energy": -0.092}

$$$$
