2pog_ligand
     RDKit          3D

 39 42  0  0  0  0  0  0  0  0999 V2000
    6.1980   51.6430   60.4250 O   0  0  0  0  0  0  0  0  0  0  0  0
    7.5080   51.6220   60.0450 C   0  0  0  0  0  0  0  0  0  0  0  0
    8.2740   52.7520   60.2960 C   0  0  0  0  0  0  0  0  0  0  0  0
    9.6190   52.7750   59.9230 C   0  0  0  0  0  0  0  0  0  0  0  0
   10.2080   51.6630   59.3000 C   0  0  0  0  0  0  0  0  0  0  0  0
   11.6670   51.6670   58.8630 C   0  0  2  0  0  0  0  0  0  0  0  0
   11.9890   50.4310   58.2090 O   0  0  0  0  0  0  0  0  0  0  0  0
   13.2750   50.4070   57.7360 C   0  0  0  0  0  0  0  0  0  0  0  0
   13.5020   49.5880   56.6300 C   0  0  0  0  0  0  0  0  0  0  0  0
   14.7710   49.5180   56.0620 C   0  0  0  0  0  0  0  0  0  0  0  0
   15.8150   50.2680   56.6020 C   0  0  0  0  0  0  0  0  0  0  0  0
   15.5830   51.0660   57.7230 C   0  0  0  0  0  0  0  0  0  0  0  0
   16.6040   51.8060   58.2530 O   0  0  0  0  0  0  0  0  0  0  0  0
   14.3180   51.1330   58.3240 C   0  0  0  0  0  0  0  0  0  0  0  0
   14.0840   51.9550   59.5710 C   0  0  2  0  0  0  0  0  0  0  0  0
   14.8920   51.4350   60.7790 C   0  0  0  0  0  0  0  0  0  0  0  0
   13.8860   51.1800   61.8940 C   0  0  0  0  0  0  0  0  0  0  0  0
   12.5910   50.8950   61.1560 C   0  0  0  0  0  0  0  0  0  0  0  0
   12.6130   51.9390   60.0340 C   0  0  2  0  0  0  0  0  0  0  0  0
    9.4110   50.5310   59.0530 C   0  0  0  0  0  0  0  0  0  0  0  0
    8.0650   50.5080   59.4260 C   0  0  0  0  0  0  0  0  0  0  0  0
    5.8420   52.5290   60.2520 H   0  0  0  0  0  0  0  0  0  0  0  0
    7.8226   53.6266   60.7873 H   0  0  0  0  0  0  0  0  0  0  0  0
   10.2233   53.6730   60.1190 H   0  0  0  0  0  0  0  0  0  0  0  0
   11.8052   52.4905   58.1469 H   0  0  0  0  0  0  0  0  0  0  0  0
   12.6771   48.9966   56.2060 H   0  0  0  0  0  0  0  0  0  0  0  0
   14.9497   48.8726   55.1893 H   0  0  0  0  0  0  0  0  0  0  0  0
   16.8158   50.2309   56.1470 H   0  0  0  0  0  0  0  0  0  0  0  0
   16.5390   51.7790   59.2210 H   0  0  0  0  0  0  0  0  0  0  0  0
   14.3972   52.9679   59.2777 H   0  0  0  0  0  0  0  0  0  0  0  0
   15.4119   50.5021   60.5154 H   0  0  0  0  0  0  0  0  0  0  0  0
   15.6553   52.1632   61.0905 H   0  0  0  0  0  0  0  0  0  0  0  0
   14.1878   50.3156   62.5038 H   0  0  0  0  0  0  0  0  0  0  0  0
   13.8005   52.0265   62.5912 H   0  0  0  0  0  0  0  0  0  0  0  0
   12.5821   49.8733   60.7484 H   0  0  0  0  0  0  0  0  0  0  0  0
   11.6984   50.9572   61.7958 H   0  0  0  0  0  0  0  0  0  0  0  0
   12.2477   52.9046   60.4137 H   0  0  0  0  0  0  0  0  0  0  0  0
    9.8530   49.6527   58.5599 H   0  0  0  0  0  0  0  0  0  0  0  0
    7.4508   49.6163   59.2318 H   0  0  0  0  0  0  0  0  0  0  0  0
  1  2  1  0
  2  3  2  0
  3  4  1  0
  4  5  2  0
  5  6  1  0
  6  7  1  0
  7  8  1  0
  8  9  2  0
  9 10  1  0
 10 11  2  0
 11 12  1  0
 12 13  1  0
 12 14  2  0
 14 15  1  0
 15 16  1  0
 16 17  1  0
 17 18  1  0
 18 19  1  0
  5 20  1  0
 20 21  2  0
 21  2  1  0
 19  6  1  0
 14  8  1  0
 19 15  1  0
  1 22  1  0
  3 23  1  0
  4 24  1  0
  6 25  1  6
  9 26  1  0
 10 27  1  0
 11 28  1  0
 13 29  1  0
 15 30  1  6
 16 31  1  0
 16 32  1  0
 17 33  1  0
 17 34  1  0
 18 35  1  0
 18 36  1  0
 19 37  1  1
 20 38  1  0
 21 39  1  0
M  END
>  <meeko>  (1) 
{"is_sidechain": [false], "free_energy": -10.014, "intermolecular_energy": -11.184, "internal_energy": -0.564}

$$$$
2pog_ligand
     RDKit          3D

 39 42  0  0  0  0  0  0  0  0999 V2000
    6.3530   53.6050   58.7740 O   0  0  0  0  0  0  0  0  0  0  0  0
    7.5260   52.9700   59.0590 C   0  0  0  0  0  0  0  0  0  0  0  0
    7.5930   51.6020   58.8350 C   0  0  0  0  0  0  0  0  0  0  0  0
    8.7750   50.9120   59.1150 C   0  0  0  0  0  0  0  0  0  0  0  0
    9.8980   51.5880   59.6170 C   0  0  0  0  0  0  0  0  0  0  0  0
   11.1910   50.8580   59.9510 C   0  0  2  0  0  0  0  0  0  0  0  0
   11.9510   51.6120   60.9060 O   0  0  0  0  0  0  0  0  0  0  0  0
   13.0970   50.9680   61.2920 C   0  0  0  0  0  0  0  0  0  0  0  0
   13.5680   51.2750   62.5690 C   0  0  0  0  0  0  0  0  0  0  0  0
   14.7110   50.6500   63.0610 C   0  0  0  0  0  0  0  0  0  0  0  0
   15.3850   49.7190   62.2730 C   0  0  0  0  0  0  0  0  0  0  0  0
   14.9200   49.4360   60.9880 C   0  0  0  0  0  0  0  0  0  0  0  0
   15.5770   48.5210   60.2130 O   0  0  0  0  0  0  0  0  0  0  0  0
   13.7840   50.0710   60.4660 C   0  0  0  0  0  0  0  0  0  0  0  0
   13.3150   49.8040   59.0530 C   0  0  2  0  0  0  0  0  0  0  0  0
   14.3450   50.2570   57.9960 C   0  0  0  0  0  0  0  0  0  0  0  0
   13.6120   51.2060   57.0580 C   0  0  0  0  0  0  0  0  0  0  0  0
   12.5030   51.7840   57.9190 C   0  0  0  0  0  0  0  0  0  0  0  0
   12.0170   50.5570   58.6980 C   0  0  2  0  0  0  0  0  0  0  0  0
    9.8030   52.9740   59.8400 C   0  0  0  0  0  0  0  0  0  0  0  0
    8.6210   53.6650   59.5600 C   0  0  0  0  0  0  0  0  0  0  0  0
    6.5490   54.3860   58.2310 H   0  0  0  0  0  0  0  0  0  0  0  0
    6.7195   51.0635   58.4388 H   0  0  0  0  0  0  0  0  0  0  0  0
    8.8262   49.8272   58.9402 H   0  0  0  0  0  0  0  0  0  0  0  0
   10.9273   49.8880   60.3977 H   0  0  0  0  0  0  0  0  0  0  0  0
   13.0355   52.0120   63.1881 H   0  0  0  0  0  0  0  0  0  0  0  0
   15.0808   50.8905   64.0687 H   0  0  0  0  0  0  0  0  0  0  0  0
   16.2791   49.2097   62.6619 H   0  0  0  0  0  0  0  0  0  0  0  0
   16.3300   48.1680   60.7140 H   0  0  0  0  0  0  0  0  0  0  0  0
   13.1610   48.7151   59.0311 H   0  0  0  0  0  0  0  0  0  0  0  0
   15.1848   50.7757   58.4815 H   0  0  0  0  0  0  0  0  0  0  0  0
   14.7584   49.3969   57.4488 H   0  0  0  0  0  0  0  0  0  0  0  0
   14.2842   51.9999   56.7003 H   0  0  0  0  0  0  0  0  0  0  0  0
   13.2316   50.7029   56.1568 H   0  0  0  0  0  0  0  0  0  0  0  0
   12.8890   52.5589   58.5976 H   0  0  0  0  0  0  0  0  0  0  0  0
   11.7097   52.2790   57.3396 H   0  0  0  0  0  0  0  0  0  0  0  0
   11.3124   49.9779   58.0830 H   0  0  0  0  0  0  0  0  0  0  0  0
   10.6699   53.5205   60.2397 H   0  0  0  0  0  0  0  0  0  0  0  0
    8.5575   54.7492   59.7345 H   0  0  0  0  0  0  0  0  0  0  0  0
  1  2  1  0
  2  3  2  0
  3  4  1  0
  4  5  2  0
  5  6  1  0
  6  7  1  0
  7  8  1  0
  8  9  2  0
  9 10  1  0
 10 11  2  0
 11 12  1  0
 12 13  1  0
 12 14  2  0
 14 15  1  0
 15 16  1  0
 16 17  1  0
 17 18  1  0
 18 19  1  0
  5 20  1  0
 20 21  2  0
 21  2  1  0
 19  6  1  0
 14  8  1  0
 19 15  1  0
  1 22  1  0
  3 23  1  0
  4 24  1  0
  6 25  1  1
  9 26  1  0
 10 27  1  0
 11 28  1  0
 13 29  1  0
 15 30  1  1
 16 31  1  0
 16 32  1  0
 17 33  1  0
 17 34  1  0
 18 35  1  0
 18 36  1  0
 19 37  1  6
 20 38  1  0
 21 39  1  0
M  END
>  <meeko>  (2) 
{"is_sidechain": [false], "free_energy": -9.02, "intermolecular_energy": -10.161, "internal_energy": -0.478}

$$$$
2pog_ligand
     RDKit          3D

 39 42  0  0  0  0  0  0  0  0999 V2000
   13.6840   54.7590   68.2680 O   0  0  0  0  0  0  0  0  0  0  0  0
   13.7120   54.4290   66.9450 C   0  0  0  0  0  0  0  0  0  0  0  0
   12.6070   53.7760   66.4160 C   0  0  0  0  0  0  0  0  0  0  0  0
   12.5940   53.4190   65.0660 C   0  0  0  0  0  0  0  0  0  0  0  0
   13.6860   53.7160   64.2360 C   0  0  0  0  0  0  0  0  0  0  0  0
   13.7090   53.3200   62.7670 C   0  0  2  0  0  0  0  0  0  0  0  0
   12.3800   53.0210   62.3150 O   0  0  0  0  0  0  0  0  0  0  0  0
   12.3340   52.7210   60.9790 C   0  0  0  0  0  0  0  0  0  0  0  0
   11.1290   53.0000   60.3330 C   0  0  0  0  0  0  0  0  0  0  0  0
   10.9950   52.7550   58.9690 C   0  0  0  0  0  0  0  0  0  0  0  0
   12.0670   52.2280   58.2510 C   0  0  0  0  0  0  0  0  0  0  0  0
   13.2600   51.9300   58.9110 C   0  0  0  0  0  0  0  0  0  0  0  0
   14.3150   51.4160   58.2090 O   0  0  0  0  0  0  0  0  0  0  0  0
   13.4080   52.1490   60.2880 C   0  0  0  0  0  0  0  0  0  0  0  0
   14.6830   51.7730   61.0100 C   0  0  2  0  0  0  0  0  0  0  0  0
   14.9480   50.2520   60.9820 C   0  0  0  0  0  0  0  0  0  0  0  0
   15.1090   49.8160   62.4330 C   0  0  0  0  0  0  0  0  0  0  0  0
   14.3020   50.8390   63.2110 C   0  0  0  0  0  0  0  0  0  0  0  0
   14.6600   52.1500   62.5040 C   0  0  2  0  0  0  0  0  0  0  0  0
   14.7960   54.3730   64.7960 C   0  0  0  0  0  0  0  0  0  0  0  0
   14.8100   54.7310   66.1470 C   0  0  0  0  0  0  0  0  0  0  0  0
   13.6560   55.7260   68.3440 H   0  0  0  0  0  0  0  0  0  0  0  0
   11.7451   53.5407   67.0577 H   0  0  0  0  0  0  0  0  0  0  0  0
   11.7187   52.8996   64.6488 H   0  0  0  0  0  0  0  0  0  0  0  0
   14.0930   54.1757   62.1922 H   0  0  0  0  0  0  0  0  0  0  0  0
   10.2837   53.4141   60.9022 H   0  0  0  0  0  0  0  0  0  0  0  0
   10.0457   52.9768   58.4595 H   0  0  0  0  0  0  0  0  0  0  0  0
   11.9733   52.0479   57.1699 H   0  0  0  0  0  0  0  0  0  0  0  0
   15.1260   51.8770   58.4780 H   0  0  0  0  0  0  0  0  0  0  0  0
   15.4626   52.3317   60.4714 H   0  0  0  0  0  0  0  0  0  0  0  0
   14.0998   49.7266   60.5189 H   0  0  0  0  0  0  0  0  0  0  0  0
   15.8459   50.0147   60.3926 H   0  0  0  0  0  0  0  0  0  0  0  0
   14.7077   48.8031   62.5845 H   0  0  0  0  0  0  0  0  0  0  0  0
   16.1615   49.7746   62.7501 H   0  0  0  0  0  0  0  0  0  0  0  0
   13.2240   50.6313   63.1416 H   0  0  0  0  0  0  0  0  0  0  0  0
   14.5248   50.8464   64.2882 H   0  0  0  0  0  0  0  0  0  0  0  0
   15.6174   52.5329   62.8871 H   0  0  0  0  0  0  0  0  0  0  0  0
   15.6642   54.6082   64.1628 H   0  0  0  0  0  0  0  0  0  0  0  0
   15.6819   55.2471   66.5752 H   0  0  0  0  0  0  0  0  0  0  0  0
  1  2  1  0
  2  3  2  0
  3  4  1  0
  4  5  2  0
  5  6  1  0
  6  7  1  0
  7  8  1  0
  8  9  2  0
  9 10  1  0
 10 11  2  0
 11 12  1  0
 12 13  1  0
 12 14  2  0
 14 15  1  0
 15 16  1  0
 16 17  1  0
 17 18  1  0
 18 19  1  0
  5 20  1  0
 20 21  2  0
 21  2  1  0
 19  6  1  0
 14  8  1  0
 19 15  1  0
  1 22  1  0
  3 23  1  0
  4 24  1  0
  6 25  1  6
  9 26  1  0
 10 27  1  0
 11 28  1  0
 13 29  1  0
 15 30  1  6
 16 31  1  0
 16 32  1  0
 17 33  1  0
 17 34  1  0
 18 35  1  0
 18 36  1  0
 19 37  1  1
 20 38  1  0
 21 39  1  0
M  END
>  <meeko>  (3) 
{"is_sidechain": [false], "free_energy": -7.041, "intermolecular_energy": -7.904, "internal_energy": -0.525}

$$$$
