2iwx_ligand
     RDKit          3D

 45 46  0  0  0  0  0  0  0  0999 V2000
   58.6850   78.6000   -6.6300 O   0  0  0  0  0  0  0  0  0  0  0  0
   59.0640   78.1320   -5.5560 C   0  0  0  0  0  0  0  0  0  0  0  0
   60.4740   78.3720   -5.0280 C   0  0  0  0  0  0  0  0  0  0  0  0
   60.6280   77.9210   -3.5760 C   0  0  0  0  0  0  0  0  0  0  0  0
   61.3450   76.5690   -3.4850 C   0  0  0  0  0  0  0  0  0  0  0  0
   60.6310   75.5900   -2.5360 C   0  0  0  0  0  0  0  0  0  0  0  0
   59.7300   76.3060   -1.5210 C   0  0  0  0  0  0  0  0  0  0  0  0
   58.2590   75.9650   -1.5270 C   0  0  0  0  0  0  0  0  0  0  0  0
   57.2270   76.8250   -1.4960 C   0  0  0  0  0  0  0  0  0  0  0  0
   55.7800   76.4200   -1.4610 C   0  0  0  0  0  0  0  0  0  0  0  0
   54.8830   77.3990   -2.2240 C   0  0  0  0  0  0  0  0  0  0  0  0
   54.5370   76.8580   -3.5130 O   0  0  0  0  0  0  0  0  0  0  0  0
   55.1200   77.4660   -4.5680 C   0  0  0  0  0  0  0  0  0  0  0  0
   55.0100   78.6390   -4.8950 O   0  0  0  0  0  0  0  0  0  0  0  0
   55.8310   76.4930   -5.4240 C   0  0  0  0  0  0  0  0  0  0  0  0
   55.0230   75.6890   -6.2510 C   0  0  0  0  0  0  0  0  0  0  0  0
   53.6600   75.8230   -6.3330 O   0  0  0  0  0  0  0  0  0  0  0  0
   55.5770   74.7010   -7.0570 C   0  0  0  0  0  0  0  0  0  0  0  0
   56.9570   74.5350   -7.0720 C   0  0  0  0  0  0  0  0  0  0  0  0
   57.5060   73.5680   -7.8720 O   0  0  0  0  0  0  0  0  0  0  0  0
   57.7870   75.3610   -6.2970 C   0  0  0  0  0  0  0  0  0  0  0  0
   59.5090   75.1370   -6.4000 Cl  0  0  0  0  0  0  0  0  0  0  0  0
   57.2390   76.3680   -5.4670 C   0  0  0  0  0  0  0  0  0  0  0  0
   58.1560   77.2840   -4.6810 C   0  0  0  0  0  0  0  0  0  0  0  0
   61.1864   77.8114   -5.6511 H   0  0  0  0  0  0  0  0  0  0  0  0
   60.6722   79.4532   -5.0700 H   0  0  0  0  0  0  0  0  0  0  0  0
   61.2125   78.6741   -3.0271 H   0  0  0  0  0  0  0  0  0  0  0  0
   59.6247   77.8117   -3.1384 H   0  0  0  0  0  0  0  0  0  0  0  0
   61.3851   76.1219   -4.4892 H   0  0  0  0  0  0  0  0  0  0  0  0
   62.3533   76.7499   -3.0843 H   0  0  0  0  0  0  0  0  0  0  0  0
   60.0125   74.9057   -3.1354 H   0  0  0  0  0  0  0  0  0  0  0  0
   61.4043   75.0479   -1.9720 H   0  0  0  0  0  0  0  0  0  0  0  0
   60.1169   76.0750   -0.5175 H   0  0  0  0  0  0  0  0  0  0  0  0
   59.7714   77.3663   -1.8110 H   0  0  0  0  0  0  0  0  0  0  0  0
   58.0043   74.8954   -1.5604 H   0  0  0  0  0  0  0  0  0  0  0  0
   57.4573   77.9006   -1.4963 H   0  0  0  0  0  0  0  0  0  0  0  0
   55.6809   75.4227   -1.9144 H   0  0  0  0  0  0  0  0  0  0  0  0
   55.4569   76.4176   -0.4095 H   0  0  0  0  0  0  0  0  0  0  0  0
   53.9640   77.5755   -1.6458 H   0  0  0  0  0  0  0  0  0  0  0  0
   55.4255   78.3452   -2.3666 H   0  0  0  0  0  0  0  0  0  0  0  0
   53.4340   76.7780   -6.3820 H   0  0  0  0  0  0  0  0  0  0  0  0
   54.9318   74.0591   -7.6747 H   0  0  0  0  0  0  0  0  0  0  0  0
   57.4190   73.8280   -8.8040 H   0  0  0  0  0  0  0  0  0  0  0  0
   57.5357   77.9558   -4.0695 H   0  0  0  0  0  0  0  0  0  0  0  0
   58.8059   76.6418   -4.0685 H   0  0  0  0  0  0  0  0  0  0  0  0
  1  2  2  0
  2  3  1  0
  3  4  1  0
  4  5  1  0
  5  6  1  0
  6  7  1  0
  7  8  1  0
  8  9  2  0
  9 10  1  0
 10 11  1  0
 11 12  1  0
 12 13  1  0
 13 14  2  0
 13 15  1  0
 15 16  2  0
 16 17  1  0
 16 18  1  0
 18 19  2  0
 19 20  1  0
 19 21  1  0
 21 22  1  0
 21 23  2  0
 23 24  1  0
 24  2  1  0
 23 15  1  0
  3 25  1  0
  3 26  1  0
  4 27  1  0
  4 28  1  0
  5 29  1  0
  5 30  1  0
  6 31  1  0
  6 32  1  0
  7 33  1  0
  7 34  1  0
  8 35  1  0
  9 36  1  0
 10 37  1  0
 10 38  1  0
 11 39  1  0
 11 40  1  0
 17 41  1  0
 18 42  1  0
 20 43  1  0
 24 44  1  0
 24 45  1  0
M  END
>  <meeko>  (1) 
{"is_sidechain": [false], "free_energy": -5.223, "intermolecular_energy": -9.193, "internal_energy": -1.325}

$$$$
2iwx_ligand
     RDKit          3D

 45 46  0  0  0  0  0  0  0  0999 V2000
   57.8530   74.3460   -2.7410 O   0  0  0  0  0  0  0  0  0  0  0  0
   58.3690   75.4380   -2.9830 C   0  0  0  0  0  0  0  0  0  0  0  0
   57.8550   76.7270   -2.3520 C   0  0  0  0  0  0  0  0  0  0  0  0
   56.3830   76.6240   -1.9530 C   0  0  0  0  0  0  0  0  0  0  0  0
   55.7560   78.0110   -1.7690 C   0  0  0  0  0  0  0  0  0  0  0  0
   54.5430   78.2150   -2.6850 C   0  0  0  0  0  0  0  0  0  0  0  0
   54.9350   78.6980   -4.0870 C   0  0  0  0  0  0  0  0  0  0  0  0
   54.6610   77.7740   -5.2500 C   0  0  0  0  0  0  0  0  0  0  0  0
   54.5830   76.4330   -5.2190 C   0  0  0  0  0  0  0  0  0  0  0  0
   54.3480   75.5640   -6.4230 C   0  0  0  0  0  0  0  0  0  0  0  0
   55.6460   74.9590   -6.9660 C   0  0  0  0  0  0  0  0  0  0  0  0
   56.6880   75.0410   -5.9760 O   0  0  0  0  0  0  0  0  0  0  0  0
   57.9440   75.1090   -6.4670 C   0  0  0  0  0  0  0  0  0  0  0  0
   58.5750   74.2090   -7.0030 O   0  0  0  0  0  0  0  0  0  0  0  0
   58.5760   76.4070   -6.1490 C   0  0  0  0  0  0  0  0  0  0  0  0
   58.3340   77.4540   -7.0600 C   0  0  0  0  0  0  0  0  0  0  0  0
   57.5100   77.3280   -8.1500 O   0  0  0  0  0  0  0  0  0  0  0  0
   58.9220   78.7020   -6.8940 C   0  0  0  0  0  0  0  0  0  0  0  0
   59.7300   78.9280   -5.7860 C   0  0  0  0  0  0  0  0  0  0  0  0
   60.3030   80.1600   -5.6160 O   0  0  0  0  0  0  0  0  0  0  0  0
   59.9420   77.9170   -4.8360 C   0  0  0  0  0  0  0  0  0  0  0  0
   60.9220   78.2780   -3.4440 Cl  0  0  0  0  0  0  0  0  0  0  0  0
   59.3560   76.6380   -4.9920 C   0  0  0  0  0  0  0  0  0  0  0  0
   59.5520   75.5790   -3.9260 C   0  0  0  0  0  0  0  0  0  0  0  0
   58.4516   76.9449   -1.4539 H   0  0  0  0  0  0  0  0  0  0  0  0
   57.9487   77.5303   -3.0976 H   0  0  0  0  0  0  0  0  0  0  0  0
   55.8355   76.0851   -2.7403 H   0  0  0  0  0  0  0  0  0  0  0  0
   56.3201   76.0854   -0.9959 H   0  0  0  0  0  0  0  0  0  0  0  0
   55.4342   78.1201   -0.7228 H   0  0  0  0  0  0  0  0  0  0  0  0
   56.5126   78.7652   -2.0313 H   0  0  0  0  0  0  0  0  0  0  0  0
   54.0081   77.2584   -2.7790 H   0  0  0  0  0  0  0  0  0  0  0  0
   53.9103   78.9917   -2.2307 H   0  0  0  0  0  0  0  0  0  0  0  0
   54.3901   79.6346   -4.2761 H   0  0  0  0  0  0  0  0  0  0  0  0
   56.0310   78.7863   -4.0543 H   0  0  0  0  0  0  0  0  0  0  0  0
   54.5087   78.2511   -6.2294 H   0  0  0  0  0  0  0  0  0  0  0  0
   54.6992   75.9362   -4.2445 H   0  0  0  0  0  0  0  0  0  0  0  0
   53.6674   74.7468   -6.1419 H   0  0  0  0  0  0  0  0  0  0  0  0
   53.9144   76.1944   -7.2133 H   0  0  0  0  0  0  0  0  0  0  0  0
   55.4739   73.9039   -7.2252 H   0  0  0  0  0  0  0  0  0  0  0  0
   55.9563   75.5208   -7.8594 H   0  0  0  0  0  0  0  0  0  0  0  0
   57.2700   78.2230   -8.4750 H   0  0  0  0  0  0  0  0  0  0  0  0
   58.7501   79.5010   -7.6302 H   0  0  0  0  0  0  0  0  0  0  0  0
   59.6310   80.8510   -5.7350 H   0  0  0  0  0  0  0  0  0  0  0  0
   59.7175   74.6118   -4.4231 H   0  0  0  0  0  0  0  0  0  0  0  0
   60.4140   75.8899   -3.3175 H   0  0  0  0  0  0  0  0  0  0  0  0
  1  2  2  0
  2  3  1  0
  3  4  1  0
  4  5  1  0
  5  6  1  0
  6  7  1  0
  7  8  1  0
  8  9  2  0
  9 10  1  0
 10 11  1  0
 11 12  1  0
 12 13  1  0
 13 14  2  0
 13 15  1  0
 15 16  2  0
 16 17  1  0
 16 18  1  0
 18 19  2  0
 19 20  1  0
 19 21  1  0
 21 22  1  0
 21 23  2  0
 23 24  1  0
 24  2  1  0
 23 15  1  0
  3 25  1  0
  3 26  1  0
  4 27  1  0
  4 28  1  0
  5 29  1  0
  5 30  1  0
  6 31  1  0
  6 32  1  0
  7 33  1  0
  7 34  1  0
  8 35  1  0
  9 36  1  0
 10 37  1  0
 10 38  1  0
 11 39  1  0
 11 40  1  0
 17 41  1  0
 18 42  1  0
 20 43  1  0
 24 44  1  0
 24 45  1  0
M  END
>  <meeko>  (2) 
{"is_sidechain": [false], "free_energy": -5.106, "intermolecular_energy": -8.826, "internal_energy": -1.485}

$$$$
2iwx_ligand
     RDKit          3D

 45 46  0  0  0  0  0  0  0  0999 V2000
   57.7930   74.6040   -2.9900 O   0  0  0  0  0  0  0  0  0  0  0  0
   58.1880   75.7680   -2.9320 C   0  0  0  0  0  0  0  0  0  0  0  0
   58.9310   76.3040   -1.7130 C   0  0  0  0  0  0  0  0  0  0  0  0
   60.4480   76.2330   -1.8880 C   0  0  0  0  0  0  0  0  0  0  0  0
   61.0160   77.5670   -2.3860 C   0  0  0  0  0  0  0  0  0  0  0  0
   61.7030   77.4270   -3.7580 C   0  0  0  0  0  0  0  0  0  0  0  0
   61.2060   78.4510   -4.7870 C   0  0  0  0  0  0  0  0  0  0  0  0
   60.5270   77.9250   -6.0290 C   0  0  0  0  0  0  0  0  0  0  0  0
   59.5680   78.5310   -6.7480 C   0  0  0  0  0  0  0  0  0  0  0  0
   58.9010   77.9340   -7.9550 C   0  0  0  0  0  0  0  0  0  0  0  0
   58.7430   76.4150   -7.8420 C   0  0  0  0  0  0  0  0  0  0  0  0
   57.3520   76.0660   -7.7110 O   0  0  0  0  0  0  0  0  0  0  0  0
   57.0380   75.3560   -6.6070 C   0  0  0  0  0  0  0  0  0  0  0  0
   57.3410   74.1960   -6.3650 O   0  0  0  0  0  0  0  0  0  0  0  0
   56.1180   76.1080   -5.7280 C   0  0  0  0  0  0  0  0  0  0  0  0
   54.7580   76.0870   -6.0910 C   0  0  0  0  0  0  0  0  0  0  0  0
   54.2730   75.3640   -7.1510 O   0  0  0  0  0  0  0  0  0  0  0  0
   53.8090   76.8040   -5.3710 C   0  0  0  0  0  0  0  0  0  0  0  0
   54.2110   77.5220   -4.2500 C   0  0  0  0  0  0  0  0  0  0  0  0
   53.2770   78.2230   -3.5340 O   0  0  0  0  0  0  0  0  0  0  0  0
   55.5530   77.5140   -3.8370 C   0  0  0  0  0  0  0  0  0  0  0  0
   55.9820   78.3900   -2.3960 Cl  0  0  0  0  0  0  0  0  0  0  0  0
   56.5320   76.7940   -4.5620 C   0  0  0  0  0  0  0  0  0  0  0  0
   57.9640   76.7540   -4.0670 C   0  0  0  0  0  0  0  0  0  0  0  0
   58.6409   77.3530   -1.5536 H   0  0  0  0  0  0  0  0  0  0  0  0
   58.6598   75.6796   -0.8490 H   0  0  0  0  0  0  0  0  0  0  0  0
   60.9089   75.9867   -0.9201 H   0  0  0  0  0  0  0  0  0  0  0  0
   60.6746   75.4591   -2.6361 H   0  0  0  0  0  0  0  0  0  0  0  0
   60.1937   78.2924   -2.4732 H   0  0  0  0  0  0  0  0  0  0  0  0
   61.7712   77.9058   -1.6615 H   0  0  0  0  0  0  0  0  0  0  0  0
   62.7861   77.5638   -3.6228 H   0  0  0  0  0  0  0  0  0  0  0  0
   61.4596   76.4270   -4.1463 H   0  0  0  0  0  0  0  0  0  0  0  0
   60.4895   79.1101   -4.2750 H   0  0  0  0  0  0  0  0  0  0  0  0
   62.1195   78.9406   -5.1556 H   0  0  0  0  0  0  0  0  0  0  0  0
   60.8539   76.9365   -6.3840 H   0  0  0  0  0  0  0  0  0  0  0  0
   59.2484   79.5347   -6.4311 H   0  0  0  0  0  0  0  0  0  0  0  0
   57.9043   78.3856   -8.0676 H   0  0  0  0  0  0  0  0  0  0  0  0
   59.5379   78.1414   -8.8276 H   0  0  0  0  0  0  0  0  0  0  0  0
   59.1531   75.9393   -8.7450 H   0  0  0  0  0  0  0  0  0  0  0  0
   59.2856   76.0639   -6.9519 H   0  0  0  0  0  0  0  0  0  0  0  0
   54.9650   74.7370   -7.4550 H   0  0  0  0  0  0  0  0  0  0  0  0
   52.7544   76.8033   -5.6839 H   0  0  0  0  0  0  0  0  0  0  0  0
   52.3870   78.0040   -3.8580 H   0  0  0  0  0  0  0  0  0  0  0  0
   58.6147   76.4706   -4.9074 H   0  0  0  0  0  0  0  0  0  0  0  0
   58.1982   77.7550   -3.6757 H   0  0  0  0  0  0  0  0  0  0  0  0
  1  2  2  0
  2  3  1  0
  3  4  1  0
  4  5  1  0
  5  6  1  0
  6  7  1  0
  7  8  1  0
  8  9  2  0
  9 10  1  0
 10 11  1  0
 11 12  1  0
 12 13  1  0
 13 14  2  0
 13 15  1  0
 15 16  2  0
 16 17  1  0
 16 18  1  0
 18 19  2  0
 19 20  1  0
 19 21  1  0
 21 22  1  0
 21 23  2  0
 23 24  1  0
 24  2  1  0
 23 15  1  0
  3 25  1  0
  3 26  1  0
  4 27  1  0
  4 28  1  0
  5 29  1  0
  5 30  1  0
  6 31  1  0
  6 32  1  0
  7 33  1  0
  7 34  1  0
  8 35  1  0
  9 36  1  0
 10 37  1  0
 10 38  1  0
 11 39  1  0
 11 40  1  0
 17 41  1  0
 18 42  1  0
 20 43  1  0
 24 44  1  0
 24 45  1  0
M  END
>  <meeko>  (3) 
{"is_sidechain": [false], "free_energy": -5.04, "intermolecular_energy": -8.516, "internal_energy": -1.68}

$$$$
2iwx_ligand
     RDKit          3D

 45 46  0  0  0  0  0  0  0  0999 V2000
   56.8210   77.9530   -2.0810 O   0  0  0  0  0  0  0  0  0  0  0  0
   56.6610   77.1320   -2.9840 C   0  0  0  0  0  0  0  0  0  0  0  0
   55.2980   76.8990   -3.6270 C   0  0  0  0  0  0  0  0  0  0  0  0
   55.3790   76.8720   -5.1530 C   0  0  0  0  0  0  0  0  0  0  0  0
   54.5080   75.7550   -5.7380 C   0  0  0  0  0  0  0  0  0  0  0  0
   54.9910   75.3340   -7.1270 C   0  0  0  0  0  0  0  0  0  0  0  0
   56.2750   74.4960   -7.0790 C   0  0  0  0  0  0  0  0  0  0  0  0
   57.5450   75.1270   -7.5980 C   0  0  0  0  0  0  0  0  0  0  0  0
   57.6500   76.2280   -8.3600 C   0  0  0  0  0  0  0  0  0  0  0  0
   58.9450   76.7840   -8.8820 C   0  0  0  0  0  0  0  0  0  0  0  0
   59.4840   77.9210   -8.0100 C   0  0  0  0  0  0  0  0  0  0  0  0
   59.7890   77.4360   -6.6890 O   0  0  0  0  0  0  0  0  0  0  0  0
   59.0840   78.0070   -5.6900 C   0  0  0  0  0  0  0  0  0  0  0  0
   58.1100   78.7370   -5.7990 O   0  0  0  0  0  0  0  0  0  0  0  0
   59.7230   77.7710   -4.3780 C   0  0  0  0  0  0  0  0  0  0  0  0
   60.9380   78.4460   -4.1490 C   0  0  0  0  0  0  0  0  0  0  0  0
   61.4870   79.3310   -5.0420 O   0  0  0  0  0  0  0  0  0  0  0  0
   61.6560   78.2560   -2.9740 C   0  0  0  0  0  0  0  0  0  0  0  0
   61.1430   77.4150   -1.9940 C   0  0  0  0  0  0  0  0  0  0  0  0
   61.8450   77.2330   -0.8330 O   0  0  0  0  0  0  0  0  0  0  0  0
   59.9070   76.7730   -2.1770 C   0  0  0  0  0  0  0  0  0  0  0  0
   59.2940   75.7740   -0.8920 Cl  0  0  0  0  0  0  0  0  0  0  0  0
   59.1650   76.9510   -3.3690 C   0  0  0  0  0  0  0  0  0  0  0  0
   57.8080   76.2930   -3.5230 C   0  0  0  0  0  0  0  0  0  0  0  0
   54.9003   75.9354   -3.2759 H   0  0  0  0  0  0  0  0  0  0  0  0
   54.6402   77.7318   -3.3375 H   0  0  0  0  0  0  0  0  0  0  0  0
   55.0336   77.8391   -5.5472 H   0  0  0  0  0  0  0  0  0  0  0  0
   56.4237   76.6843   -5.4416 H   0  0  0  0  0  0  0  0  0  0  0  0
   54.5464   74.8839   -5.0674 H   0  0  0  0  0  0  0  0  0  0  0  0
   53.4794   76.1336   -5.8313 H   0  0  0  0  0  0  0  0  0  0  0  0
   54.2008   74.7397   -7.6091 H   0  0  0  0  0  0  0  0  0  0  0  0
   55.2136   76.2505   -7.6930 H   0  0  0  0  0  0  0  0  0  0  0  0
   56.4498   74.2226   -6.0279 H   0  0  0  0  0  0  0  0  0  0  0  0
   56.0836   73.6548   -7.7614 H   0  0  0  0  0  0  0  0  0  0  0  0
   58.4870   74.6307   -7.3218 H   0  0  0  0  0  0  0  0  0  0  0  0
   56.7231   76.7601   -8.6203 H   0  0  0  0  0  0  0  0  0  0  0  0
   59.6909   75.9760   -8.9101 H   0  0  0  0  0  0  0  0  0  0  0  0
   58.7553   77.1915   -9.8860 H   0  0  0  0  0  0  0  0  0  0  0  0
   60.3982   78.3271   -8.4675 H   0  0  0  0  0  0  0  0  0  0  0  0
   58.7189   78.7077   -7.9346 H   0  0  0  0  0  0  0  0  0  0  0  0
   60.8940   80.1090   -5.1270 H   0  0  0  0  0  0  0  0  0  0  0  0
   62.6190   78.7654   -2.8218 H   0  0  0  0  0  0  0  0  0  0  0  0
   61.6820   76.3390   -0.4900 H   0  0  0  0  0  0  0  0  0  0  0  0
   57.6307   76.1076   -4.5927 H   0  0  0  0  0  0  0  0  0  0  0  0
   57.8316   75.3631   -2.9358 H   0  0  0  0  0  0  0  0  0  0  0  0
  1  2  2  0
  2  3  1  0
  3  4  1  0
  4  5  1  0
  5  6  1  0
  6  7  1  0
  7  8  1  0
  8  9  2  0
  9 10  1  0
 10 11  1  0
 11 12  1  0
 12 13  1  0
 13 14  2  0
 13 15  1  0
 15 16  2  0
 16 17  1  0
 16 18  1  0
 18 19  2  0
 19 20  1  0
 19 21  1  0
 21 22  1  0
 21 23  2  0
 23 24  1  0
 24  2  1  0
 23 15  1  0
  3 25  1  0
  3 26  1  0
  4 27  1  0
  4 28  1  0
  5 29  1  0
  5 30  1  0
  6 31  1  0
  6 32  1  0
  7 33  1  0
  7 34  1  0
  8 35  1  0
  9 36  1  0
 10 37  1  0
 10 38  1  0
 11 39  1  0
 11 40  1  0
 17 41  1  0
 18 42  1  0
 20 43  1  0
 24 44  1  0
 24 45  1  0
M  END
>  <meeko>  (4) 
{"is_sidechain": [false], "free_energy": -4.863, "intermolecular_energy": -8.449, "internal_energy": -1.435}

$$$$
2iwx_ligand
     RDKit          3D

 45 46  0  0  0  0  0  0  0  0999 V2000
   57.3230   77.5780   -6.5580 O   0  0  0  0  0  0  0  0  0  0  0  0
   56.9810   76.4080   -6.7280 C   0  0  0  0  0  0  0  0  0  0  0  0
   57.2870   75.6620   -8.0220 C   0  0  0  0  0  0  0  0  0  0  0  0
   58.7770   75.3520   -8.1690 C   0  0  0  0  0  0  0  0  0  0  0  0
   59.5090   76.4740   -8.9130 C   0  0  0  0  0  0  0  0  0  0  0  0
   60.7720   76.9180   -8.1610 C   0  0  0  0  0  0  0  0  0  0  0  0
   60.6450   78.3310   -7.5770 C   0  0  0  0  0  0  0  0  0  0  0  0
   60.8010   78.4880   -6.0830 C   0  0  0  0  0  0  0  0  0  0  0  0
   60.9020   77.5070   -5.1700 C   0  0  0  0  0  0  0  0  0  0  0  0
   61.0140   77.7290   -3.6880 C   0  0  0  0  0  0  0  0  0  0  0  0
   60.0030   76.8950   -2.8960 C   0  0  0  0  0  0  0  0  0  0  0  0
   58.9820   76.3830   -3.7740 O   0  0  0  0  0  0  0  0  0  0  0  0
   57.9540   75.7610   -3.1590 C   0  0  0  0  0  0  0  0  0  0  0  0
   57.9670   74.6550   -2.6380 O   0  0  0  0  0  0  0  0  0  0  0  0
   56.6970   76.5250   -3.3080 C   0  0  0  0  0  0  0  0  0  0  0  0
   56.3670   77.3890   -2.2450 C   0  0  0  0  0  0  0  0  0  0  0  0
   57.1760   77.5840   -1.1540 O   0  0  0  0  0  0  0  0  0  0  0  0
   55.1820   78.1150   -2.2500 C   0  0  0  0  0  0  0  0  0  0  0  0
   54.3290   78.0130   -3.3430 C   0  0  0  0  0  0  0  0  0  0  0  0
   53.1650   78.7340   -3.3540 O   0  0  0  0  0  0  0  0  0  0  0  0
   54.6640   77.2010   -4.4390 C   0  0  0  0  0  0  0  0  0  0  0  0
   53.5800   77.1570   -5.7990 Cl  0  0  0  0  0  0  0  0  0  0  0  0
   55.8640   76.4510   -4.4480 C   0  0  0  0  0  0  0  0  0  0  0  0
   56.2310   75.6240   -5.6640 C   0  0  0  0  0  0  0  0  0  0  0  0
   56.7257   74.7160   -8.0272 H   0  0  0  0  0  0  0  0  0  0  0  0
   56.9907   76.3066   -8.8626 H   0  0  0  0  0  0  0  0  0  0  0  0
   59.2195   75.2375   -7.1684 H   0  0  0  0  0  0  0  0  0  0  0  0
   58.8826   74.4240   -8.7500 H   0  0  0  0  0  0  0  0  0  0  0  0
   59.7961   76.1126   -9.9115 H   0  0  0  0  0  0  0  0  0  0  0  0
   58.8313   77.3371   -8.9885 H   0  0  0  0  0  0  0  0  0  0  0  0
   60.9585   76.2122   -7.3382 H   0  0  0  0  0  0  0  0  0  0  0  0
   61.6025   76.9291   -8.8822 H   0  0  0  0  0  0  0  0  0  0  0  0
   61.4144   78.9549   -8.0553 H   0  0  0  0  0  0  0  0  0  0  0  0
   59.6047   78.6245   -7.7811 H   0  0  0  0  0  0  0  0  0  0  0  0
   60.8358   79.5186   -5.7001 H   0  0  0  0  0  0  0  0  0  0  0  0
   60.9027   76.4686   -5.5330 H   0  0  0  0  0  0  0  0  0  0  0  0
   62.0290   77.4542   -3.3651 H   0  0  0  0  0  0  0  0  0  0  0  0
   60.8023   78.7902   -3.4903 H   0  0  0  0  0  0  0  0  0  0  0  0
   60.5237   76.0538   -2.4151 H   0  0  0  0  0  0  0  0  0  0  0  0
   59.5326   77.5322   -2.1326 H   0  0  0  0  0  0  0  0  0  0  0  0
   58.0280   77.1170   -1.3000 H   0  0  0  0  0  0  0  0  0  0  0  0
   54.9222   78.7624   -1.3995 H   0  0  0  0  0  0  0  0  0  0  0  0
   52.6270   78.4940   -2.5820 H   0  0  0  0  0  0  0  0  0  0  0  0
   56.8652   74.7868   -5.3369 H   0  0  0  0  0  0  0  0  0  0  0  0
   55.2893   75.2822   -6.1183 H   0  0  0  0  0  0  0  0  0  0  0  0
  1  2  2  0
  2  3  1  0
  3  4  1  0
  4  5  1  0
  5  6  1  0
  6  7  1  0
  7  8  1  0
  8  9  2  0
  9 10  1  0
 10 11  1  0
 11 12  1  0
 12 13  1  0
 13 14  2  0
 13 15  1  0
 15 16  2  0
 16 17  1  0
 16 18  1  0
 18 19  2  0
 19 20  1  0
 19 21  1  0
 21 22  1  0
 21 23  2  0
 23 24  1  0
 24  2  1  0
 23 15  1  0
  3 25  1  0
  3 26  1  0
  4 27  1  0
  4 28  1  0
  5 29  1  0
  5 30  1  0
  6 31  1  0
  6 32  1  0
  7 33  1  0
  7 34  1  0
  8 35  1  0
  9 36  1  0
 10 37  1  0
 10 38  1  0
 11 39  1  0
 11 40  1  0
 17 41  1  0
 18 42  1  0
 20 43  1  0
 24 44  1  0
 24 45  1  0
M  END
>  <meeko>  (5) 
{"is_sidechain": [false], "free_energy": -4.815, "intermolecular_energy": -8.419, "internal_energy": -1.38}

$$$$
2iwx_ligand
     RDKit          3D

 45 46  0  0  0  0  0  0  0  0999 V2000
   56.4890   76.0760   -7.8360 O   0  0  0  0  0  0  0  0  0  0  0  0
   56.8640   76.3300   -6.6910 C   0  0  0  0  0  0  0  0  0  0  0  0
   57.8920   77.4190   -6.4050 C   0  0  0  0  0  0  0  0  0  0  0  0
   59.2610   77.0860   -6.9980 C   0  0  0  0  0  0  0  0  0  0  0  0
   59.9950   78.3540   -7.4500 C   0  0  0  0  0  0  0  0  0  0  0  0
   61.3750   78.4920   -6.7830 C   0  0  0  0  0  0  0  0  0  0  0  0
   61.3560   79.4100   -5.5530 C   0  0  0  0  0  0  0  0  0  0  0  0
   61.4460   78.7610   -4.1930 C   0  0  0  0  0  0  0  0  0  0  0  0
   61.4490   77.4450   -3.9200 C   0  0  0  0  0  0  0  0  0  0  0  0
   61.4980   76.8610   -2.5360 C   0  0  0  0  0  0  0  0  0  0  0  0
   60.2200   76.0950   -2.1820 C   0  0  0  0  0  0  0  0  0  0  0  0
   59.1230   76.5530   -2.9940 O   0  0  0  0  0  0  0  0  0  0  0  0
   58.0180   75.7780   -2.9570 C   0  0  0  0  0  0  0  0  0  0  0  0
   57.9760   74.5580   -2.8880 O   0  0  0  0  0  0  0  0  0  0  0  0
   56.7930   76.5780   -3.1660 C   0  0  0  0  0  0  0  0  0  0  0  0
   56.4780   77.5050   -2.1540 C   0  0  0  0  0  0  0  0  0  0  0  0
   57.2760   77.7260   -1.0600 O   0  0  0  0  0  0  0  0  0  0  0  0
   55.3200   78.2720   -2.2150 C   0  0  0  0  0  0  0  0  0  0  0  0
   54.4820   78.1470   -3.3170 C   0  0  0  0  0  0  0  0  0  0  0  0
   53.3450   78.9080   -3.3840 O   0  0  0  0  0  0  0  0  0  0  0  0
   54.8030   77.2690   -4.3650 C   0  0  0  0  0  0  0  0  0  0  0  0
   53.7410   77.1960   -5.7410 Cl  0  0  0  0  0  0  0  0  0  0  0  0
   55.9750   76.4770   -4.3160 C   0  0  0  0  0  0  0  0  0  0  0  0
   56.3310   75.5770   -5.4830 C   0  0  0  0  0  0  0  0  0  0  0  0
   57.5373   78.3649   -6.8402 H   0  0  0  0  0  0  0  0  0  0  0  0
   58.0056   77.5001   -5.3139 H   0  0  0  0  0  0  0  0  0  0  0  0
   59.8667   76.5736   -6.2360 H   0  0  0  0  0  0  0  0  0  0  0  0
   59.1117   76.4395   -7.8754 H   0  0  0  0  0  0  0  0  0  0  0  0
   60.1304   78.3158   -8.5410 H   0  0  0  0  0  0  0  0  0  0  0  0
   59.3870   79.2215   -7.1538 H   0  0  0  0  0  0  0  0  0  0  0  0
   61.7149   77.4936   -6.4704 H   0  0  0  0  0  0  0  0  0  0  0  0
   62.0541   78.9438   -7.5210 H   0  0  0  0  0  0  0  0  0  0  0  0
   62.2075   80.1004   -5.6448 H   0  0  0  0  0  0  0  0  0  0  0  0
   60.3619   79.8805   -5.5719 H   0  0  0  0  0  0  0  0  0  0  0  0
   61.5169   79.4399   -3.3304 H   0  0  0  0  0  0  0  0  0  0  0  0
   61.4131   76.7464   -4.7689 H   0  0  0  0  0  0  0  0  0  0  0  0
   62.3525   76.1712   -2.4733 H   0  0  0  0  0  0  0  0  0  0  0  0
   61.5996   77.6929   -1.8235 H   0  0  0  0  0  0  0  0  0  0  0  0
   60.3794   75.0212   -2.3594 H   0  0  0  0  0  0  0  0  0  0  0  0
   59.9793   76.2698   -1.1230 H   0  0  0  0  0  0  0  0  0  0  0  0
   58.0010   77.0640   -1.0540 H   0  0  0  0  0  0  0  0  0  0  0  0
   55.0701   78.9690   -1.4015 H   0  0  0  0  0  0  0  0  0  0  0  0
   52.5860   78.3410   -3.5980 H   0  0  0  0  0  0  0  0  0  0  0  0
   57.0998   74.8640   -5.1505 H   0  0  0  0  0  0  0  0  0  0  0  0
   55.4041   75.0755   -5.7984 H   0  0  0  0  0  0  0  0  0  0  0  0
  1  2  2  0
  2  3  1  0
  3  4  1  0
  4  5  1  0
  5  6  1  0
  6  7  1  0
  7  8  1  0
  8  9  2  0
  9 10  1  0
 10 11  1  0
 11 12  1  0
 12 13  1  0
 13 14  2  0
 13 15  1  0
 15 16  2  0
 16 17  1  0
 16 18  1  0
 18 19  2  0
 19 20  1  0
 19 21  1  0
 21 22  1  0
 21 23  2  0
 23 24  1  0
 24  2  1  0
 23 15  1  0
  3 25  1  0
  3 26  1  0
  4 27  1  0
  4 28  1  0
  5 29  1  0
  5 30  1  0
  6 31  1  0
  6 32  1  0
  7 33  1  0
  7 34  1  0
  8 35  1  0
  9 36  1  0
 10 37  1  0
 10 38  1  0
 11 39  1  0
 11 40  1  0
 17 41  1  0
 18 42  1  0
 20 43  1  0
 24 44  1  0
 24 45  1  0
M  END
>  <meeko>  (6) 
{"is_sidechain": [false], "free_energy": -4.798, "intermolecular_energy": -8.434, "internal_energy": -1.336}

$$$$
2iwx_ligand
     RDKit          3D

 45 46  0  0  0  0  0  0  0  0999 V2000
   56.2430   75.0430   -6.4530 O   0  0  0  0  0  0  0  0  0  0  0  0
   56.2750   76.1610   -5.9380 C   0  0  0  0  0  0  0  0  0  0  0  0
   55.0020   76.8930   -5.5270 C   0  0  0  0  0  0  0  0  0  0  0  0
   55.2990   78.1250   -4.6720 C   0  0  0  0  0  0  0  0  0  0  0  0
   54.2190   78.3350   -3.6040 C   0  0  0  0  0  0  0  0  0  0  0  0
   54.7890   78.1650   -2.1900 C   0  0  0  0  0  0  0  0  0  0  0  0
   55.0870   76.7010   -1.8410 C   0  0  0  0  0  0  0  0  0  0  0  0
   56.5190   76.3320   -1.5300 C   0  0  0  0  0  0  0  0  0  0  0  0
   57.6190   77.0570   -1.7940 C   0  0  0  0  0  0  0  0  0  0  0  0
   59.0240   76.6140   -1.4960 C   0  0  0  0  0  0  0  0  0  0  0  0
   59.9470   76.7500   -2.7110 C   0  0  0  0  0  0  0  0  0  0  0  0
   60.2370   75.4530   -3.2650 O   0  0  0  0  0  0  0  0  0  0  0  0
   59.2810   74.9440   -4.0700 C   0  0  0  0  0  0  0  0  0  0  0  0
   58.3590   74.2100   -3.7460 O   0  0  0  0  0  0  0  0  0  0  0  0
   59.5510   75.2570   -5.4900 C   0  0  0  0  0  0  0  0  0  0  0  0
   60.6070   74.5460   -6.0920 C   0  0  0  0  0  0  0  0  0  0  0  0
   61.3170   73.5640   -5.4480 O   0  0  0  0  0  0  0  0  0  0  0  0
   60.9870   74.7980   -7.4050 C   0  0  0  0  0  0  0  0  0  0  0  0
   60.2850   75.7410   -8.1450 C   0  0  0  0  0  0  0  0  0  0  0  0
   60.6520   75.9850   -9.4410 O   0  0  0  0  0  0  0  0  0  0  0  0
   59.1930   76.4240   -7.5830 C   0  0  0  0  0  0  0  0  0  0  0  0
   58.3220   77.5560   -8.5770 Cl  0  0  0  0  0  0  0  0  0  0  0  0
   58.7970   76.1840   -6.2460 C   0  0  0  0  0  0  0  0  0  0  0  0
   57.5820   76.8910   -5.6770 C   0  0  0  0  0  0  0  0  0  0  0  0
   54.4669   77.2110   -6.4339 H   0  0  0  0  0  0  0  0  0  0  0  0
   54.3923   76.2021   -4.9262 H   0  0  0  0  0  0  0  0  0  0  0  0
   56.2719   77.9913   -4.1764 H   0  0  0  0  0  0  0  0  0  0  0  0
   55.3148   79.0077   -5.3283 H   0  0  0  0  0  0  0  0  0  0  0  0
   53.8089   79.3507   -3.7047 H   0  0  0  0  0  0  0  0  0  0  0  0
   53.4332   77.5799   -3.7534 H   0  0  0  0  0  0  0  0  0  0  0  0
   55.7232   78.7411   -2.1161 H   0  0  0  0  0  0  0  0  0  0  0  0
   54.0295   78.5264   -1.4811 H   0  0  0  0  0  0  0  0  0  0  0  0
   54.4821   76.4435   -0.9590 H   0  0  0  0  0  0  0  0  0  0  0  0
   54.8479   76.1418   -2.7576 H   0  0  0  0  0  0  0  0  0  0  0  0
   56.6783   75.3637   -1.0330 H   0  0  0  0  0  0  0  0  0  0  0  0
   57.4817   78.0435   -2.2608 H   0  0  0  0  0  0  0  0  0  0  0  0
   59.4233   77.2311   -0.6777 H   0  0  0  0  0  0  0  0  0  0  0  0
   58.9893   75.5504   -1.2174 H   0  0  0  0  0  0  0  0  0  0  0  0
   59.4531   77.3688   -3.4747 H   0  0  0  0  0  0  0  0  0  0  0  0
   60.8884   77.2229   -2.3945 H   0  0  0  0  0  0  0  0  0  0  0  0
   60.7820   73.2200   -4.7010 H   0  0  0  0  0  0  0  0  0  0  0  0
   61.8337   74.2571   -7.8529 H   0  0  0  0  0  0  0  0  0  0  0  0
   60.1080   75.4480  -10.0400 H   0  0  0  0  0  0  0  0  0  0  0  0
   57.7144   76.9889   -4.5894 H   0  0  0  0  0  0  0  0  0  0  0  0
   57.5121   77.8669   -6.1797 H   0  0  0  0  0  0  0  0  0  0  0  0
  1  2  2  0
  2  3  1  0
  3  4  1  0
  4  5  1  0
  5  6  1  0
  6  7  1  0
  7  8  1  0
  8  9  2  0
  9 10  1  0
 10 11  1  0
 11 12  1  0
 12 13  1  0
 13 14  2  0
 13 15  1  0
 15 16  2  0
 16 17  1  0
 16 18  1  0
 18 19  2  0
 19 20  1  0
 19 21  1  0
 21 22  1  0
 21 23  2  0
 23 24  1  0
 24  2  1  0
 23 15  1  0
  3 25  1  0
  3 26  1  0
  4 27  1  0
  4 28  1  0
  5 29  1  0
  5 30  1  0
  6 31  1  0
  6 32  1  0
  7 33  1  0
  7 34  1  0
  8 35  1  0
  9 36  1  0
 10 37  1  0
 10 38  1  0
 11 39  1  0
 11 40  1  0
 17 41  1  0
 18 42  1  0
 20 43  1  0
 24 44  1  0
 24 45  1  0
M  END
>  <meeko>  (7) 
{"is_sidechain": [false], "free_energy": -4.599, "intermolecular_energy": -7.723, "internal_energy": -1.697}

$$$$
2iwx_ligand
     RDKit          3D

 45 46  0  0  0  0  0  0  0  0999 V2000
   58.0180   78.2960   -5.2970 O   0  0  0  0  0  0  0  0  0  0  0  0
   58.8110   77.5230   -5.8360 C   0  0  0  0  0  0  0  0  0  0  0  0
   58.3620   76.5230   -6.8960 C   0  0  0  0  0  0  0  0  0  0  0  0
   57.3080   75.5530   -6.3620 C   0  0  0  0  0  0  0  0  0  0  0  0
   55.8940   75.9940   -6.7570 C   0  0  0  0  0  0  0  0  0  0  0  0
   54.9240   75.9010   -5.5840 C   0  0  0  0  0  0  0  0  0  0  0  0
   54.7530   77.2270   -4.8310 C   0  0  0  0  0  0  0  0  0  0  0  0
   55.2460   77.2930   -3.4060 C   0  0  0  0  0  0  0  0  0  0  0  0
   56.1220   76.4650   -2.8110 C   0  0  0  0  0  0  0  0  0  0  0  0
   56.5420   76.5600   -1.3710 C   0  0  0  0  0  0  0  0  0  0  0  0
   58.0580   76.7170   -1.2160 C   0  0  0  0  0  0  0  0  0  0  0  0
   58.6420   77.1650   -2.4530 O   0  0  0  0  0  0  0  0  0  0  0  0
   59.9910   77.1990   -2.4730 C   0  0  0  0  0  0  0  0  0  0  0  0
   60.7140   78.0450   -1.9660 O   0  0  0  0  0  0  0  0  0  0  0  0
   60.5440   76.1330   -3.3360 C   0  0  0  0  0  0  0  0  0  0  0  0
   60.8650   74.9210   -2.6960 C   0  0  0  0  0  0  0  0  0  0  0  0
   60.6280   74.6860   -1.3650 O   0  0  0  0  0  0  0  0  0  0  0  0
   61.4440   73.8680   -3.3960 C   0  0  0  0  0  0  0  0  0  0  0  0
   61.6700   74.0060   -4.7600 C   0  0  0  0  0  0  0  0  0  0  0  0
   62.2320   72.9680   -5.4540 O   0  0  0  0  0  0  0  0  0  0  0  0
   61.3070   75.1850   -5.4310 C   0  0  0  0  0  0  0  0  0  0  0  0
   61.5690   75.2760   -7.1490 Cl  0  0  0  0  0  0  0  0  0  0  0  0
   60.7230   76.2690   -4.7330 C   0  0  0  0  0  0  0  0  0  0  0  0
   60.2890   77.5100   -5.4860 C   0  0  0  0  0  0  0  0  0  0  0  0
   57.9370   77.0752   -7.7471 H   0  0  0  0  0  0  0  0  0  0  0  0
   59.2403   75.9348   -7.2003 H   0  0  0  0  0  0  0  0  0  0  0  0
   57.4999   74.5520   -6.7758 H   0  0  0  0  0  0  0  0  0  0  0  0
   57.3734   75.5393   -5.2640 H   0  0  0  0  0  0  0  0  0  0  0  0
   55.9307   77.0362   -7.1071 H   0  0  0  0  0  0  0  0  0  0  0  0
   55.5356   75.3228   -7.5514 H   0  0  0  0  0  0  0  0  0  0  0  0
   53.9416   75.5880   -5.9673 H   0  0  0  0  0  0  0  0  0  0  0  0
   55.3422   75.1739   -4.8724 H   0  0  0  0  0  0  0  0  0  0  0  0
   55.2899   77.9999   -5.4005 H   0  0  0  0  0  0  0  0  0  0  0  0
   53.6644   77.3655   -4.7553 H   0  0  0  0  0  0  0  0  0  0  0  0
   54.8443   78.1082   -2.7863 H   0  0  0  0  0  0  0  0  0  0  0  0
   56.5621   75.6620   -3.4205 H   0  0  0  0  0  0  0  0  0  0  0  0
   56.0479   77.4307   -0.9152 H   0  0  0  0  0  0  0  0  0  0  0  0
   56.2482   75.6244   -0.8726 H   0  0  0  0  0  0  0  0  0  0  0  0
   58.2678   77.4546   -0.4274 H   0  0  0  0  0  0  0  0  0  0  0  0
   58.4932   75.7434   -0.9463 H   0  0  0  0  0  0  0  0  0  0  0  0
   59.7550   74.2480   -1.2680 H   0  0  0  0  0  0  0  0  0  0  0  0
   61.7194   72.9382   -2.8767 H   0  0  0  0  0  0  0  0  0  0  0  0
   63.1980   72.9930   -5.3530 H   0  0  0  0  0  0  0  0  0  0  0  0
   60.5063   78.3893   -4.8618 H   0  0  0  0  0  0  0  0  0  0  0  0
   60.8454   77.5227   -6.4348 H   0  0  0  0  0  0  0  0  0  0  0  0
  1  2  2  0
  2  3  1  0
  3  4  1  0
  4  5  1  0
  5  6  1  0
  6  7  1  0
  7  8  1  0
  8  9  2  0
  9 10  1  0
 10 11  1  0
 11 12  1  0
 12 13  1  0
 13 14  2  0
 13 15  1  0
 15 16  2  0
 16 17  1  0
 16 18  1  0
 18 19  2  0
 19 20  1  0
 19 21  1  0
 21 22  1  0
 21 23  2  0
 23 24  1  0
 24  2  1  0
 23 15  1  0
  3 25  1  0
  3 26  1  0
  4 27  1  0
  4 28  1  0
  5 29  1  0
  5 30  1  0
  6 31  1  0
  6 32  1  0
  7 33  1  0
  7 34  1  0
  8 35  1  0
  9 36  1  0
 10 37  1  0
 10 38  1  0
 11 39  1  0
 11 40  1  0
 17 41  1  0
 18 42  1  0
 20 43  1  0
 24 44  1  0
 24 45  1  0
M  END
>  <meeko>  (8) 
{"is_sidechain": [false], "free_energy": -4.54, "intermolecular_energy": -7.965, "internal_energy": -1.35}

$$$$
2iwx_ligand
     RDKit          3D

 45 46  0  0  0  0  0  0  0  0999 V2000
   57.5560   78.2610   -5.5690 O   0  0  0  0  0  0  0  0  0  0  0  0
   56.7300   77.3880   -5.3030 C   0  0  0  0  0  0  0  0  0  0  0  0
   55.2390   77.6930   -5.2140 C   0  0  0  0  0  0  0  0  0  0  0  0
   54.8980   78.5400   -3.9890 C   0  0  0  0  0  0  0  0  0  0  0  0
   54.6060   77.6620   -2.7670 C   0  0  0  0  0  0  0  0  0  0  0  0
   55.6360   77.8580   -1.6560 C   0  0  0  0  0  0  0  0  0  0  0  0
   56.5300   76.6290   -1.4400 C   0  0  0  0  0  0  0  0  0  0  0  0
   58.0250   76.8300   -1.5020 C   0  0  0  0  0  0  0  0  0  0  0  0
   58.9690   75.8780   -1.5870 C   0  0  0  0  0  0  0  0  0  0  0  0
   60.4490   76.1420   -1.6020 C   0  0  0  0  0  0  0  0  0  0  0  0
   61.0920   75.7760   -2.9430 C   0  0  0  0  0  0  0  0  0  0  0  0
   60.0780   75.4350   -3.9060 O   0  0  0  0  0  0  0  0  0  0  0  0
   60.1760   76.0700   -5.0940 C   0  0  0  0  0  0  0  0  0  0  0  0
   60.7260   77.1400   -5.3140 O   0  0  0  0  0  0  0  0  0  0  0  0
   59.3870   75.3830   -6.1380 C   0  0  0  0  0  0  0  0  0  0  0  0
   60.1250   74.7170   -7.1350 C   0  0  0  0  0  0  0  0  0  0  0  0
   61.4940   74.6330   -7.1290 O   0  0  0  0  0  0  0  0  0  0  0  0
   59.4900   74.0850   -8.1980 C   0  0  0  0  0  0  0  0  0  0  0  0
   58.1010   74.0790   -8.2520 C   0  0  0  0  0  0  0  0  0  0  0  0
   57.4740   73.4490   -9.2930 O   0  0  0  0  0  0  0  0  0  0  0  0
   57.3430   74.6890   -7.2390 C   0  0  0  0  0  0  0  0  0  0  0  0
   55.6080   74.6020   -7.3360 Cl  0  0  0  0  0  0  0  0  0  0  0  0
   57.9730   75.3420   -6.1530 C   0  0  0  0  0  0  0  0  0  0  0  0
   57.1360   75.9460   -5.0430 C   0  0  0  0  0  0  0  0  0  0  0  0
   54.9340   78.2390   -6.1189 H   0  0  0  0  0  0  0  0  0  0  0  0
   54.7023   76.7370   -5.1250 H   0  0  0  0  0  0  0  0  0  0  0  0
   55.7487   79.1991   -3.7613 H   0  0  0  0  0  0  0  0  0  0  0  0
   53.9975   79.1299   -4.2152 H   0  0  0  0  0  0  0  0  0  0  0  0
   53.6103   77.9187   -2.3762 H   0  0  0  0  0  0  0  0  0  0  0  0
   54.6515   76.6108   -3.0879 H   0  0  0  0  0  0  0  0  0  0  0  0
   56.2751   78.7141   -1.9182 H   0  0  0  0  0  0  0  0  0  0  0  0
   55.0818   78.0288   -0.7213 H   0  0  0  0  0  0  0  0  0  0  0  0
   56.2941   76.2216   -0.4458 H   0  0  0  0  0  0  0  0  0  0  0  0
   56.3027   75.9669   -2.2885 H   0  0  0  0  0  0  0  0  0  0  0  0
   58.3805   77.8706   -1.4745 H   0  0  0  0  0  0  0  0  0  0  0  0
   58.6356   74.8316   -1.6501 H   0  0  0  0  0  0  0  0  0  0  0  0
   60.6194   77.2113   -1.4083 H   0  0  0  0  0  0  0  0  0  0  0  0
   60.9103   75.5141   -0.8255 H   0  0  0  0  0  0  0  0  0  0  0  0
   61.6711   76.6344   -3.3142 H   0  0  0  0  0  0  0  0  0  0  0  0
   61.7540   74.9096   -2.7981 H   0  0  0  0  0  0  0  0  0  0  0  0
   61.7820   74.1600   -6.3190 H   0  0  0  0  0  0  0  0  0  0  0  0
   60.0797   73.5955   -8.9870 H   0  0  0  0  0  0  0  0  0  0  0  0
   57.0950   72.6090   -8.9850 H   0  0  0  0  0  0  0  0  0  0  0  0
   56.2232   75.3430   -4.9282 H   0  0  0  0  0  0  0  0  0  0  0  0
   57.7556   75.9441   -4.1341 H   0  0  0  0  0  0  0  0  0  0  0  0
  1  2  2  0
  2  3  1  0
  3  4  1  0
  4  5  1  0
  5  6  1  0
  6  7  1  0
  7  8  1  0
  8  9  2  0
  9 10  1  0
 10 11  1  0
 11 12  1  0
 12 13  1  0
 13 14  2  0
 13 15  1  0
 15 16  2  0
 16 17  1  0
 16 18  1  0
 18 19  2  0
 19 20  1  0
 19 21  1  0
 21 22  1  0
 21 23  2  0
 23 24  1  0
 24  2  1  0
 23 15  1  0
  3 25  1  0
  3 26  1  0
  4 27  1  0
  4 28  1  0
  5 29  1  0
  5 30  1  0
  6 31  1  0
  6 32  1  0
  7 33  1  0
  7 34  1  0
  8 35  1  0
  9 36  1  0
 10 37  1  0
 10 38  1  0
 11 39  1  0
 11 40  1  0
 17 41  1  0
 18 42  1  0
 20 43  1  0
 24 44  1  0
 24 45  1  0
M  END
>  <meeko>  (9) 
{"is_sidechain": [false], "free_energy": -4.387, "intermolecular_energy": -7.502, "internal_energy": -1.543}

$$$$
