3bv9_ligand
     RDKit          3D

 95 98  0  0  0  0  0  0  0  0999 V2000
   12.3580   12.0180   18.0380 C   0  0  0  0  0  0  0  0  0  0  0  0
   13.0870   13.1580   17.3880 C   0  0  0  0  0  0  0  0  0  0  0  0
   13.9810   12.9300   16.4720 N   0  0  0  0  0  0  0  0  0  0  0  0
   14.6040   14.0350   15.9340 C   0  0  0  0  0  0  0  0  0  0  0  0
   15.6100   14.5430   16.4230 O   0  0  0  0  0  0  0  0  0  0  0  0
   13.9820   14.5960   14.6310 C   0  0  2  0  0  0  0  0  0  0  0  0
   14.3310   13.6830   13.4540 C   0  0  0  0  0  0  0  0  0  0  0  0
   15.6140   14.2960   12.9000 C   0  0  0  0  0  0  0  0  0  0  0  0
   15.4020   15.7890   13.0820 C   0  0  0  0  0  0  0  0  0  0  0  0
   14.4840   15.9110   14.2030 N   0  0  0  0  0  0  0  0  0  0  0  0
   14.1720   17.1480   14.7210 C   0  0  0  0  0  0  0  0  0  0  0  0
   13.3590   17.2700   15.6460 O   0  0  0  0  0  0  0  0  0  0  0  0
   14.8770   18.3930   14.1240 C   0  0  2  0  0  0  0  0  0  0  0  0
   15.7840   19.1140   15.1160 C   0  0  0  0  0  0  0  0  0  0  0  0
   14.9010   20.1760   15.7700 C   0  0  2  0  0  0  0  0  0  0  0  0
   14.2880   19.6950   17.0880 C   0  0  0  0  0  0  0  0  0  0  0  0
   13.3570   20.7420   17.6940 C   0  0  0  0  0  0  0  0  0  0  0  0
   12.6020   21.5560   16.6460 C   0  0  0  0  0  0  0  0  0  0  0  0
   12.4730   20.8210   15.3150 C   0  0  0  0  0  0  0  0  0  0  0  0
   13.8450   20.5220   14.6970 C   0  0  2  0  0  0  0  0  0  0  0  0
   13.8740   19.3990   13.7390 N   0  0  0  0  0  0  0  0  0  0  0  0
   13.1710   19.1840   12.5790 C   0  0  0  0  0  0  0  0  0  0  0  0
   13.5800   19.6170   11.4910 O   0  0  0  0  0  0  0  0  0  0  0  0
   11.8640   18.3730   12.5720 C   0  0  2  0  0  0  0  0  0  0  0  0
   12.0280   17.1370   11.7200 N   0  0  0  0  0  0  0  0  0  0  0  0
   10.6430   19.1950   12.1100 C   0  0  0  0  0  0  0  0  0  0  0  0
   10.3360   19.3470   10.6380 C   0  0  0  0  0  0  0  0  0  0  0  0
    9.2980   18.8870    9.9270 C   0  0  0  0  0  0  0  0  0  0  0  0
    8.2870   18.0480   10.3280 N   0  0  0  0  0  0  0  0  0  0  0  0
    8.4050   16.7280   10.6460 C   0  0  0  0  0  0  0  0  0  0  0  0
    9.3730   15.9830   10.2540 N   0  0  0  0  0  0  0  0  0  0  0  0
    7.3670   16.2700   11.3750 N   0  0  0  0  0  0  0  0  0  0  0  0
   12.6950   14.5400   17.8820 C   0  0  0  0  0  0  0  0  0  0  0  0
   11.6260   15.0060   17.5230 O   0  0  0  0  0  0  0  0  0  0  0  0
   13.6260   15.1270   18.6960 N   0  0  0  0  0  0  0  0  0  0  0  0
   13.4530   16.4900   19.1910 C   0  0  1  0  0  0  0  0  0  0  0  0
   12.6170   16.5360   20.4800 C   0  0  0  0  0  0  0  0  0  0  0  0
   11.4920   17.5470   20.4690 C   0  0  0  0  0  0  0  0  0  0  0  0
   11.1800   18.2390   19.2900 C   0  0  0  0  0  0  0  0  0  0  0  0
   10.1420   19.1740   19.2680 C   0  0  0  0  0  0  0  0  0  0  0  0
    9.4000   19.4400   20.4230 C   0  0  0  0  0  0  0  0  0  0  0  0
    8.2590   20.4130   20.3890 C   0  0  0  0  0  0  0  0  0  0  0  0
    9.6950   18.7340   21.5930 C   0  0  0  0  0  0  0  0  0  0  0  0
   10.7310   17.7970   21.6170 C   0  0  0  0  0  0  0  0  0  0  0  0
   14.8570   17.0350   19.4910 C   0  0  0  0  0  0  0  0  0  0  0  0
   15.8340   16.7160   18.5950 N   0  0  0  0  0  0  0  0  0  0  0  0
   15.0940   17.7740   20.4460 O   0  0  0  0  0  0  0  0  0  0  0  0
   12.4219   12.1179   19.1316 H   0  0  0  0  0  0  0  0  0  0  0  0
   11.3023   12.0343   17.7293 H   0  0  0  0  0  0  0  0  0  0  0  0
   12.8156   11.0665   17.7293 H   0  0  0  0  0  0  0  0  0  0  0  0
   12.9113   14.6678   14.8726 H   0  0  0  0  0  0  0  0  0  0  0  0
   14.5025   12.6509   13.7937 H   0  0  0  0  0  0  0  0  0  0  0  0
   13.5270   13.6200   12.7059 H   0  0  0  0  0  0  0  0  0  0  0  0
   16.4911   13.9515   13.4675 H   0  0  0  0  0  0  0  0  0  0  0  0
   15.8056   14.0152   11.8538 H   0  0  0  0  0  0  0  0  0  0  0  0
   16.3553   16.2890   13.3082 H   0  0  0  0  0  0  0  0  0  0  0  0
   15.0037   16.2612   12.1718 H   0  0  0  0  0  0  0  0  0  0  0  0
   15.4678   18.0078   13.2798 H   0  0  0  0  0  0  0  0  0  0  0  0
   16.1650   18.4109   15.8714 H   0  0  0  0  0  0  0  0  0  0  0  0
   16.6618   19.5569   14.6227 H   0  0  0  0  0  0  0  0  0  0  0  0
   15.4749   21.0662   16.0668 H   0  0  0  0  0  0  0  0  0  0  0  0
   13.7151   18.7750   16.8997 H   0  0  0  0  0  0  0  0  0  0  0  0
   15.1065   19.5115   17.7996 H   0  0  0  0  0  0  0  0  0  0  0  0
   12.6233   20.2290   18.3331 H   0  0  0  0  0  0  0  0  0  0  0  0
   13.9829   21.4444   18.2640 H   0  0  0  0  0  0  0  0  0  0  0  0
   11.5936   21.7735   17.0278 H   0  0  0  0  0  0  0  0  0  0  0  0
   13.1738   22.4779   16.4640 H   0  0  0  0  0  0  0  0  0  0  0  0
   11.9426   19.8719   15.4818 H   0  0  0  0  0  0  0  0  0  0  0  0
   11.9167   21.4663   14.6193 H   0  0  0  0  0  0  0  0  0  0  0  0
   14.0714   21.4580   14.1654 H   0  0  0  0  0  0  0  0  0  0  0  0
   11.6619   18.0803   13.6129 H   0  0  0  0  0  0  0  0  0  0  0  0
   11.1860   16.5600   11.6520 H   0  0  0  0  0  0  0  0  0  0  0  0
   12.8250   16.5720   12.0380 H   0  0  0  0  0  0  0  0  0  0  0  0
   12.2730   17.4340   10.7570 H   0  0  0  0  0  0  0  0  0  0  0  0
    9.7580   18.7318   12.5708 H   0  0  0  0  0  0  0  0  0  0  0  0
   10.9024   20.2190   12.4167 H   0  0  0  0  0  0  0  0  0  0  0  0
   11.0769   19.9224   10.0636 H   0  0  0  0  0  0  0  0  0  0  0  0
    9.2487   19.2267    8.8819 H   0  0  0  0  0  0  0  0  0  0  0  0
    7.5520   18.5120   10.8610 H   0  0  0  0  0  0  0  0  0  0  0  0
    9.2690   15.0390   10.6340 H   0  0  0  0  0  0  0  0  0  0  0  0
    6.4620   16.7080   11.2200 H   0  0  0  0  0  0  0  0  0  0  0  0
    7.2990   15.2670   11.4870 H   0  0  0  0  0  0  0  0  0  0  0  0
   14.5790   14.7760   18.6900 H   0  0  0  0  0  0  0  0  0  0  0  0
   12.9213   17.0866   18.4351 H   0  0  0  0  0  0  0  0  0  0  0  0
   12.1802   15.5393   20.6406 H   0  0  0  0  0  0  0  0  0  0  0  0
   13.3024   16.8433   21.2836 H   0  0  0  0  0  0  0  0  0  0  0  0
   11.7576   18.0440   18.3744 H   0  0  0  0  0  0  0  0  0  0  0  0
    9.9065   19.7054   18.3341 H   0  0  0  0  0  0  0  0  0  0  0  0
    7.9622   20.6661   21.4175 H   0  0  0  0  0  0  0  0  0  0  0  0
    8.5718   21.3266   19.8623 H   0  0  0  0  0  0  0  0  0  0  0  0
    7.4062   19.9598   19.8623 H   0  0  0  0  0  0  0  0  0  0  0  0
    9.1058   18.9180   22.5035 H   0  0  0  0  0  0  0  0  0  0  0  0
   10.9506   17.2509   22.5462 H   0  0  0  0  0  0  0  0  0  0  0  0
   16.7750   17.0090   18.8360 H   0  0  0  0  0  0  0  0  0  0  0  0
   15.7520   15.9180   17.9790 H   0  0  0  0  0  0  0  0  0  0  0  0
  1  2  1  0
  2  3  2  0
  3  4  1  0
  4  5  2  0
  4  6  1  0
  6  7  1  0
  7  8  1  0
  8  9  1  0
  9 10  1  0
 10 11  1  0
 11 12  2  0
 11 13  1  0
 13 14  1  0
 14 15  1  0
 15 16  1  0
 16 17  1  0
 17 18  1  0
 18 19  1  0
 19 20  1  0
 20 21  1  0
 21 22  1  0
 22 23  2  0
 22 24  1  0
 24 25  1  0
 24 26  1  0
 26 27  1  0
 27 28  2  0
 28 29  1  0
 29 30  1  0
 30 31  2  3
 30 32  1  0
  2 33  1  0
 33 34  2  0
 33 35  1  0
 35 36  1  0
 36 37  1  0
 37 38  1  0
 38 39  2  0
 39 40  1  0
 40 41  2  0
 41 42  1  0
 41 43  1  0
 43 44  2  0
 36 45  1  0
 45 46  1  0
 45 47  2  0
 10  6  1  0
 21 13  1  0
 44 38  1  0
 20 15  1  0
  1 48  1  0
  1 49  1  0
  1 50  1  0
  6 51  1  1
  7 52  1  0
  7 53  1  0
  8 54  1  0
  8 55  1  0
  9 56  1  0
  9 57  1  0
 13 58  1  6
 14 59  1  0
 14 60  1  0
 15 61  1  1
 16 62  1  0
 16 63  1  0
 17 64  1  0
 17 65  1  0
 18 66  1  0
 18 67  1  0
 19 68  1  0
 19 69  1  0
 20 70  1  6
 24 71  1  1
 25 72  1  0
 25 73  1  0
 25 74  1  0
 26 75  1  0
 26 76  1  0
 27 77  1  0
 28 78  1  0
 29 79  1  0
 31 80  1  0
 32 81  1  0
 32 82  1  0
 35 83  1  0
 36 84  1  6
 37 85  1  0
 37 86  1  0
 39 87  1  0
 40 88  1  0
 42 89  1  0
 42 90  1  0
 42 91  1  0
 43 92  1  0
 44 93  1  0
 46 94  1  0
 46 95  1  0
M  CHG  1  25   1
M  END
>  <meeko>  (1) 
{"is_sidechain": [false], "free_energy": -8.985, "intermolecular_energy": -16.602, "internal_energy": -3.957}

$$$$
3bv9_ligand
     RDKit          3D

 95 98  0  0  0  0  0  0  0  0999 V2000
   16.8960   16.8640   18.5400 C   0  0  0  0  0  0  0  0  0  0  0  0
   15.9050   15.8690   18.0110 C   0  0  0  0  0  0  0  0  0  0  0  0
   16.1280   15.2520   16.8880 N   0  0  0  0  0  0  0  0  0  0  0  0
   15.1620   14.3600   16.4750 C   0  0  0  0  0  0  0  0  0  0  0  0
   14.8570   13.3570   17.1160 O   0  0  0  0  0  0  0  0  0  0  0  0
   14.4380   14.7100   15.1520 C   0  0  2  0  0  0  0  0  0  0  0  0
   14.8490   13.7220   14.0580 C   0  0  0  0  0  0  0  0  0  0  0  0
   16.0360   14.4100   13.3880 C   0  0  0  0  0  0  0  0  0  0  0  0
   15.6610   15.8810   13.4290 C   0  0  0  0  0  0  0  0  0  0  0  0
   14.7730   16.0190   14.5710 N   0  0  0  0  0  0  0  0  0  0  0  0
   14.3390   17.2620   14.9760 C   0  0  0  0  0  0  0  0  0  0  0  0
   13.3130   17.3950   15.6540 O   0  0  0  0  0  0  0  0  0  0  0  0
   15.1800   18.5010   14.5700 C   0  0  2  0  0  0  0  0  0  0  0  0
   15.9950   19.0870   15.7180 C   0  0  0  0  0  0  0  0  0  0  0  0
   15.0970   20.1510   16.3460 C   0  0  2  0  0  0  0  0  0  0  0  0
   14.2990   19.6160   17.5380 C   0  0  0  0  0  0  0  0  0  0  0  0
   13.3590   20.6720   18.1110 C   0  0  0  0  0  0  0  0  0  0  0  0
   12.7840   21.6080   17.0500 C   0  0  0  0  0  0  0  0  0  0  0  0
   12.7820   20.9820   15.6580 C   0  0  0  0  0  0  0  0  0  0  0  0
   14.2020   20.6430   15.1860 C   0  0  2  0  0  0  0  0  0  0  0  0
   14.2880   19.5940   14.1500 N   0  0  0  0  0  0  0  0  0  0  0  0
   13.7250   19.5100   12.9010 C   0  0  0  0  0  0  0  0  0  0  0  0
   14.3010   19.9710   11.9050 O   0  0  0  0  0  0  0  0  0  0  0  0
   12.3700   18.8170   12.6780 C   0  0  2  0  0  0  0  0  0  0  0  0
   12.5430   17.6280   11.7630 N   0  0  0  0  0  0  0  0  0  0  0  0
   11.2840   19.7690   12.1350 C   0  0  0  0  0  0  0  0  0  0  0  0
   10.9230   19.7600   10.6670 C   0  0  0  0  0  0  0  0  0  0  0  0
   10.0360   19.0050   10.0070 C   0  0  0  0  0  0  0  0  0  0  0  0
    9.2940   17.9460   10.4720 N   0  0  0  0  0  0  0  0  0  0  0  0
    7.9380   17.8960   10.5930 C   0  0  0  0  0  0  0  0  0  0  0  0
    7.1880   18.9340   10.6640 N   0  0  0  0  0  0  0  0  0  0  0  0
    7.4670   16.6350   10.6850 N   0  0  0  0  0  0  0  0  0  0  0  0
   14.6740   15.6620   18.8760 C   0  0  0  0  0  0  0  0  0  0  0  0
   14.8030   15.0990   19.9500 O   0  0  0  0  0  0  0  0  0  0  0  0
   13.5160   16.1410   18.3230 N   0  0  0  0  0  0  0  0  0  0  0  0
   12.2240   15.9490   18.9770 C   0  0  1  0  0  0  0  0  0  0  0  0
   11.1850   16.9860   18.5200 C   0  0  0  0  0  0  0  0  0  0  0  0
   11.0090   18.1620   19.4550 C   0  0  0  0  0  0  0  0  0  0  0  0
   10.0330   19.1330   19.1890 C   0  0  0  0  0  0  0  0  0  0  0  0
    9.8600   20.2210   20.0470 C   0  0  0  0  0  0  0  0  0  0  0  0
   10.6620   20.3650   21.1830 C   0  0  0  0  0  0  0  0  0  0  0  0
   10.4490   21.5120   22.1260 C   0  0  0  0  0  0  0  0  0  0  0  0
   11.6190   19.3860   21.4630 C   0  0  0  0  0  0  0  0  0  0  0  0
   11.7930   18.2940   20.6070 C   0  0  0  0  0  0  0  0  0  0  0  0
   11.7320   14.5490   18.5850 C   0  0  0  0  0  0  0  0  0  0  0  0
   11.7720   14.2420   17.2570 N   0  0  0  0  0  0  0  0  0  0  0  0
   11.3780   13.7110   19.4150 O   0  0  0  0  0  0  0  0  0  0  0  0
   16.8801   16.8481   19.6398 H   0  0  0  0  0  0  0  0  0  0  0  0
   17.9035   16.6028   18.1840 H   0  0  0  0  0  0  0  0  0  0  0  0
   16.6308   17.8704   18.1840 H   0  0  0  0  0  0  0  0  0  0  0  0
   13.3749   14.6898   15.4336 H   0  0  0  0  0  0  0  0  0  0  0  0
   15.1473   12.7561   14.4917 H   0  0  0  0  0  0  0  0  0  0  0  0
   14.0329   13.4938   13.3567 H   0  0  0  0  0  0  0  0  0  0  0  0
   16.9649   14.2251   13.9474 H   0  0  0  0  0  0  0  0  0  0  0  0
   16.2243   14.0437   12.3680 H   0  0  0  0  0  0  0  0  0  0  0  0
   16.5581   16.5037   13.5611 H   0  0  0  0  0  0  0  0  0  0  0  0
   15.1812   16.2079   12.4947 H   0  0  0  0  0  0  0  0  0  0  0  0
   15.8497   18.1428   13.7742 H   0  0  0  0  0  0  0  0  0  0  0  0
   16.2410   18.3070   16.4536 H   0  0  0  0  0  0  0  0  0  0  0  0
   16.9498   19.5085   15.3705 H   0  0  0  0  0  0  0  0  0  0  0  0
   15.6787   20.9771   16.7809 H   0  0  0  0  0  0  0  0  0  0  0  0
   13.7044   18.7511   17.2089 H   0  0  0  0  0  0  0  0  0  0  0  0
   15.0117   19.3296   18.3254 H   0  0  0  0  0  0  0  0  0  0  0  0
   12.5252   20.1610   18.6147 H   0  0  0  0  0  0  0  0  0  0  0  0
   13.9471   21.2893   18.8060 H   0  0  0  0  0  0  0  0  0  0  0  0
   11.7492   21.8598   17.3251 H   0  0  0  0  0  0  0  0  0  0  0  0
   13.4218   22.5035   17.0130 H   0  0  0  0  0  0  0  0  0  0  0  0
   12.1848   20.0586   15.6833 H   0  0  0  0  0  0  0  0  0  0  0  0
   12.3519   21.7106   14.9551 H   0  0  0  0  0  0  0  0  0  0  0  0
   14.5433   21.5996   14.7636 H   0  0  0  0  0  0  0  0  0  0  0  0
   12.0167   18.4774   13.6628 H   0  0  0  0  0  0  0  0  0  0  0  0
   12.0630   17.7170   10.8640 H   0  0  0  0  0  0  0  0  0  0  0  0
   12.2670   16.7580   12.2320 H   0  0  0  0  0  0  0  0  0  0  0  0
   13.5550   17.5180   11.5590 H   0  0  0  0  0  0  0  0  0  0  0  0
   10.3607   19.5428   12.6884 H   0  0  0  0  0  0  0  0  0  0  0  0
   11.7332   20.7634   12.2742 H   0  0  0  0  0  0  0  0  0  0  0  0
   11.4725   20.4836   10.0470 H   0  0  0  0  0  0  0  0  0  0  0  0
    9.8802   19.2678    8.9503 H   0  0  0  0  0  0  0  0  0  0  0  0
    9.7010   17.0350   10.2640 H   0  0  0  0  0  0  0  0  0  0  0  0
    6.2060   18.6570   10.7240 H   0  0  0  0  0  0  0  0  0  0  0  0
    8.0730   15.9440   11.1200 H   0  0  0  0  0  0  0  0  0  0  0  0
    6.4990   16.5310   10.9600 H   0  0  0  0  0  0  0  0  0  0  0  0
   13.4830   16.3230   17.3240 H   0  0  0  0  0  0  0  0  0  0  0  0
   12.3456   16.0644   20.0641 H   0  0  0  0  0  0  0  0  0  0  0  0
   11.4964   17.3728   17.5385 H   0  0  0  0  0  0  0  0  0  0  0  0
   10.2172   16.4638   18.4935 H   0  0  0  0  0  0  0  0  0  0  0  0
    9.3977   19.0368   18.2961 H   0  0  0  0  0  0  0  0  0  0  0  0
    9.0861   20.9712   19.8272 H   0  0  0  0  0  0  0  0  0  0  0  0
   10.5160   21.1514   23.1630 H   0  0  0  0  0  0  0  0  0  0  0  0
   11.2205   22.2768   21.9532 H   0  0  0  0  0  0  0  0  0  0  0  0
    9.4544   21.9489   21.9532 H   0  0  0  0  0  0  0  0  0  0  0  0
   12.2415   19.4752   22.3655 H   0  0  0  0  0  0  0  0  0  0  0  0
   12.5519   17.5328   20.8408 H   0  0  0  0  0  0  0  0  0  0  0  0
   11.3730   13.3480   16.9920 H   0  0  0  0  0  0  0  0  0  0  0  0
   11.7880   14.9610   16.5450 H   0  0  0  0  0  0  0  0  0  0  0  0
  1  2  1  0
  2  3  2  0
  3  4  1  0
  4  5  2  0
  4  6  1  0
  6  7  1  0
  7  8  1  0
  8  9  1  0
  9 10  1  0
 10 11  1  0
 11 12  2  0
 11 13  1  0
 13 14  1  0
 14 15  1  0
 15 16  1  0
 16 17  1  0
 17 18  1  0
 18 19  1  0
 19 20  1  0
 20 21  1  0
 21 22  1  0
 22 23  2  0
 22 24  1  0
 24 25  1  0
 24 26  1  0
 26 27  1  0
 27 28  2  0
 28 29  1  0
 29 30  1  0
 30 31  2  3
 30 32  1  0
  2 33  1  0
 33 34  2  0
 33 35  1  0
 35 36  1  0
 36 37  1  0
 37 38  1  0
 38 39  2  0
 39 40  1  0
 40 41  2  0
 41 42  1  0
 41 43  1  0
 43 44  2  0
 36 45  1  0
 45 46  1  0
 45 47  2  0
 10  6  1  0
 21 13  1  0
 44 38  1  0
 20 15  1  0
  1 48  1  0
  1 49  1  0
  1 50  1  0
  6 51  1  1
  7 52  1  0
  7 53  1  0
  8 54  1  0
  8 55  1  0
  9 56  1  0
  9 57  1  0
 13 58  1  6
 14 59  1  0
 14 60  1  0
 15 61  1  1
 16 62  1  0
 16 63  1  0
 17 64  1  0
 17 65  1  0
 18 66  1  0
 18 67  1  0
 19 68  1  0
 19 69  1  0
 20 70  1  6
 24 71  1  1
 25 72  1  0
 25 73  1  0
 25 74  1  0
 26 75  1  0
 26 76  1  0
 27 77  1  0
 28 78  1  0
 29 79  1  0
 31 80  1  0
 32 81  1  0
 32 82  1  0
 35 83  1  0
 36 84  1  1
 37 85  1  0
 37 86  1  0
 39 87  1  0
 40 88  1  0
 42 89  1  0
 42 90  1  0
 42 91  1  0
 43 92  1  0
 44 93  1  0
 46 94  1  0
 46 95  1  0
M  CHG  1  25   1
M  END
>  <meeko>  (2) 
{"is_sidechain": [false], "free_energy": -8.931, "intermolecular_energy": -16.485, "internal_energy": -3.973}

$$$$
3bv9_ligand
     RDKit          3D

 95 98  0  0  0  0  0  0  0  0999 V2000
   17.4920   19.1490   19.0060 C   0  0  0  0  0  0  0  0  0  0  0  0
   16.2520   18.8500   18.2160 C   0  0  0  0  0  0  0  0  0  0  0  0
   16.2700   18.9080   16.9160 N   0  0  0  0  0  0  0  0  0  0  0  0
   15.0860   18.6230   16.2720 C   0  0  0  0  0  0  0  0  0  0  0  0
   14.4620   17.5790   16.4450 O   0  0  0  0  0  0  0  0  0  0  0  0
   14.5470   19.7240   15.3250 C   0  0  2  0  0  0  0  0  0  0  0  0
   14.7570   21.1010   15.9590 C   0  0  0  0  0  0  0  0  0  0  0  0
   13.4510   21.3490   16.7070 C   0  0  0  0  0  0  0  0  0  0  0  0
   12.4010   20.7250   15.8040 C   0  0  0  0  0  0  0  0  0  0  0  0
   13.1000   19.6870   15.0660 N   0  0  0  0  0  0  0  0  0  0  0  0
   12.4100   18.8310   14.2370 C   0  0  0  0  0  0  0  0  0  0  0  0
   11.3000   18.3860   14.5540 O   0  0  0  0  0  0  0  0  0  0  0  0
   13.0550   18.4440   12.8800 C   0  0  2  0  0  0  0  0  0  0  0  0
   12.8240   19.4750   11.7800 C   0  0  0  0  0  0  0  0  0  0  0  0
   11.5470   19.0280   11.0720 C   0  0  2  0  0  0  0  0  0  0  0  0
   10.2990   19.7270   11.6200 C   0  0  0  0  0  0  0  0  0  0  0  0
    9.0250   19.2210   10.9480 C   0  0  0  0  0  0  0  0  0  0  0  0
    9.0840   17.7390   10.5820 C   0  0  0  0  0  0  0  0  0  0  0  0
   10.0850   16.9660   11.4350 C   0  0  0  0  0  0  0  0  0  0  0  0
   11.5140   17.4940   11.2530 C   0  0  2  0  0  0  0  0  0  0  0  0
   12.4390   17.2090   12.3680 N   0  0  0  0  0  0  0  0  0  0  0  0
   12.8230   16.0220   12.9410 C   0  0  0  0  0  0  0  0  0  0  0  0
   12.0730   15.4100   13.7160 O   0  0  0  0  0  0  0  0  0  0  0  0
   14.1880   15.3860   12.6280 C   0  0  2  0  0  0  0  0  0  0  0  0
   13.9970   13.9670   12.1460 N   0  0  0  0  0  0  0  0  0  0  0  0
   15.1660   15.4290   13.8200 C   0  0  0  0  0  0  0  0  0  0  0  0
   16.6590   15.3950   13.5880 C   0  0  0  0  0  0  0  0  0  0  0  0
   17.4530   14.3660   13.2660 C   0  0  0  0  0  0  0  0  0  0  0  0
   17.1360   13.0320   13.1760 N   0  0  0  0  0  0  0  0  0  0  0  0
   16.9870   12.3080   12.0310 C   0  0  0  0  0  0  0  0  0  0  0  0
   16.7360   12.8280   10.8850 N   0  0  0  0  0  0  0  0  0  0  0  0
   17.0780   10.9780   12.2360 N   0  0  0  0  0  0  0  0  0  0  0  0
   15.0310   18.4870   19.0420 C   0  0  0  0  0  0  0  0  0  0  0  0
   14.3160   19.3860   19.4530 O   0  0  0  0  0  0  0  0  0  0  0  0
   14.8730   17.1420   19.2450 N   0  0  0  0  0  0  0  0  0  0  0  0
   13.8030   16.6200   20.0900 C   0  0  1  0  0  0  0  0  0  0  0  0
   12.4890   16.4340   19.3120 C   0  0  0  0  0  0  0  0  0  0  0  0
   11.4280   17.4710   19.6040 C   0  0  0  0  0  0  0  0  0  0  0  0
   11.0400   18.3800   18.6090 C   0  0  0  0  0  0  0  0  0  0  0  0
   10.0590   19.3410   18.8660 C   0  0  0  0  0  0  0  0  0  0  0  0
    9.4520   19.4170   20.1230 C   0  0  0  0  0  0  0  0  0  0  0  0
    8.3700   20.4210   20.3870 C   0  0  0  0  0  0  0  0  0  0  0  0
    9.8200   18.4960   21.1090 C   0  0  0  0  0  0  0  0  0  0  0  0
   10.7990   17.5330   20.8530 C   0  0  0  0  0  0  0  0  0  0  0  0
   14.2710   15.2510   20.6060 C   0  0  0  0  0  0  0  0  0  0  0  0
   15.4660   15.2300   21.2640 N   0  0  0  0  0  0  0  0  0  0  0  0
   13.5910   14.2320   20.4990 O   0  0  0  0  0  0  0  0  0  0  0  0
   17.2642   19.0941   20.0807 H   0  0  0  0  0  0  0  0  0  0  0  0
   18.2710   18.4130   18.7582 H   0  0  0  0  0  0  0  0  0  0  0  0
   17.8499   20.1592   18.7582 H   0  0  0  0  0  0  0  0  0  0  0  0
   15.0965   19.5435   14.3893 H   0  0  0  0  0  0  0  0  0  0  0  0
   15.6113   21.0891   16.6519 H   0  0  0  0  0  0  0  0  0  0  0  0
   14.9839   21.8837   15.2202 H   0  0  0  0  0  0  0  0  0  0  0  0
   13.4632   20.8599   17.6922 H   0  0  0  0  0  0  0  0  0  0  0  0
   13.2667   22.4152   16.9052 H   0  0  0  0  0  0  0  0  0  0  0  0
   11.5866   20.2907   16.4025 H   0  0  0  0  0  0  0  0  0  0  0  0
   11.9420   21.4670   15.1341 H   0  0  0  0  0  0  0  0  0  0  0  0
   14.1302   18.3497   13.0921 H   0  0  0  0  0  0  0  0  0  0  0  0
   12.6940   20.4779   12.2128 H   0  0  0  0  0  0  0  0  0  0  0  0
   13.6772   19.5355   11.0883 H   0  0  0  0  0  0  0  0  0  0  0  0
   11.5468   19.3046   10.0073 H   0  0  0  0  0  0  0  0  0  0  0  0
   10.2306   19.5375   12.7014 H   0  0  0  0  0  0  0  0  0  0  0  0
   10.3909   20.8033   11.4124 H   0  0  0  0  0  0  0  0  0  0  0  0
    8.1812   19.3776   11.6361 H   0  0  0  0  0  0  0  0  0  0  0  0
    8.9047   19.7841   10.0107 H   0  0  0  0  0  0  0  0  0  0  0  0
    8.0855   17.3002   10.7252 H   0  0  0  0  0  0  0  0  0  0  0  0
    9.4112   17.6662    9.5343 H   0  0  0  0  0  0  0  0  0  0  0  0
    9.8013   17.0633   12.4933 H   0  0  0  0  0  0  0  0  0  0  0  0
   10.0656   15.9133   11.1164 H   0  0  0  0  0  0  0  0  0  0  0  0
   11.8502   16.9536   10.3558 H   0  0  0  0  0  0  0  0  0  0  0  0
   14.6483   15.9893   11.8316 H   0  0  0  0  0  0  0  0  0  0  0  0
   13.5000   13.8900   11.2550 H   0  0  0  0  0  0  0  0  0  0  0  0
   13.5390   13.3920   12.8630 H   0  0  0  0  0  0  0  0  0  0  0  0
   14.9330   13.5400   12.0110 H   0  0  0  0  0  0  0  0  0  0  0  0
   14.9533   16.3582   14.3689 H   0  0  0  0  0  0  0  0  0  0  0  0
   14.9733   14.4752   14.3330 H   0  0  0  0  0  0  0  0  0  0  0  0
   17.1710   16.3621   13.7007 H   0  0  0  0  0  0  0  0  0  0  0  0
   18.4992   14.6230   13.0437 H   0  0  0  0  0  0  0  0  0  0  0  0
   17.4940   12.4700   13.9480 H   0  0  0  0  0  0  0  0  0  0  0  0
   16.6930   12.0990   10.1690 H   0  0  0  0  0  0  0  0  0  0  0  0
   16.7710   10.6260   13.1400 H   0  0  0  0  0  0  0  0  0  0  0  0
   16.7960   10.3800   11.4710 H   0  0  0  0  0  0  0  0  0  0  0  0
   15.6680   16.5250   19.1060 H   0  0  0  0  0  0  0  0  0  0  0  0
   13.6035   17.3321   20.9043 H   0  0  0  0  0  0  0  0  0  0  0  0
   12.7191   16.4729   18.2370 H   0  0  0  0  0  0  0  0  0  0  0  0
   12.0736   15.4669   19.6317 H   0  0  0  0  0  0  0  0  0  0  0  0
   11.5126   18.3359   17.6167 H   0  0  0  0  0  0  0  0  0  0  0  0
    9.7620   20.0432   18.0731 H   0  0  0  0  0  0  0  0  0  0  0  0
    8.2393   20.5423   21.4724 H   0  0  0  0  0  0  0  0  0  0  0  0
    8.6494   21.3870   19.9411 H   0  0  0  0  0  0  0  0  0  0  0  0
    7.4276   20.0702   19.9411 H   0  0  0  0  0  0  0  0  0  0  0  0
    9.3340   18.5302   22.0952 H   0  0  0  0  0  0  0  0  0  0  0  0
   11.0782   16.8170   21.6400 H   0  0  0  0  0  0  0  0  0  0  0  0
   15.8110   14.3150   21.5330 H   0  0  0  0  0  0  0  0  0  0  0  0
   16.1580   15.9560   21.1350 H   0  0  0  0  0  0  0  0  0  0  0  0
  1  2  1  0
  2  3  2  0
  3  4  1  0
  4  5  2  0
  4  6  1  0
  6  7  1  0
  7  8  1  0
  8  9  1  0
  9 10  1  0
 10 11  1  0
 11 12  2  0
 11 13  1  0
 13 14  1  0
 14 15  1  0
 15 16  1  0
 16 17  1  0
 17 18  1  0
 18 19  1  0
 19 20  1  0
 20 21  1  0
 21 22  1  0
 22 23  2  0
 22 24  1  0
 24 25  1  0
 24 26  1  0
 26 27  1  0
 27 28  2  0
 28 29  1  0
 29 30  1  0
 30 31  2  3
 30 32  1  0
  2 33  1  0
 33 34  2  0
 33 35  1  0
 35 36  1  0
 36 37  1  0
 37 38  1  0
 38 39  2  0
 39 40  1  0
 40 41  2  0
 41 42  1  0
 41 43  1  0
 43 44  2  0
 36 45  1  0
 45 46  1  0
 45 47  2  0
 10  6  1  0
 21 13  1  0
 44 38  1  0
 20 15  1  0
  1 48  1  0
  1 49  1  0
  1 50  1  0
  6 51  1  6
  7 52  1  0
  7 53  1  0
  8 54  1  0
  8 55  1  0
  9 56  1  0
  9 57  1  0
 13 58  1  1
 14 59  1  0
 14 60  1  0
 15 61  1  6
 16 62  1  0
 16 63  1  0
 17 64  1  0
 17 65  1  0
 18 66  1  0
 18 67  1  0
 19 68  1  0
 19 69  1  0
 20 70  1  6
 24 71  1  6
 25 72  1  0
 25 73  1  0
 25 74  1  0
 26 75  1  0
 26 76  1  0
 27 77  1  0
 28 78  1  0
 29 79  1  0
 31 80  1  0
 32 81  1  0
 32 82  1  0
 35 83  1  0
 36 84  1  1
 37 85  1  0
 37 86  1  0
 39 87  1  0
 40 88  1  0
 42 89  1  0
 42 90  1  0
 42 91  1  0
 43 92  1  0
 44 93  1  0
 46 94  1  0
 46 95  1  0
M  CHG  1  25   1
M  END
>  <meeko>  (3) 
{"is_sidechain": [false], "free_energy": -8.759, "intermolecular_energy": -17.167, "internal_energy": -2.973}

$$$$
3bv9_ligand
     RDKit          3D

 95 98  0  0  0  0  0  0  0  0999 V2000
   17.5740   18.9460   18.9890 C   0  0  0  0  0  0  0  0  0  0  0  0
   16.2760   18.7680   18.2570 C   0  0  0  0  0  0  0  0  0  0  0  0
   16.2390   18.8350   16.9580 N   0  0  0  0  0  0  0  0  0  0  0  0
   15.0050   18.6660   16.3700 C   0  0  0  0  0  0  0  0  0  0  0  0
   14.2960   17.6820   16.5670 O   0  0  0  0  0  0  0  0  0  0  0  0
   14.5270   19.8200   15.4530 C   0  0  2  0  0  0  0  0  0  0  0  0
   14.7350   21.1620   16.1580 C   0  0  0  0  0  0  0  0  0  0  0  0
   13.4020   21.4010   16.8620 C   0  0  0  0  0  0  0  0  0  0  0  0
   12.3810   20.8400   15.8880 C   0  0  0  0  0  0  0  0  0  0  0  0
   13.0920   19.8220   15.1320 N   0  0  0  0  0  0  0  0  0  0  0  0
   12.4220   19.0190   14.2360 C   0  0  0  0  0  0  0  0  0  0  0  0
   11.3050   18.5570   14.4980 O   0  0  0  0  0  0  0  0  0  0  0  0
   13.1010   18.7130   12.8750 C   0  0  2  0  0  0  0  0  0  0  0  0
   12.7640   19.7260   11.7860 C   0  0  0  0  0  0  0  0  0  0  0  0
   11.5380   19.1580   11.0740 C   0  0  2  0  0  0  0  0  0  0  0  0
   10.2260   19.7200   11.6300 C   0  0  0  0  0  0  0  0  0  0  0  0
    9.0100   19.0930   10.9540 C   0  0  0  0  0  0  0  0  0  0  0  0
    9.2190   17.6290   10.5730 C   0  0  0  0  0  0  0  0  0  0  0  0
   10.2950   16.9530   11.4180 C   0  0  0  0  0  0  0  0  0  0  0  0
   11.6630   17.6270   11.2400 C   0  0  2  0  0  0  0  0  0  0  0  0
   12.6140   17.4270   12.3510 N   0  0  0  0  0  0  0  0  0  0  0  0
   13.1190   16.2800   12.9120 C   0  0  0  0  0  0  0  0  0  0  0  0
   12.4600   15.6220   13.7300 O   0  0  0  0  0  0  0  0  0  0  0  0
   14.5100   15.7460   12.5310 C   0  0  2  0  0  0  0  0  0  0  0  0
   14.3740   14.4500   11.7680 N   0  0  0  0  0  0  0  0  0  0  0  0
   15.4450   15.5690   13.7450 C   0  0  0  0  0  0  0  0  0  0  0  0
   15.8360   14.1860   14.2140 C   0  0  0  0  0  0  0  0  0  0  0  0
   15.1400   13.2960   14.9320 C   0  0  0  0  0  0  0  0  0  0  0  0
   13.9170   13.4490   15.5380 N   0  0  0  0  0  0  0  0  0  0  0  0
   13.6290   14.2640   16.5920 C   0  0  0  0  0  0  0  0  0  0  0  0
   14.5090   14.7060   17.4140 N   0  0  0  0  0  0  0  0  0  0  0  0
   12.3100   14.5170   16.7130 N   0  0  0  0  0  0  0  0  0  0  0  0
   15.0670   18.5120   19.1390 C   0  0  0  0  0  0  0  0  0  0  0  0
   14.3960   19.4650   19.5000 O   0  0  0  0  0  0  0  0  0  0  0  0
   14.8680   17.1920   19.4430 N   0  0  0  0  0  0  0  0  0  0  0  0
   13.8030   16.7730   20.3510 C   0  0  1  0  0  0  0  0  0  0  0  0
   12.4870   16.4910   19.6090 C   0  0  0  0  0  0  0  0  0  0  0  0
   11.4190   17.5470   19.7890 C   0  0  0  0  0  0  0  0  0  0  0  0
   10.7410   17.6610   21.0110 C   0  0  0  0  0  0  0  0  0  0  0  0
    9.7560   18.6340   21.1900 C   0  0  0  0  0  0  0  0  0  0  0  0
    9.4230   19.5080   20.1500 C   0  0  0  0  0  0  0  0  0  0  0  0
    8.3930   20.5790   20.3550 C   0  0  0  0  0  0  0  0  0  0  0  0
   10.1140   19.4110   18.9390 C   0  0  0  0  0  0  0  0  0  0  0  0
   11.1030   18.4400   18.7590 C   0  0  0  0  0  0  0  0  0  0  0  0
   14.2790   15.4780   21.0250 C   0  0  0  0  0  0  0  0  0  0  0  0
   13.8990   15.2950   22.3220 N   0  0  0  0  0  0  0  0  0  0  0  0
   14.9130   14.6090   20.4260 O   0  0  0  0  0  0  0  0  0  0  0  0
   17.3900   18.9208   20.0732 H   0  0  0  0  0  0  0  0  0  0  0  0
   18.2637   18.1340   18.7152 H   0  0  0  0  0  0  0  0  0  0  0  0
   18.0197   19.9137   18.7152 H   0  0  0  0  0  0  0  0  0  0  0  0
   15.1127   19.6727   14.5336 H   0  0  0  0  0  0  0  0  0  0  0  0
   15.5587   21.1016   16.8845 H   0  0  0  0  0  0  0  0  0  0  0  0
   15.0074   21.9730   15.4666 H   0  0  0  0  0  0  0  0  0  0  0  0
   13.3635   20.8669   17.8229 H   0  0  0  0  0  0  0  0  0  0  0  0
   13.2282   22.4603   17.1020 H   0  0  0  0  0  0  0  0  0  0  0  0
   11.5340   20.3955   16.4311 H   0  0  0  0  0  0  0  0  0  0  0  0
   11.9651   21.6209   15.2344 H   0  0  0  0  0  0  0  0  0  0  0  0
   14.1806   18.7265   13.0855 H   0  0  0  0  0  0  0  0  0  0  0  0
   12.5328   20.7059   12.2292 H   0  0  0  0  0  0  0  0  0  0  0  0
   13.6054   19.8805   11.0945 H   0  0  0  0  0  0  0  0  0  0  0  0
   11.5073   19.4438   10.0122 H   0  0  0  0  0  0  0  0  0  0  0  0
   10.1793   19.5137   12.7095 H   0  0  0  0  0  0  0  0  0  0  0  0
   10.2067   20.8021   11.4334 H   0  0  0  0  0  0  0  0  0  0  0  0
    8.1558   19.1557   11.6442 H   0  0  0  0  0  0  0  0  0  0  0  0
    8.8317   19.6500   10.0224 H   0  0  0  0  0  0  0  0  0  0  0  0
    8.2706   17.0895   10.7121 H   0  0  0  0  0  0  0  0  0  0  0  0
    9.5506   17.6006    9.5245 H   0  0  0  0  0  0  0  0  0  0  0  0
   10.0046   17.0101   12.4774 H   0  0  0  0  0  0  0  0  0  0  0  0
   10.3825   15.9069   11.0893 H   0  0  0  0  0  0  0  0  0  0  0  0
   12.0516   17.1331   10.3372 H   0  0  0  0  0  0  0  0  0  0  0  0
   14.9810   16.5049   11.8889 H   0  0  0  0  0  0  0  0  0  0  0  0
   14.0410   14.5610   10.8070 H   0  0  0  0  0  0  0  0  0  0  0  0
   13.7820   13.7820   12.2770 H   0  0  0  0  0  0  0  0  0  0  0  0
   15.3080   14.0010   11.7180 H   0  0  0  0  0  0  0  0  0  0  0  0
   16.3796   16.0963   13.5031 H   0  0  0  0  0  0  0  0  0  0  0  0
   14.8425   15.9538   14.5810 H   0  0  0  0  0  0  0  0  0  0  0  0
   16.8455   13.8619   13.9208 H   0  0  0  0  0  0  0  0  0  0  0  0
   15.6110   12.3093   15.0529 H   0  0  0  0  0  0  0  0  0  0  0  0
   13.1250   13.3380   14.9050 H   0  0  0  0  0  0  0  0  0  0  0  0
   14.0710   15.3190   18.1050 H   0  0  0  0  0  0  0  0  0  0  0  0
   11.6680   13.7920   16.4020 H   0  0  0  0  0  0  0  0  0  0  0  0
   12.0100   14.9580   17.5730 H   0  0  0  0  0  0  0  0  0  0  0  0
   15.6360   16.5370   19.3300 H   0  0  0  0  0  0  0  0  0  0  0  0
   13.6044   17.5775   21.0744 H   0  0  0  0  0  0  0  0  0  0  0  0
   12.7103   16.4096   18.5350 H   0  0  0  0  0  0  0  0  0  0  0  0
   12.0813   15.5635   20.0392 H   0  0  0  0  0  0  0  0  0  0  0  0
   10.9876   16.9772   21.8366 H   0  0  0  0  0  0  0  0  0  0  0  0
    9.2375   18.7140   22.1569 H   0  0  0  0  0  0  0  0  0  0  0  0
    8.2395   20.7386   21.4325 H   0  0  0  0  0  0  0  0  0  0  0  0
    8.7394   21.5145   19.8914 H   0  0  0  0  0  0  0  0  0  0  0  0
    7.4447   20.2693   19.8914 H   0  0  0  0  0  0  0  0  0  0  0  0
    9.8772   20.1056   18.1196 H   0  0  0  0  0  0  0  0  0  0  0  0
   11.6375   18.3772   17.7996 H   0  0  0  0  0  0  0  0  0  0  0  0
   14.2790   14.4800   22.7890 H   0  0  0  0  0  0  0  0  0  0  0  0
   13.6300   16.0720   22.9120 H   0  0  0  0  0  0  0  0  0  0  0  0
  1  2  1  0
  2  3  2  0
  3  4  1  0
  4  5  2  0
  4  6  1  0
  6  7  1  0
  7  8  1  0
  8  9  1  0
  9 10  1  0
 10 11  1  0
 11 12  2  0
 11 13  1  0
 13 14  1  0
 14 15  1  0
 15 16  1  0
 16 17  1  0
 17 18  1  0
 18 19  1  0
 19 20  1  0
 20 21  1  0
 21 22  1  0
 22 23  2  0
 22 24  1  0
 24 25  1  0
 24 26  1  0
 26 27  1  0
 27 28  2  0
 28 29  1  0
 29 30  1  0
 30 31  2  3
 30 32  1  0
  2 33  1  0
 33 34  2  0
 33 35  1  0
 35 36  1  0
 36 37  1  0
 37 38  1  0
 38 39  2  0
 39 40  1  0
 40 41  2  0
 41 42  1  0
 41 43  1  0
 43 44  2  0
 36 45  1  0
 45 46  1  0
 45 47  2  0
 10  6  1  0
 21 13  1  0
 44 38  1  0
 20 15  1  0
  1 48  1  0
  1 49  1  0
  1 50  1  0
  6 51  1  6
  7 52  1  0
  7 53  1  0
  8 54  1  0
  8 55  1  0
  9 56  1  0
  9 57  1  0
 13 58  1  1
 14 59  1  0
 14 60  1  0
 15 61  1  6
 16 62  1  0
 16 63  1  0
 17 64  1  0
 17 65  1  0
 18 66  1  0
 18 67  1  0
 19 68  1  0
 19 69  1  0
 20 70  1  6
 24 71  1  6
 25 72  1  0
 25 73  1  0
 25 74  1  0
 26 75  1  0
 26 76  1  0
 27 77  1  0
 28 78  1  0
 29 79  1  0
 31 80  1  0
 32 81  1  0
 32 82  1  0
 35 83  1  0
 36 84  1  1
 37 85  1  0
 37 86  1  0
 39 87  1  0
 40 88  1  0
 42 89  1  0
 42 90  1  0
 42 91  1  0
 43 92  1  0
 44 93  1  0
 46 94  1  0
 46 95  1  0
M  CHG  1  25   1
M  END
>  <meeko>  (4) 
{"is_sidechain": [false], "free_energy": -8.753, "intermolecular_energy": -15.648, "internal_energy": -4.481}

$$$$
3bv9_ligand
     RDKit          3D

 95 98  0  0  0  0  0  0  0  0999 V2000
   14.2180   12.9600   18.4560 C   0  0  0  0  0  0  0  0  0  0  0  0
   14.7350   14.2370   17.8590 C   0  0  0  0  0  0  0  0  0  0  0  0
   15.7780   14.2240   17.0820 N   0  0  0  0  0  0  0  0  0  0  0  0
   16.1860   15.4420   16.5830 C   0  0  0  0  0  0  0  0  0  0  0  0
   16.9780   16.1760   17.1670 O   0  0  0  0  0  0  0  0  0  0  0  0
   15.6120   15.8330   15.1980 C   0  0  2  0  0  0  0  0  0  0  0  0
   16.0680   14.8220   14.1440 C   0  0  0  0  0  0  0  0  0  0  0  0
   17.3500   15.4390   13.5930 C   0  0  0  0  0  0  0  0  0  0  0  0
   17.0600   16.9300   13.6050 C   0  0  0  0  0  0  0  0  0  0  0  0
   16.0770   17.1200   14.6590 N   0  0  0  0  0  0  0  0  0  0  0  0
   15.6800   18.3860   15.0270 C   0  0  0  0  0  0  0  0  0  0  0  0
   16.1300   18.9310   16.0430 O   0  0  0  0  0  0  0  0  0  0  0  0
   14.6580   19.1260   14.1250 C   0  0  2  0  0  0  0  0  0  0  0  0
   14.6620   20.6390   14.3130 C   0  0  0  0  0  0  0  0  0  0  0  0
   13.6100   20.9130   15.3870 C   0  0  2  0  0  0  0  0  0  0  0  0
   14.2170   21.0050   16.7900 C   0  0  0  0  0  0  0  0  0  0  0  0
   13.1460   21.2120   17.8570 C   0  0  0  0  0  0  0  0  0  0  0  0
   11.8310   20.5040   17.5390 C   0  0  0  0  0  0  0  0  0  0  0  0
   12.0180   19.3220   16.5930 C   0  0  0  0  0  0  0  0  0  0  0  0
   12.5890   19.7630   15.2380 C   0  0  2  0  0  0  0  0  0  0  0  0
   13.2900   18.7110   14.4760 N   0  0  0  0  0  0  0  0  0  0  0  0
   12.8640   17.4840   14.0300 C   0  0  0  0  0  0  0  0  0  0  0  0
   12.8070   16.5080   14.7940 O   0  0  0  0  0  0  0  0  0  0  0  0
   12.4130   17.2710   12.5760 C   0  0  2  0  0  0  0  0  0  0  0  0
   13.1620   16.1100   11.9670 N   0  0  0  0  0  0  0  0  0  0  0  0
   12.5650   18.5340   11.7030 C   0  0  0  0  0  0  0  0  0  0  0  0
   11.4880   19.5950   11.6980 C   0  0  0  0  0  0  0  0  0  0  0  0
   10.1690   19.4780   11.4960 C   0  0  0  0  0  0  0  0  0  0  0  0
    9.4540   18.3660   11.1220 N   0  0  0  0  0  0  0  0  0  0  0  0
    8.2020   18.3490   10.5840 C   0  0  0  0  0  0  0  0  0  0  0  0
    7.3600   19.3100   10.7030 N   0  0  0  0  0  0  0  0  0  0  0  0
    7.9180   17.1910    9.9530 N   0  0  0  0  0  0  0  0  0  0  0  0
   13.9560   15.4860   18.2320 C   0  0  0  0  0  0  0  0  0  0  0  0
   12.8480   15.6490   17.7490 O   0  0  0  0  0  0  0  0  0  0  0  0
   14.6170   16.3200   19.0930 N   0  0  0  0  0  0  0  0  0  0  0  0
   14.0540   17.6080   19.4890 C   0  0  1  0  0  0  0  0  0  0  0  0
   13.1420   17.4870   20.7210 C   0  0  0  0  0  0  0  0  0  0  0  0
   11.8340   18.2400   20.6170 C   0  0  0  0  0  0  0  0  0  0  0  0
   11.6450   19.4230   21.3450 C   0  0  0  0  0  0  0  0  0  0  0  0
   10.4420   20.1290   21.2560 C   0  0  0  0  0  0  0  0  0  0  0  0
    9.4040   19.6630   20.4430 C   0  0  0  0  0  0  0  0  0  0  0  0
    8.1280   20.4410   20.3160 C   0  0  0  0  0  0  0  0  0  0  0  0
    9.6000   18.4960   19.6990 C   0  0  0  0  0  0  0  0  0  0  0  0
   10.8030   17.7900   19.7850 C   0  0  0  0  0  0  0  0  0  0  0  0
   15.2370   18.5220   19.8370 C   0  0  0  0  0  0  0  0  0  0  0  0
   16.1480   18.7370   18.8450 N   0  0  0  0  0  0  0  0  0  0  0  0
   15.3420   19.0920   20.9230 O   0  0  0  0  0  0  0  0  0  0  0  0
   14.2465   13.0304   19.5534 H   0  0  0  0  0  0  0  0  0  0  0  0
   13.1819   12.7941   18.1260 H   0  0  0  0  0  0  0  0  0  0  0  0
   14.8469   12.1200   18.1260 H   0  0  0  0  0  0  0  0  0  0  0  0
   14.5273   15.8749   15.3759 H   0  0  0  0  0  0  0  0  0  0  0  0
   16.2677   13.8411   14.6000 H   0  0  0  0  0  0  0  0  0  0  0  0
   15.3106   14.6405   13.3672 H   0  0  0  0  0  0  0  0  0  0  0  0
   18.2094   15.2005   14.2369 H   0  0  0  0  0  0  0  0  0  0  0  0
   17.6117   15.0616   12.5935 H   0  0  0  0  0  0  0  0  0  0  0  0
   17.9754   17.4990   13.8245 H   0  0  0  0  0  0  0  0  0  0  0  0
   16.6914   17.2844   12.6311 H   0  0  0  0  0  0  0  0  0  0  0  0
   14.9502   18.8714   13.0956 H   0  0  0  0  0  0  0  0  0  0  0  0
   15.6521   20.9835   14.6463 H   0  0  0  0  0  0  0  0  0  0  0  0
   14.4400   21.1700   13.3756 H   0  0  0  0  0  0  0  0  0  0  0  0
   13.1288   21.8932   15.2543 H   0  0  0  0  0  0  0  0  0  0  0  0
   14.7591   20.0724   17.0055 H   0  0  0  0  0  0  0  0  0  0  0  0
   14.8955   21.8705   16.8135 H   0  0  0  0  0  0  0  0  0  0  0  0
   13.5275   20.8263   18.8139 H   0  0  0  0  0  0  0  0  0  0  0  0
   12.9331   22.2904   17.8997 H   0  0  0  0  0  0  0  0  0  0  0  0
   11.3913   20.1378   18.4785 H   0  0  0  0  0  0  0  0  0  0  0  0
   11.1724   21.2303   17.0403 H   0  0  0  0  0  0  0  0  0  0  0  0
   12.7104   18.6025   17.0543 H   0  0  0  0  0  0  0  0  0  0  0  0
   11.0331   18.8648   16.4172 H   0  0  0  0  0  0  0  0  0  0  0  0
   11.6846   20.0657   14.6899 H   0  0  0  0  0  0  0  0  0  0  0  0
   11.3373   17.0429   12.6042 H   0  0  0  0  0  0  0  0  0  0  0  0
   14.1810   16.2000   12.0090 H   0  0  0  0  0  0  0  0  0  0  0  0
   12.8570   15.9370   11.0020 H   0  0  0  0  0  0  0  0  0  0  0  0
   12.9100   15.2490   12.4900 H   0  0  0  0  0  0  0  0  0  0  0  0
   13.4939   19.0288   12.0228 H   0  0  0  0  0  0  0  0  0  0  0  0
   12.5247   18.1344   10.6789 H   0  0  0  0  0  0  0  0  0  0  0  0
   11.8414   20.6190   11.8894 H   0  0  0  0  0  0  0  0  0  0  0  0
    9.5799   20.3941   11.6500 H   0  0  0  0  0  0  0  0  0  0  0  0
   10.0330   17.5970   10.7850 H   0  0  0  0  0  0  0  0  0  0  0  0
    6.4990   19.0900   10.1980 H   0  0  0  0  0  0  0  0  0  0  0  0
    8.3630   16.3480   10.3090 H   0  0  0  0  0  0  0  0  0  0  0  0
    6.9520   17.0400    9.6940 H   0  0  0  0  0  0  0  0  0  0  0  0
   15.6240   16.2270   19.1970 H   0  0  0  0  0  0  0  0  0  0  0  0
   13.4416   18.0051   18.6660 H   0  0  0  0  0  0  0  0  0  0  0  0
   12.9128   16.4221   20.8741 H   0  0  0  0  0  0  0  0  0  0  0  0
   13.6930   17.9367   21.5602 H   0  0  0  0  0  0  0  0  0  0  0  0
   12.4509   19.7991   21.9923 H   0  0  0  0  0  0  0  0  0  0  0  0
   10.3107   21.0582   21.8298 H   0  0  0  0  0  0  0  0  0  0  0  0
    7.7411   20.6769   21.3183 H   0  0  0  0  0  0  0  0  0  0  0  0
    8.3211   21.3752   19.7683 H   0  0  0  0  0  0  0  0  0  0  0  0
    7.3860   19.8415   19.7683 H   0  0  0  0  0  0  0  0  0  0  0  0
    8.7995   18.1298   19.0394 H   0  0  0  0  0  0  0  0  0  0  0  0
   10.9405   16.8728   19.1936 H   0  0  0  0  0  0  0  0  0  0  0  0
   16.9690   19.2750   19.1000 H   0  0  0  0  0  0  0  0  0  0  0  0
   16.2490   18.0980   18.0680 H   0  0  0  0  0  0  0  0  0  0  0  0
  1  2  1  0
  2  3  2  0
  3  4  1  0
  4  5  2  0
  4  6  1  0
  6  7  1  0
  7  8  1  0
  8  9  1  0
  9 10  1  0
 10 11  1  0
 11 12  2  0
 11 13  1  0
 13 14  1  0
 14 15  1  0
 15 16  1  0
 16 17  1  0
 17 18  1  0
 18 19  1  0
 19 20  1  0
 20 21  1  0
 21 22  1  0
 22 23  2  0
 22 24  1  0
 24 25  1  0
 24 26  1  0
 26 27  1  0
 27 28  2  0
 28 29  1  0
 29 30  1  0
 30 31  2  3
 30 32  1  0
  2 33  1  0
 33 34  2  0
 33 35  1  0
 35 36  1  0
 36 37  1  0
 37 38  1  0
 38 39  2  0
 39 40  1  0
 40 41  2  0
 41 42  1  0
 41 43  1  0
 43 44  2  0
 36 45  1  0
 45 46  1  0
 45 47  2  0
 10  6  1  0
 21 13  1  0
 44 38  1  0
 20 15  1  0
  1 48  1  0
  1 49  1  0
  1 50  1  0
  6 51  1  1
  7 52  1  0
  7 53  1  0
  8 54  1  0
  8 55  1  0
  9 56  1  0
  9 57  1  0
 13 58  1  6
 14 59  1  0
 14 60  1  0
 15 61  1  6
 16 62  1  0
 16 63  1  0
 17 64  1  0
 17 65  1  0
 18 66  1  0
 18 67  1  0
 19 68  1  0
 19 69  1  0
 20 70  1  6
 24 71  1  1
 25 72  1  0
 25 73  1  0
 25 74  1  0
 26 75  1  0
 26 76  1  0
 27 77  1  0
 28 78  1  0
 29 79  1  0
 31 80  1  0
 32 81  1  0
 32 82  1  0
 35 83  1  0
 36 84  1  6
 37 85  1  0
 37 86  1  0
 39 87  1  0
 40 88  1  0
 42 89  1  0
 42 90  1  0
 42 91  1  0
 43 92  1  0
 44 93  1  0
 46 94  1  0
 46 95  1  0
M  CHG  1  25   1
M  END
>  <meeko>  (5) 
{"is_sidechain": [false], "free_energy": -8.711, "intermolecular_energy": -16.619, "internal_energy": -3.434}

$$$$
3bv9_ligand
     RDKit          3D

 95 98  0  0  0  0  0  0  0  0999 V2000
   18.1870   15.0100   19.3740 C   0  0  0  0  0  0  0  0  0  0  0  0
   17.4480   15.7310   18.2850 C   0  0  0  0  0  0  0  0  0  0  0  0
   17.7470   15.5210   17.0370 N   0  0  0  0  0  0  0  0  0  0  0  0
   17.0220   16.2300   16.1040 C   0  0  0  0  0  0  0  0  0  0  0  0
   17.3030   17.3760   15.7650 O   0  0  0  0  0  0  0  0  0  0  0  0
   15.8300   15.4790   15.4610 C   0  0  2  0  0  0  0  0  0  0  0  0
   16.3330   14.2300   14.7360 C   0  0  0  0  0  0  0  0  0  0  0  0
   16.5700   14.7190   13.3100 C   0  0  0  0  0  0  0  0  0  0  0  0
   15.4470   15.7170   13.0870 C   0  0  0  0  0  0  0  0  0  0  0  0
   15.1090   16.2150   14.4100 N   0  0  0  0  0  0  0  0  0  0  0  0
   14.2020   17.2400   14.5630 C   0  0  0  0  0  0  0  0  0  0  0  0
   13.3170   17.1910   15.4250 O   0  0  0  0  0  0  0  0  0  0  0  0
   14.3260   18.4730   13.6310 C   0  0  2  0  0  0  0  0  0  0  0  0
   15.4140   19.4530   14.0580 C   0  0  0  0  0  0  0  0  0  0  0  0
   14.7130   20.4610   14.9670 C   0  0  2  0  0  0  0  0  0  0  0  0
   14.8340   20.0950   16.4490 C   0  0  0  0  0  0  0  0  0  0  0  0
   14.0730   21.0740   17.3380 C   0  0  0  0  0  0  0  0  0  0  0  0
   12.7980   21.6110   16.6920 C   0  0  0  0  0  0  0  0  0  0  0  0
   12.2520   20.6790   15.6140 C   0  0  0  0  0  0  0  0  0  0  0  0
   13.2520   20.4930   14.4650 C   0  0  2  0  0  0  0  0  0  0  0  0
   13.0810   19.2580   13.6730 N   0  0  0  0  0  0  0  0  0  0  0  0
   12.0030   18.7780   12.9710 C   0  0  0  0  0  0  0  0  0  0  0  0
   11.2940   17.8680   13.4260 O   0  0  0  0  0  0  0  0  0  0  0  0
   11.6100   19.3650   11.6050 C   0  0  2  0  0  0  0  0  0  0  0  0
   12.8380   19.8810   10.8930 N   0  0  0  0  0  0  0  0  0  0  0  0
   10.5360   20.4680   11.7050 C   0  0  0  0  0  0  0  0  0  0  0  0
    9.1720   20.2650   11.0860 C   0  0  0  0  0  0  0  0  0  0  0  0
    8.5610   19.1350   10.7080 C   0  0  0  0  0  0  0  0  0  0  0  0
    9.0640   17.8570   10.6730 N   0  0  0  0  0  0  0  0  0  0  0  0
    8.3440   16.7020   10.6310 C   0  0  0  0  0  0  0  0  0  0  0  0
    7.1200   16.6090   11.0060 N   0  0  0  0  0  0  0  0  0  0  0  0
    9.0680   15.6480   10.2040 N   0  0  0  0  0  0  0  0  0  0  0  0
   16.3650   16.6840   18.7600 C   0  0  0  0  0  0  0  0  0  0  0  0
   16.6370   17.8670   18.8730 O   0  0  0  0  0  0  0  0  0  0  0  0
   15.1660   16.0780   19.0250 N   0  0  0  0  0  0  0  0  0  0  0  0
   14.0390   16.8270   19.5740 C   0  0  1  0  0  0  0  0  0  0  0  0
   13.1460   17.4210   18.4710 C   0  0  0  0  0  0  0  0  0  0  0  0
   11.9470   18.1920   18.9740 C   0  0  0  0  0  0  0  0  0  0  0  0
   12.1280   19.3710   19.7120 C   0  0  0  0  0  0  0  0  0  0  0  0
   11.0280   20.0940   20.1800 C   0  0  0  0  0  0  0  0  0  0  0  0
    9.7270   19.6500   19.9260 C   0  0  0  0  0  0  0  0  0  0  0  0
    8.5450   20.4470   20.3930 C   0  0  0  0  0  0  0  0  0  0  0  0
    9.5440   18.4880   19.1710 C   0  0  0  0  0  0  0  0  0  0  0  0
   10.6430   17.7650   18.7000 C   0  0  0  0  0  0  0  0  0  0  0  0
   13.2090   15.8370   20.4040 C   0  0  0  0  0  0  0  0  0  0  0  0
   13.0100   16.1630   21.7130 N   0  0  0  0  0  0  0  0  0  0  0  0
   12.6870   14.8340   19.9170 O   0  0  0  0  0  0  0  0  0  0  0  0
   17.8289   15.3594   20.3536 H   0  0  0  0  0  0  0  0  0  0  0  0
   18.0097   13.9282   19.2833 H   0  0  0  0  0  0  0  0  0  0  0  0
   19.2641   15.2139   19.2833 H   0  0  0  0  0  0  0  0  0  0  0  0
   15.1592   15.2936   16.3128 H   0  0  0  0  0  0  0  0  0  0  0  0
   17.2670   13.8630   15.1864 H   0  0  0  0  0  0  0  0  0  0  0  0
   15.6260   13.3890   14.7893 H   0  0  0  0  0  0  0  0  0  0  0  0
   17.5524   15.2055   13.2192 H   0  0  0  0  0  0  0  0  0  0  0  0
   16.5717   13.9035   12.5718 H   0  0  0  0  0  0  0  0  0  0  0  0
   15.7855   16.5399   12.4403 H   0  0  0  0  0  0  0  0  0  0  0  0
   14.5815   15.2562   12.5885 H   0  0  0  0  0  0  0  0  0  0  0  0
   14.5575   18.0580   12.6389 H   0  0  0  0  0  0  0  0  0  0  0  0
   16.2112   18.9292   14.6058 H   0  0  0  0  0  0  0  0  0  0  0  0
   15.8894   19.9405   13.1941 H   0  0  0  0  0  0  0  0  0  0  0  0
   15.1756   21.4575   14.9127 H   0  0  0  0  0  0  0  0  0  0  0  0
   14.4259   19.0849   16.6008 H   0  0  0  0  0  0  0  0  0  0  0  0
   15.8977   20.1372   16.7260 H   0  0  0  0  0  0  0  0  0  0  0  0
   13.8014   20.5593   18.2714 H   0  0  0  0  0  0  0  0  0  0  0  0
   14.7350   21.9342   17.5164 H   0  0  0  0  0  0  0  0  0  0  0  0
   12.0324   21.7348   17.4721 H   0  0  0  0  0  0  0  0  0  0  0  0
   13.0447   22.5694   16.2117 H   0  0  0  0  0  0  0  0  0  0  0  0
   12.0402   19.6981   16.0646 H   0  0  0  0  0  0  0  0  0  0  0  0
   11.3368   21.1296   15.2025 H   0  0  0  0  0  0  0  0  0  0  0  0
   13.0410   21.3647   13.8281 H   0  0  0  0  0  0  0  0  0  0  0  0
   11.1593   18.5483   11.0221 H   0  0  0  0  0  0  0  0  0  0  0  0
   12.7110   20.7910   10.4430 H   0  0  0  0  0  0  0  0  0  0  0  0
   13.1890   19.1930   10.2160 H   0  0  0  0  0  0  0  0  0  0  0  0
   13.5990   19.9890   11.5900 H   0  0  0  0  0  0  0  0  0  0  0  0
   10.3720   20.6527   12.7769 H   0  0  0  0  0  0  0  0  0  0  0  0
   10.9623   21.2854   11.1049 H   0  0  0  0  0  0  0  0  0  0  0  0
    8.5932   21.1857   10.9209 H   0  0  0  0  0  0  0  0  0  0  0  0
    7.5162   19.2447   10.3818 H   0  0  0  0  0  0  0  0  0  0  0  0
    9.9560   17.7780   10.1850 H   0  0  0  0  0  0  0  0  0  0  0  0
    6.7780   15.6560   10.8610 H   0  0  0  0  0  0  0  0  0  0  0  0
   10.0640   15.6540   10.4110 H   0  0  0  0  0  0  0  0  0  0  0  0
    8.6540   14.7320   10.3240 H   0  0  0  0  0  0  0  0  0  0  0  0
   15.1410   15.0720   19.1700 H   0  0  0  0  0  0  0  0  0  0  0  0
   14.4189   17.6664   20.1749 H   0  0  0  0  0  0  0  0  0  0  0  0
   13.7600   18.1015   17.8628 H   0  0  0  0  0  0  0  0  0  0  0  0
   12.7492   16.5683   17.9005 H   0  0  0  0  0  0  0  0  0  0  0  0
   13.1459   19.7298   19.9243 H   0  0  0  0  0  0  0  0  0  0  0  0
   11.1868   21.0196   20.7527 H   0  0  0  0  0  0  0  0  0  0  0  0
    8.5238   20.4613   21.4927 H   0  0  0  0  0  0  0  0  0  0  0  0
    8.6244   21.4767   20.0144 H   0  0  0  0  0  0  0  0  0  0  0  0
    7.6201   19.9874   20.0144 H   0  0  0  0  0  0  0  0  0  0  0  0
    8.5253   18.1395   18.9455 H   0  0  0  0  0  0  0  0  0  0  0  0
   10.4816   16.8518   18.1084 H   0  0  0  0  0  0  0  0  0  0  0  0
   12.5310   15.4700   22.2780 H   0  0  0  0  0  0  0  0  0  0  0  0
   13.6250   16.8000   22.2020 H   0  0  0  0  0  0  0  0  0  0  0  0
  1  2  1  0
  2  3  2  0
  3  4  1  0
  4  5  2  0
  4  6  1  0
  6  7  1  0
  7  8  1  0
  8  9  1  0
  9 10  1  0
 10 11  1  0
 11 12  2  0
 11 13  1  0
 13 14  1  0
 14 15  1  0
 15 16  1  0
 16 17  1  0
 17 18  1  0
 18 19  1  0
 19 20  1  0
 20 21  1  0
 21 22  1  0
 22 23  2  0
 22 24  1  0
 24 25  1  0
 24 26  1  0
 26 27  1  0
 27 28  2  0
 28 29  1  0
 29 30  1  0
 30 31  2  3
 30 32  1  0
  2 33  1  0
 33 34  2  0
 33 35  1  0
 35 36  1  0
 36 37  1  0
 37 38  1  0
 38 39  2  0
 39 40  1  0
 40 41  2  0
 41 42  1  0
 41 43  1  0
 43 44  2  0
 36 45  1  0
 45 46  1  0
 45 47  2  0
 10  6  1  0
 21 13  1  0
 44 38  1  0
 20 15  1  0
  1 48  1  0
  1 49  1  0
  1 50  1  0
  6 51  1  1
  7 52  1  0
  7 53  1  0
  8 54  1  0
  8 55  1  0
  9 56  1  0
  9 57  1  0
 13 58  1  6
 14 59  1  0
 14 60  1  0
 15 61  1  1
 16 62  1  0
 16 63  1  0
 17 64  1  0
 17 65  1  0
 18 66  1  0
 18 67  1  0
 19 68  1  0
 19 69  1  0
 20 70  1  6
 24 71  1  6
 25 72  1  0
 25 73  1  0
 25 74  1  0
 26 75  1  0
 26 76  1  0
 27 77  1  0
 28 78  1  0
 29 79  1  0
 31 80  1  0
 32 81  1  0
 32 82  1  0
 35 83  1  0
 36 84  1  1
 37 85  1  0
 37 86  1  0
 39 87  1  0
 40 88  1  0
 42 89  1  0
 42 90  1  0
 42 91  1  0
 43 92  1  0
 44 93  1  0
 46 94  1  0
 46 95  1  0
M  CHG  1  25   1
M  END
>  <meeko>  (6) 
{"is_sidechain": [false], "free_energy": -8.596, "intermolecular_energy": -16.982, "internal_energy": -2.858}

$$$$
3bv9_ligand
     RDKit          3D

 95 98  0  0  0  0  0  0  0  0999 V2000
   13.0900   21.5850   17.0230 C   0  0  0  0  0  0  0  0  0  0  0  0
   13.4490   20.4430   17.9290 C   0  0  0  0  0  0  0  0  0  0  0  0
   14.6920   20.0990   18.0920 N   0  0  0  0  0  0  0  0  0  0  0  0
   14.9300   19.0370   18.9370 C   0  0  0  0  0  0  0  0  0  0  0  0
   14.8640   19.1250   20.1600 O   0  0  0  0  0  0  0  0  0  0  0  0
   15.2570   17.6860   18.2530 C   0  0  2  0  0  0  0  0  0  0  0  0
   16.5020   17.0690   18.8920 C   0  0  0  0  0  0  0  0  0  0  0  0
   17.6420   17.5880   18.0200 C   0  0  0  0  0  0  0  0  0  0  0  0
   17.0400   17.6060   16.6250 C   0  0  0  0  0  0  0  0  0  0  0  0
   15.6100   17.7660   16.8270 N   0  0  0  0  0  0  0  0  0  0  0  0
   14.7670   17.9470   15.7540 C   0  0  0  0  0  0  0  0  0  0  0  0
   15.0800   18.6790   14.8070 O   0  0  0  0  0  0  0  0  0  0  0  0
   13.4090   17.1960   15.7530 C   0  0  2  0  0  0  0  0  0  0  0  0
   13.5500   15.6830   15.8800 C   0  0  0  0  0  0  0  0  0  0  0  0
   13.6120   15.1620   14.4450 C   0  0  2  0  0  0  0  0  0  0  0  0
   15.0490   14.9860   13.9480 C   0  0  0  0  0  0  0  0  0  0  0  0
   15.0930   14.5290   12.4920 C   0  0  0  0  0  0  0  0  0  0  0  0
   13.9600   15.1040   11.6460 C   0  0  0  0  0  0  0  0  0  0  0  0
   13.3990   16.4010   12.2220 C   0  0  0  0  0  0  0  0  0  0  0  0
   12.8040   16.1890   13.6210 C   0  0  2  0  0  0  0  0  0  0  0  0
   12.7280   17.3980   14.4640 N   0  0  0  0  0  0  0  0  0  0  0  0
   12.1110   18.6070   14.2550 C   0  0  0  0  0  0  0  0  0  0  0  0
   11.2970   19.0630   15.0710 O   0  0  0  0  0  0  0  0  0  0  0  0
   12.4230   19.4620   13.0150 C   0  0  2  0  0  0  0  0  0  0  0  0
   13.3580   20.5880   13.3870 N   0  0  0  0  0  0  0  0  0  0  0  0
   11.1580   20.0100   12.3220 C   0  0  0  0  0  0  0  0  0  0  0  0
   10.9030   19.7280   10.8590 C   0  0  0  0  0  0  0  0  0  0  0  0
   10.1990   18.7430   10.2860 C   0  0  0  0  0  0  0  0  0  0  0  0
    9.6130   17.6500   10.8780 N   0  0  0  0  0  0  0  0  0  0  0  0
    8.4200   17.0860   10.5390 C   0  0  0  0  0  0  0  0  0  0  0  0
    7.4950   17.7010    9.8970 N   0  0  0  0  0  0  0  0  0  0  0  0
    8.2890   15.8240   10.9960 N   0  0  0  0  0  0  0  0  0  0  0  0
   12.2730   19.7630   18.6080 C   0  0  0  0  0  0  0  0  0  0  0  0
   11.5120   19.0960   17.9260 O   0  0  0  0  0  0  0  0  0  0  0  0
   12.1970   19.9930   19.9550 N   0  0  0  0  0  0  0  0  0  0  0  0
   11.0820   19.4880   20.7520 C   0  0  1  0  0  0  0  0  0  0  0  0
   11.4650   18.2360   21.5570 C   0  0  0  0  0  0  0  0  0  0  0  0
   11.6370   16.9800   20.7310 C   0  0  0  0  0  0  0  0  0  0  0  0
   12.8420   16.2640   20.7820 C   0  0  0  0  0  0  0  0  0  0  0  0
   13.0110   15.1020   20.0260 C   0  0  0  0  0  0  0  0  0  0  0  0
   11.9840   14.6360   19.2000 C   0  0  0  0  0  0  0  0  0  0  0  0
   12.1500   13.3660   18.4190 C   0  0  0  0  0  0  0  0  0  0  0  0
   10.7740   15.3350   19.1660 C   0  0  0  0  0  0  0  0  0  0  0  0
   10.6010   16.4970   19.9230 C   0  0  0  0  0  0  0  0  0  0  0  0
   10.6930   20.6060   21.7300 C   0  0  0  0  0  0  0  0  0  0  0  0
    9.6820   20.3230   22.6020 N   0  0  0  0  0  0  0  0  0  0  0  0
   11.2910   21.6800   21.7860 O   0  0  0  0  0  0  0  0  0  0  0  0
   12.8146   22.4610   17.6287 H   0  0  0  0  0  0  0  0  0  0  0  0
   13.9530   21.8347   16.3882 H   0  0  0  0  0  0  0  0  0  0  0  0
   12.2394   21.2960   16.3882 H   0  0  0  0  0  0  0  0  0  0  0  0
   14.3280   17.1096   18.3742 H   0  0  0  0  0  0  0  0  0  0  0  0
   16.6180   17.4056   19.9328 H   0  0  0  0  0  0  0  0  0  0  0  0
   16.4618   15.9707   18.9370 H   0  0  0  0  0  0  0  0  0  0  0  0
   17.9460   18.5986   18.3303 H   0  0  0  0  0  0  0  0  0  0  0  0
   18.5494   16.9699   18.0876 H   0  0  0  0  0  0  0  0  0  0  0  0
   17.4433   18.4471   16.0420 H   0  0  0  0  0  0  0  0  0  0  0  0
   17.2752   16.6890   16.0648 H   0  0  0  0  0  0  0  0  0  0  0  0
   12.8590   17.6002   16.6157 H   0  0  0  0  0  0  0  0  0  0  0  0
   14.4713   15.4261   16.4233 H   0  0  0  0  0  0  0  0  0  0  0  0
   12.7150   15.2390   16.4418 H   0  0  0  0  0  0  0  0  0  0  0  0
   13.1865   14.1518   14.3530 H   0  0  0  0  0  0  0  0  0  0  0  0
   15.5764   15.9474   14.0356 H   0  0  0  0  0  0  0  0  0  0  0  0
   15.5317   14.2129   14.5639 H   0  0  0  0  0  0  0  0  0  0  0  0
   16.0512   14.8464   12.0549 H   0  0  0  0  0  0  0  0  0  0  0  0
   14.9795   13.4349   12.4896 H   0  0  0  0  0  0  0  0  0  0  0  0
   14.3421   15.3039   10.6341 H   0  0  0  0  0  0  0  0  0  0  0  0
   13.1453   14.3650   11.6327 H   0  0  0  0  0  0  0  0  0  0  0  0
   14.2093   17.1420   12.2876 H   0  0  0  0  0  0  0  0  0  0  0  0
   12.5964   16.7531   11.5573 H   0  0  0  0  0  0  0  0  0  0  0  0
   11.7855   15.8422   13.3920 H   0  0  0  0  0  0  0  0  0  0  0  0
   12.9120   18.8016   12.2838 H   0  0  0  0  0  0  0  0  0  0  0  0
   12.9990   21.5210   13.1680 H   0  0  0  0  0  0  0  0  0  0  0  0
   14.2850   20.4530   12.9660 H   0  0  0  0  0  0  0  0  0  0  0  0
   13.5170   20.5560   14.4120 H   0  0  0  0  0  0  0  0  0  0  0  0
   10.2962   19.6086   12.8754 H   0  0  0  0  0  0  0  0  0  0  0  0
   11.3168   21.0983   12.3407 H   0  0  0  0  0  0  0  0  0  0  0  0
   11.3656   20.4393   10.1590 H   0  0  0  0  0  0  0  0  0  0  0  0
   10.0731   18.8192    9.1959 H   0  0  0  0  0  0  0  0  0  0  0  0
   10.2800   16.9660   11.2330 H   0  0  0  0  0  0  0  0  0  0  0  0
    6.7040   17.0760    9.7320 H   0  0  0  0  0  0  0  0  0  0  0  0
    8.7670   15.5930   11.8640 H   0  0  0  0  0  0  0  0  0  0  0  0
    7.3650   15.4150   10.9420 H   0  0  0  0  0  0  0  0  0  0  0  0
   12.7040   20.7790   20.3520 H   0  0  0  0  0  0  0  0  0  0  0  0
   10.2559   19.2059   20.0827 H   0  0  0  0  0  0  0  0  0  0  0  0
   12.4146   18.4385   22.0740 H   0  0  0  0  0  0  0  0  0  0  0  0
   10.6293   18.0424   22.2456 H   0  0  0  0  0  0  0  0  0  0  0  0
   13.6613   16.6210   21.4233 H   0  0  0  0  0  0  0  0  0  0  0  0
   13.9602   14.5488   20.0810 H   0  0  0  0  0  0  0  0  0  0  0  0
   12.2606   12.5202   19.1136 H   0  0  0  0  0  0  0  0  0  0  0  0
   11.2650   13.2069   17.7854 H   0  0  0  0  0  0  0  0  0  0  0  0
   13.0462   13.4397   17.7854 H   0  0  0  0  0  0  0  0  0  0  0  0
    9.9499   14.9669   18.5373 H   0  0  0  0  0  0  0  0  0  0  0  0
    9.6431   17.0363   19.8836 H   0  0  0  0  0  0  0  0  0  0  0  0
    9.3740   21.0880   23.1920 H   0  0  0  0  0  0  0  0  0  0  0  0
    9.0070   19.5940   22.4140 H   0  0  0  0  0  0  0  0  0  0  0  0
  1  2  1  0
  2  3  2  0
  3  4  1  0
  4  5  2  0
  4  6  1  0
  6  7  1  0
  7  8  1  0
  8  9  1  0
  9 10  1  0
 10 11  1  0
 11 12  2  0
 11 13  1  0
 13 14  1  0
 14 15  1  0
 15 16  1  0
 16 17  1  0
 17 18  1  0
 18 19  1  0
 19 20  1  0
 20 21  1  0
 21 22  1  0
 22 23  2  0
 22 24  1  0
 24 25  1  0
 24 26  1  0
 26 27  1  0
 27 28  2  0
 28 29  1  0
 29 30  1  0
 30 31  2  3
 30 32  1  0
  2 33  1  0
 33 34  2  0
 33 35  1  0
 35 36  1  0
 36 37  1  0
 37 38  1  0
 38 39  2  0
 39 40  1  0
 40 41  2  0
 41 42  1  0
 41 43  1  0
 43 44  2  0
 36 45  1  0
 45 46  1  0
 45 47  2  0
 10  6  1  0
 21 13  1  0
 44 38  1  0
 20 15  1  0
  1 48  1  0
  1 49  1  0
  1 50  1  0
  6 51  1  6
  7 52  1  0
  7 53  1  0
  8 54  1  0
  8 55  1  0
  9 56  1  0
  9 57  1  0
 13 58  1  1
 14 59  1  0
 14 60  1  0
 15 61  1  1
 16 62  1  0
 16 63  1  0
 17 64  1  0
 17 65  1  0
 18 66  1  0
 18 67  1  0
 19 68  1  0
 19 69  1  0
 20 70  1  6
 24 71  1  6
 25 72  1  0
 25 73  1  0
 25 74  1  0
 26 75  1  0
 26 76  1  0
 27 77  1  0
 28 78  1  0
 29 79  1  0
 31 80  1  0
 32 81  1  0
 32 82  1  0
 35 83  1  0
 36 84  1  6
 37 85  1  0
 37 86  1  0
 39 87  1  0
 40 88  1  0
 42 89  1  0
 42 90  1  0
 42 91  1  0
 43 92  1  0
 44 93  1  0
 46 94  1  0
 46 95  1  0
M  CHG  1  25   1
M  END
>  <meeko>  (7) 
{"is_sidechain": [false], "free_energy": -8.494, "intermolecular_energy": -16.427, "internal_energy": -3.224}

$$$$
3bv9_ligand
     RDKit          3D

 95 98  0  0  0  0  0  0  0  0999 V2000
   16.5290   12.3690   16.6440 C   0  0  0  0  0  0  0  0  0  0  0  0
   15.5210   13.3840   16.1900 C   0  0  0  0  0  0  0  0  0  0  0  0
   15.1010   13.3880   14.9590 N   0  0  0  0  0  0  0  0  0  0  0  0
   14.1800   14.3590   14.6280 C   0  0  0  0  0  0  0  0  0  0  0  0
   12.9940   14.2920   14.9380 O   0  0  0  0  0  0  0  0  0  0  0  0
   14.7340   15.5840   13.8600 C   0  0  2  0  0  0  0  0  0  0  0  0
   15.8780   15.1480   12.9420 C   0  0  0  0  0  0  0  0  0  0  0  0
   17.1200   15.3470   13.8060 C   0  0  0  0  0  0  0  0  0  0  0  0
   16.7960   16.5950   14.6090 C   0  0  0  0  0  0  0  0  0  0  0  0
   15.3460   16.6320   14.6910 N   0  0  0  0  0  0  0  0  0  0  0  0
   14.7110   17.5780   15.4650 C   0  0  0  0  0  0  0  0  0  0  0  0
   13.7370   17.2840   16.1690 O   0  0  0  0  0  0  0  0  0  0  0  0
   15.2580   19.0300   15.4440 C   0  0  2  0  0  0  0  0  0  0  0  0
   15.9810   19.4270   16.7260 C   0  0  0  0  0  0  0  0  0  0  0  0
   14.9090   20.0570   17.6140 C   0  0  2  0  0  0  0  0  0  0  0  0
   14.2920   19.0500   18.5900 C   0  0  0  0  0  0  0  0  0  0  0  0
   13.1780   19.6780   19.4220 C   0  0  0  0  0  0  0  0  0  0  0  0
   12.3770   20.7320   18.6600 C   0  0  0  0  0  0  0  0  0  0  0  0
   12.4450   20.5380   17.1490 C   0  0  0  0  0  0  0  0  0  0  0  0
   13.8830   20.6540   16.6250 C   0  0  2  0  0  0  0  0  0  0  0  0
   14.1410   19.9820   15.3360 N   0  0  0  0  0  0  0  0  0  0  0  0
   13.5540   20.1360   14.1050 C   0  0  0  0  0  0  0  0  0  0  0  0
   14.2040   20.5420   13.1300 O   0  0  0  0  0  0  0  0  0  0  0  0
   12.0740   19.7870   13.8720 C   0  0  2  0  0  0  0  0  0  0  0  0
   11.7580   18.4440   14.4880 N   0  0  0  0  0  0  0  0  0  0  0  0
   11.6710   19.8120   12.3840 C   0  0  0  0  0  0  0  0  0  0  0  0
   11.4260   18.5220   11.6350 C   0  0  0  0  0  0  0  0  0  0  0  0
   10.4260   18.1870   10.8100 C   0  0  0  0  0  0  0  0  0  0  0  0
    9.2840   18.8920   10.5130 N   0  0  0  0  0  0  0  0  0  0  0  0
    8.0240   18.3860   10.3980 C   0  0  0  0  0  0  0  0  0  0  0  0
    7.7690   17.1510   10.1630 N   0  0  0  0  0  0  0  0  0  0  0  0
    7.0680   19.3320   10.5030 N   0  0  0  0  0  0  0  0  0  0  0  0
   15.0610   14.3600   17.2590 C   0  0  0  0  0  0  0  0  0  0  0  0
   15.8570   15.1800   17.6830 O   0  0  0  0  0  0  0  0  0  0  0  0
   13.7570   14.1920   17.6420 N   0  0  0  0  0  0  0  0  0  0  0  0
   13.1730   14.9860   18.7200 C   0  0  1  0  0  0  0  0  0  0  0  0
   11.6380   15.0260   18.6430 C   0  0  0  0  0  0  0  0  0  0  0  0
   11.0070   16.2720   19.2230 C   0  0  0  0  0  0  0  0  0  0  0  0
   10.3110   17.1610   18.3910 C   0  0  0  0  0  0  0  0  0  0  0  0
    9.7220   18.3140   18.9150 C   0  0  0  0  0  0  0  0  0  0  0  0
    9.8220   18.6050   20.2790 C   0  0  0  0  0  0  0  0  0  0  0  0
    9.1550   19.8210   20.8490 C   0  0  0  0  0  0  0  0  0  0  0  0
   10.4950   17.7080   21.1140 C   0  0  0  0  0  0  0  0  0  0  0  0
   11.0820   16.5530   20.5920 C   0  0  0  0  0  0  0  0  0  0  0  0
   13.5850   14.3150   20.0390 C   0  0  0  0  0  0  0  0  0  0  0  0
   14.6720   14.8440   20.6720 N   0  0  0  0  0  0  0  0  0  0  0  0
   12.9460   13.3940   20.5460 O   0  0  0  0  0  0  0  0  0  0  0  0
   16.5542   12.3436   17.7434 H   0  0  0  0  0  0  0  0  0  0  0  0
   16.2485   11.3768   16.2607 H   0  0  0  0  0  0  0  0  0  0  0  0
   17.5231   12.6426   16.2607 H   0  0  0  0  0  0  0  0  0  0  0  0
   13.8450   15.9851   13.3513 H   0  0  0  0  0  0  0  0  0  0  0  0
   15.7673   14.0936   12.6487 H   0  0  0  0  0  0  0  0  0  0  0  0
   15.9139   15.7163   12.0009 H   0  0  0  0  0  0  0  0  0  0  0  0
   17.2807   14.4837   14.4685 H   0  0  0  0  0  0  0  0  0  0  0  0
   18.0424   15.4450   13.2148 H   0  0  0  0  0  0  0  0  0  0  0  0
   17.2373   16.5316   15.6146 H   0  0  0  0  0  0  0  0  0  0  0  0
   17.2036   17.5023   14.1393 H   0  0  0  0  0  0  0  0  0  0  0  0
   15.9531   19.0610   14.5920 H   0  0  0  0  0  0  0  0  0  0  0  0
   16.4143   18.5416   17.2141 H   0  0  0  0  0  0  0  0  0  0  0  0
   16.8119   20.1209   16.5306 H   0  0  0  0  0  0  0  0  0  0  0  0
   15.3230   20.8315   18.2763 H   0  0  0  0  0  0  0  0  0  0  0  0
   13.8771   18.2073   18.0174 H   0  0  0  0  0  0  0  0  0  0  0  0
   15.0818   18.7105   19.2762 H   0  0  0  0  0  0  0  0  0  0  0  0
   12.4906   18.8816   19.7433 H   0  0  0  0  0  0  0  0  0  0  0  0
   13.6536   20.1836   20.2754 H   0  0  0  0  0  0  0  0  0  0  0  0
   11.3251   20.6724   18.9763 H   0  0  0  0  0  0  0  0  0  0  0  0
   12.8138   21.7149   18.8906 H   0  0  0  0  0  0  0  0  0  0  0  0
   12.0544   19.5403   16.8999 H   0  0  0  0  0  0  0  0  0  0  0  0
   11.8430   21.3272   16.6749 H   0  0  0  0  0  0  0  0  0  0  0  0
   13.9992   21.7403   16.4966 H   0  0  0  0  0  0  0  0  0  0  0  0
   11.4781   20.5698   14.3641 H   0  0  0  0  0  0  0  0  0  0  0  0
   10.9620   17.9640   14.0610 H   0  0  0  0  0  0  0  0  0  0  0  0
   11.6270   18.5250   15.5030 H   0  0  0  0  0  0  0  0  0  0  0  0
   12.5850   17.8280   14.3690 H   0  0  0  0  0  0  0  0  0  0  0  0
   10.7411   20.3960   12.3188 H   0  0  0  0  0  0  0  0  0  0  0  0
   12.5666   20.2185   11.8914 H   0  0  0  0  0  0  0  0  0  0  0  0
   12.1839   17.7402   11.7914 H   0  0  0  0  0  0  0  0  0  0  0  0
   10.5327   17.2174   10.3016 H   0  0  0  0  0  0  0  0  0  0  0  0
    9.2880   19.8500   10.8630 H   0  0  0  0  0  0  0  0  0  0  0  0
    6.7590   16.9960   10.1450 H   0  0  0  0  0  0  0  0  0  0  0  0
    7.3040   20.2680   10.1820 H   0  0  0  0  0  0  0  0  0  0  0  0
    6.1290   19.0590   10.2440 H   0  0  0  0  0  0  0  0  0  0  0  0
   13.2890   13.3140   17.4370 H   0  0  0  0  0  0  0  0  0  0  0  0
   13.5320   16.0229   18.6434 H   0  0  0  0  0  0  0  0  0  0  0  0
   11.3463   14.9554   17.5847 H   0  0  0  0  0  0  0  0  0  0  0  0
   11.2751   14.1834   19.2499 H   0  0  0  0  0  0  0  0  0  0  0  0
   10.2281   16.9481   17.3150 H   0  0  0  0  0  0  0  0  0  0  0  0
    9.1753   18.9983   18.2496 H   0  0  0  0  0  0  0  0  0  0  0  0
    9.1815   19.7727   21.9476 H   0  0  0  0  0  0  0  0  0  0  0  0
    9.6846   20.7231   20.5088 H   0  0  0  0  0  0  0  0  0  0  0  0
    8.1096   19.8592   20.5088 H   0  0  0  0  0  0  0  0  0  0  0  0
   10.5629   17.9138   22.1924 H   0  0  0  0  0  0  0  0  0  0  0  0
   11.6080   15.8580   21.2630 H   0  0  0  0  0  0  0  0  0  0  0  0
   14.9900   14.3510   21.5000 H   0  0  0  0  0  0  0  0  0  0  0  0
   15.3620   15.3910   20.1770 H   0  0  0  0  0  0  0  0  0  0  0  0
  1  2  1  0
  2  3  2  0
  3  4  1  0
  4  5  2  0
  4  6  1  0
  6  7  1  0
  7  8  1  0
  8  9  1  0
  9 10  1  0
 10 11  1  0
 11 12  2  0
 11 13  1  0
 13 14  1  0
 14 15  1  0
 15 16  1  0
 16 17  1  0
 17 18  1  0
 18 19  1  0
 19 20  1  0
 20 21  1  0
 21 22  1  0
 22 23  2  0
 22 24  1  0
 24 25  1  0
 24 26  1  0
 26 27  1  0
 27 28  2  0
 28 29  1  0
 29 30  1  0
 30 31  2  3
 30 32  1  0
  2 33  1  0
 33 34  2  0
 33 35  1  0
 35 36  1  0
 36 37  1  0
 37 38  1  0
 38 39  2  0
 39 40  1  0
 40 41  2  0
 41 42  1  0
 41 43  1  0
 43 44  2  0
 36 45  1  0
 45 46  1  0
 45 47  2  0
 10  6  1  0
 21 13  1  0
 44 38  1  0
 20 15  1  0
  1 48  1  0
  1 49  1  0
  1 50  1  0
  6 51  1  6
  7 52  1  0
  7 53  1  0
  8 54  1  0
  8 55  1  0
  9 56  1  0
  9 57  1  0
 13 58  1  6
 14 59  1  0
 14 60  1  0
 15 61  1  1
 16 62  1  0
 16 63  1  0
 17 64  1  0
 17 65  1  0
 18 66  1  0
 18 67  1  0
 19 68  1  0
 19 69  1  0
 20 70  1  6
 24 71  1  1
 25 72  1  0
 25 73  1  0
 25 74  1  0
 26 75  1  0
 26 76  1  0
 27 77  1  0
 28 78  1  0
 29 79  1  0
 31 80  1  0
 32 81  1  0
 32 82  1  0
 35 83  1  0
 36 84  1  1
 37 85  1  0
 37 86  1  0
 39 87  1  0
 40 88  1  0
 42 89  1  0
 42 90  1  0
 42 91  1  0
 43 92  1  0
 44 93  1  0
 46 94  1  0
 46 95  1  0
M  CHG  1  25   1
M  END
>  <meeko>  (8) 
{"is_sidechain": [false], "free_energy": -8.329, "intermolecular_energy": -15.811, "internal_energy": -3.535}

$$$$
3bv9_ligand
     RDKit          3D

 95 98  0  0  0  0  0  0  0  0999 V2000
   16.2770   15.7700   16.3720 C   0  0  0  0  0  0  0  0  0  0  0  0
   15.6200   17.0060   16.9120 C   0  0  0  0  0  0  0  0  0  0  0  0
   15.9250   18.1760   16.4320 N   0  0  0  0  0  0  0  0  0  0  0  0
   15.2780   19.2570   16.9890 C   0  0  0  0  0  0  0  0  0  0  0  0
   15.1790   19.4270   18.2020 O   0  0  0  0  0  0  0  0  0  0  0  0
   14.7000   20.2900   15.9910 C   0  0  2  0  0  0  0  0  0  0  0  0
   14.7200   21.6850   16.6180 C   0  0  0  0  0  0  0  0  0  0  0  0
   13.3450   21.8020   17.2670 C   0  0  0  0  0  0  0  0  0  0  0  0
   12.4330   21.0660   16.3000 C   0  0  0  0  0  0  0  0  0  0  0  0
   13.2870   20.1010   15.6280 N   0  0  0  0  0  0  0  0  0  0  0  0
   12.7500   19.1720   14.7640 C   0  0  0  0  0  0  0  0  0  0  0  0
   11.6300   18.6850   14.9600 O   0  0  0  0  0  0  0  0  0  0  0  0
   13.5840   18.7570   13.5240 C   0  0  2  0  0  0  0  0  0  0  0  0
   13.4040   19.6890   12.3300 C   0  0  0  0  0  0  0  0  0  0  0  0
   12.2620   19.0840   11.5160 C   0  0  2  0  0  0  0  0  0  0  0  0
   10.9040   19.7010   11.8630 C   0  0  0  0  0  0  0  0  0  0  0  0
    9.7670   19.0400   11.0900 C   0  0  0  0  0  0  0  0  0  0  0  0
    9.9900   17.5490   10.8460 C   0  0  0  0  0  0  0  0  0  0  0  0
   10.9410   16.9260   11.8640 C   0  0  0  0  0  0  0  0  0  0  0  0
   12.3340   17.5680   11.8070 C   0  0  2  0  0  0  0  0  0  0  0  0
   13.1370   17.4410   13.0390 N   0  0  0  0  0  0  0  0  0  0  0  0
   13.5460   16.3340   13.7400 C   0  0  0  0  0  0  0  0  0  0  0  0
   12.9150   15.9310   14.7290 O   0  0  0  0  0  0  0  0  0  0  0  0
   14.7860   15.5290   13.3160 C   0  0  2  0  0  0  0  0  0  0  0  0
   15.8860   16.4670   12.8810 N   0  0  0  0  0  0  0  0  0  0  0  0
   14.4870   14.4910   12.2140 C   0  0  0  0  0  0  0  0  0  0  0  0
   15.1370   13.1270   12.2510 C   0  0  0  0  0  0  0  0  0  0  0  0
   15.0300   12.1500   13.1610 C   0  0  0  0  0  0  0  0  0  0  0  0
   14.3850   12.1740   14.3740 N   0  0  0  0  0  0  0  0  0  0  0  0
   14.3880   11.1880   15.3140 C   0  0  0  0  0  0  0  0  0  0  0  0
   14.6570    9.9590   15.0610 N   0  0  0  0  0  0  0  0  0  0  0  0
   14.0250   11.6290   16.5360 N   0  0  0  0  0  0  0  0  0  0  0  0
   14.6100   16.7700   18.0200 C   0  0  0  0  0  0  0  0  0  0  0  0
   15.0210   16.5410   19.1450 O   0  0  0  0  0  0  0  0  0  0  0  0
   13.3050   16.8360   17.6100 N   0  0  0  0  0  0  0  0  0  0  0  0
   12.2040   16.5480   18.5250 C   0  0  1  0  0  0  0  0  0  0  0  0
   10.9890   17.4570   18.2730 C   0  0  0  0  0  0  0  0  0  0  0  0
   10.8160   18.5750   19.2770 C   0  0  0  0  0  0  0  0  0  0  0  0
    9.5290   18.9900   19.6510 C   0  0  0  0  0  0  0  0  0  0  0  0
    9.3560   20.0200   20.5790 C   0  0  0  0  0  0  0  0  0  0  0  0
   10.4630   20.6590   21.1450 C   0  0  0  0  0  0  0  0  0  0  0  0
   10.2780   21.7370   22.1720 C   0  0  0  0  0  0  0  0  0  0  0  0
   11.7460   20.2310   20.7910 C   0  0  0  0  0  0  0  0  0  0  0  0
   11.9210   19.1990   19.8650 C   0  0  0  0  0  0  0  0  0  0  0  0
   11.7910   15.0900   18.2780 C   0  0  0  0  0  0  0  0  0  0  0  0
   12.0360   14.5950   17.0310 N   0  0  0  0  0  0  0  0  0  0  0  0
   11.3250   14.3720   19.1620 O   0  0  0  0  0  0  0  0  0  0  0  0
   16.6128   15.1383   17.2076 H   0  0  0  0  0  0  0  0  0  0  0  0
   15.5569   15.2112   15.7562 H   0  0  0  0  0  0  0  0  0  0  0  0
   17.1430   16.0543   15.7562 H   0  0  0  0  0  0  0  0  0  0  0  0
   15.3329   20.1617   15.1005 H   0  0  0  0  0  0  0  0  0  0  0  0
   15.5183   21.7667   17.3703 H   0  0  0  0  0  0  0  0  0  0  0  0
   14.9178   22.4816   15.8857 H   0  0  0  0  0  0  0  0  0  0  0  0
   13.3357   21.3238   18.2576 H   0  0  0  0  0  0  0  0  0  0  0  0
   13.0382   22.8447   17.4361 H   0  0  0  0  0  0  0  0  0  0  0  0
   11.6266   20.5534   16.8450 H   0  0  0  0  0  0  0  0  0  0  0  0
   11.9498   21.7519   15.5887 H   0  0  0  0  0  0  0  0  0  0  0  0
   14.6297   18.7738   13.8649 H   0  0  0  0  0  0  0  0  0  0  0  0
   13.1416   20.7023   12.6681 H   0  0  0  0  0  0  0  0  0  0  0  0
   14.3265   19.7803   11.7379 H   0  0  0  0  0  0  0  0  0  0  0  0
   12.3669   19.2905   10.4407 H   0  0  0  0  0  0  0  0  0  0  0  0
   10.7214   19.5766   12.9406 H   0  0  0  0  0  0  0  0  0  0  0  0
   10.9316   20.7654   11.5868 H   0  0  0  0  0  0  0  0  0  0  0  0
    8.8363   19.1648   11.6630 H   0  0  0  0  0  0  0  0  0  0  0  0
    9.7156   19.5275   10.1052 H   0  0  0  0  0  0  0  0  0  0  0  0
    9.0206   17.0327   10.9069 H   0  0  0  0  0  0  0  0  0  0  0  0
   10.4458   17.4377    9.8511 H   0  0  0  0  0  0  0  0  0  0  0  0
   10.5250   17.0660   12.8726 H   0  0  0  0  0  0  0  0  0  0  0  0
   11.0461   15.8573   11.6257 H   0  0  0  0  0  0  0  0  0  0  0  0
   12.8198   17.0034   10.9975 H   0  0  0  0  0  0  0  0  0  0  0  0
   15.1148   14.9571   14.1962 H   0  0  0  0  0  0  0  0  0  0  0  0
   16.3100   17.0000   13.6450 H   0  0  0  0  0  0  0  0  0  0  0  0
   15.5610   17.1000   12.1410 H   0  0  0  0  0  0  0  0  0  0  0  0
   16.6410   15.9050   12.4450 H   0  0  0  0  0  0  0  0  0  0  0  0
   13.4000   14.3230   12.2254 H   0  0  0  0  0  0  0  0  0  0  0  0
   14.9243   14.9502   11.3152 H   0  0  0  0  0  0  0  0  0  0  0  0
   15.7986   12.9025   11.4013 H   0  0  0  0  0  0  0  0  0  0  0  0
   15.5245   11.2019   12.9028 H   0  0  0  0  0  0  0  0  0  0  0  0
   14.3140   13.1040   14.7850 H   0  0  0  0  0  0  0  0  0  0  0  0
   14.6240    9.4060   15.9190 H   0  0  0  0  0  0  0  0  0  0  0  0
   13.3710   12.4070   16.5740 H   0  0  0  0  0  0  0  0  0  0  0  0
   13.8280   10.9230   17.2340 H   0  0  0  0  0  0  0  0  0  0  0  0
   13.0930   16.7470   16.6200 H   0  0  0  0  0  0  0  0  0  0  0  0
   12.5354   16.7235   19.5591 H   0  0  0  0  0  0  0  0  0  0  0  0
   11.0989   17.9067   17.2752 H   0  0  0  0  0  0  0  0  0  0  0  0
   10.0987   16.8174   18.3643 H   0  0  0  0  0  0  0  0  0  0  0  0
    8.6485   18.5001   19.2097 H   0  0  0  0  0  0  0  0  0  0  0  0
    8.3407   20.3306   20.8665 H   0  0  0  0  0  0  0  0  0  0  0  0
   10.3529   21.3008   23.1790 H   0  0  0  0  0  0  0  0  0  0  0  0
   11.0580   22.5022   22.0450 H   0  0  0  0  0  0  0  0  0  0  0  0
    9.2875   22.1984   22.0450 H   0  0  0  0  0  0  0  0  0  0  0  0
   12.6255   20.7107   21.2453 H   0  0  0  0  0  0  0  0  0  0  0  0
   12.9371   18.8745   19.5961 H   0  0  0  0  0  0  0  0  0  0  0  0
   11.6910   13.6590   16.8460 H   0  0  0  0  0  0  0  0  0  0  0  0
   12.1510   15.2020   16.2300 H   0  0  0  0  0  0  0  0  0  0  0  0
  1  2  1  0
  2  3  2  0
  3  4  1  0
  4  5  2  0
  4  6  1  0
  6  7  1  0
  7  8  1  0
  8  9  1  0
  9 10  1  0
 10 11  1  0
 11 12  2  0
 11 13  1  0
 13 14  1  0
 14 15  1  0
 15 16  1  0
 16 17  1  0
 17 18  1  0
 18 19  1  0
 19 20  1  0
 20 21  1  0
 21 22  1  0
 22 23  2  0
 22 24  1  0
 24 25  1  0
 24 26  1  0
 26 27  1  0
 27 28  2  0
 28 29  1  0
 29 30  1  0
 30 31  2  3
 30 32  1  0
  2 33  1  0
 33 34  2  0
 33 35  1  0
 35 36  1  0
 36 37  1  0
 37 38  1  0
 38 39  2  0
 39 40  1  0
 40 41  2  0
 41 42  1  0
 41 43  1  0
 43 44  2  0
 36 45  1  0
 45 46  1  0
 45 47  2  0
 10  6  1  0
 21 13  1  0
 44 38  1  0
 20 15  1  0
  1 48  1  0
  1 49  1  0
  1 50  1  0
  6 51  1  6
  7 52  1  0
  7 53  1  0
  8 54  1  0
  8 55  1  0
  9 56  1  0
  9 57  1  0
 13 58  1  1
 14 59  1  0
 14 60  1  0
 15 61  1  6
 16 62  1  0
 16 63  1  0
 17 64  1  0
 17 65  1  0
 18 66  1  0
 18 67  1  0
 19 68  1  0
 19 69  1  0
 20 70  1  6
 24 71  1  1
 25 72  1  0
 25 73  1  0
 25 74  1  0
 26 75  1  0
 26 76  1  0
 27 77  1  0
 28 78  1  0
 29 79  1  0
 31 80  1  0
 32 81  1  0
 32 82  1  0
 35 83  1  0
 36 84  1  1
 37 85  1  0
 37 86  1  0
 39 87  1  0
 40 88  1  0
 42 89  1  0
 42 90  1  0
 42 91  1  0
 43 92  1  0
 44 93  1  0
 46 94  1  0
 46 95  1  0
M  CHG  1  25   1
M  END
>  <meeko>  (9) 
{"is_sidechain": [false], "free_energy": -8.282, "intermolecular_energy": -16.138, "internal_energy": -3.121}

$$$$
