1u1b_ligand
     RDKit          3D

 74 78  0  0  0  0  0  0  0  0999 V2000
  -38.0420  -37.5450   22.7770 C   0  0  0  0  0  0  0  0  0  0  0  0
  -36.7650  -36.7820   22.8840 C   0  0  0  0  0  0  0  0  0  0  0  0
  -35.9710  -36.5210   21.8370 C   0  0  0  0  0  0  0  0  0  0  0  0
  -34.8030  -35.7820   21.9380 N   0  0  0  0  0  0  0  0  0  0  0  0
  -33.9620  -35.5450   20.7560 C   0  0  1  0  0  0  0  0  0  0  0  0
  -34.6920  -35.7600   19.4320 C   0  0  0  0  0  0  0  0  0  0  0  0
  -33.9760  -34.7900   18.5150 C   0  0  2  0  0  0  0  0  0  0  0  0
  -32.7320  -35.3900   18.1370 O   0  0  0  0  0  0  0  0  0  0  0  0
  -32.2210  -35.3330   16.5750 P   0  0  2  0  0  5  0  0  0  0  0  0
  -33.2570  -36.1250   15.8040 O   0  0  0  0  0  0  0  0  0  0  0  0
  -30.7780  -35.7960   16.6010 O   0  0  0  0  0  0  0  0  0  0  0  0
  -32.3610  -33.7600   16.3170 O   0  0  0  0  0  0  0  0  0  0  0  0
  -31.8010  -32.7480   15.2030 P   0  0  2  0  0  5  0  0  0  0  0  0
  -32.5110  -31.4110   15.2030 O   0  0  0  0  0  0  0  0  0  0  0  0
  -31.7320  -33.5030   13.8810 O   0  0  0  0  0  0  0  0  0  0  0  0
  -30.2510  -32.5040   15.6690 O   0  0  0  0  0  0  0  0  0  0  0  0
  -30.0680  -31.7180   16.8570 C   0  0  0  0  0  0  0  0  0  0  0  0
  -29.3460  -32.5180   17.9580 C   0  0  1  0  0  0  0  0  0  0  0  0
  -28.5170  -33.5410   17.3320 O   0  0  0  0  0  0  0  0  0  0  0  0
  -27.2970  -33.6560   18.0800 C   0  0  1  0  0  0  0  0  0  0  0  0
  -26.1660  -33.3460   17.2160 N   0  0  0  0  0  0  0  0  0  0  0  0
  -26.1870  -32.8140   15.9490 C   0  0  0  0  0  0  0  0  0  0  0  0
  -24.9670  -32.6150   15.4740 N   0  0  0  0  0  0  0  0  0  0  0  0
  -24.1340  -33.0650   16.4690 C   0  0  0  0  0  0  0  0  0  0  0  0
  -22.7330  -33.0830   16.5800 C   0  0  0  0  0  0  0  0  0  0  0  0
  -21.8920  -32.5660   15.5820 N   0  0  0  0  0  0  0  0  0  0  0  0
  -22.1670  -33.5520   17.7160 N   0  0  0  0  0  0  0  0  0  0  0  0
  -23.0000  -34.0130   18.6780 C   0  0  0  0  0  0  0  0  0  0  0  0
  -24.3420  -34.0810   18.6730 N   0  0  0  0  0  0  0  0  0  0  0  0
  -24.8510  -33.5550   17.5450 C   0  0  0  0  0  0  0  0  0  0  0  0
  -27.4080  -32.7580   19.3080 C   0  0  2  0  0  0  0  0  0  0  0  0
  -27.9290  -33.5330   20.4110 O   0  0  0  0  0  0  0  0  0  0  0  0
  -28.3870  -31.6860   18.8360 C   0  0  2  0  0  0  0  0  0  0  0  0
  -29.0140  -30.9570   19.8830 O   0  0  0  0  0  0  0  0  0  0  0  0
  -28.6310  -29.3650   20.0370 P   0  0  0  0  0  0  0  0  0  0  0  0
  -27.1930  -29.3080   19.5290 O   0  0  0  0  0  0  0  0  0  0  0  0
  -29.6170  -28.6370   19.1360 O   0  0  0  0  0  0  0  0  0  0  0  0
  -28.7700  -29.0580   21.5180 O   0  0  0  0  0  0  0  0  0  0  0  0
  -33.7210  -33.6010   19.4680 C   0  0  1  0  0  0  0  0  0  0  0  0
  -34.9270  -32.6280   19.5900 C   0  0  0  0  0  0  0  0  0  0  0  0
  -34.9930  -32.0580   20.9000 O   0  0  0  0  0  0  0  0  0  0  0  0
  -36.3980  -32.2260   21.7360 P   0  0  0  0  0  0  0  0  0  0  0  0
  -37.0550  -30.8520   21.6510 O   0  0  0  0  0  0  0  0  0  0  0  0
  -37.1620  -33.3190   21.0020 O   0  0  0  0  0  0  0  0  0  0  0  0
  -35.9750  -32.6050   23.1500 O   0  0  0  0  0  0  0  0  0  0  0  0
  -33.4450  -34.2060   20.7670 O   0  0  0  0  0  0  0  0  0  0  0  0
  -34.3710  -35.2950   23.1560 C   0  0  0  0  0  0  0  0  0  0  0  0
  -33.3800  -34.5940   23.3480 O   0  0  0  0  0  0  0  0  0  0  0  0
  -35.1540  -35.6140   24.2370 N   0  0  0  0  0  0  0  0  0  0  0  0
  -36.3540  -36.2640   24.2030 C   0  0  0  0  0  0  0  0  0  0  0  0
  -37.0430  -36.3880   25.2150 O   0  0  0  0  0  0  0  0  0  0  0  0
  -38.4198  -37.7707   23.7851 H   0  0  0  0  0  0  0  0  0  0  0  0
  -38.7847  -36.9425   22.2335 H   0  0  0  0  0  0  0  0  0  0  0  0
  -37.8633  -38.4845   22.2335 H   0  0  0  0  0  0  0  0  0  0  0  0
  -36.2599  -36.9119   20.8502 H   0  0  0  0  0  0  0  0  0  0  0  0
  -33.1516  -36.2859   20.8208 H   0  0  0  0  0  0  0  0  0  0  0  0
  -34.5838  -36.7965   19.0799 H   0  0  0  0  0  0  0  0  0  0  0  0
  -35.7776  -35.5933   19.4925 H   0  0  0  0  0  0  0  0  0  0  0  0
  -34.5138  -34.5122   17.5965 H   0  0  0  0  0  0  0  0  0  0  0  0
  -29.4683  -30.8298   16.6090 H   0  0  0  0  0  0  0  0  0  0  0  0
  -31.0595  -31.4282   17.2350 H   0  0  0  0  0  0  0  0  0  0  0  0
  -30.1481  -32.9146   18.5978 H   0  0  0  0  0  0  0  0  0  0  0  0
  -27.1270  -34.6816   18.4396 H   0  0  0  0  0  0  0  0  0  0  0  0
  -27.1083  -32.5810   15.3950 H   0  0  0  0  0  0  0  0  0  0  0  0
  -20.9310  -32.6370   15.9160 H   0  0  0  0  0  0  0  0  0  0  0  0
  -22.0950  -33.0500   14.7180 H   0  0  0  0  0  0  0  0  0  0  0  0
  -22.5104  -34.3835   19.5907 H   0  0  0  0  0  0  0  0  0  0  0  0
  -26.4612  -32.3272   19.6658 H   0  0  0  0  0  0  0  0  0  0  0  0
  -27.0940  -33.9720   20.7660 H   0  0  0  0  0  0  0  0  0  0  0  0
  -27.9081  -30.8575   18.2935 H   0  0  0  0  0  0  0  0  0  0  0  0
  -32.8942  -32.9872   19.0811 H   0  0  0  0  0  0  0  0  0  0  0  0
  -34.8145  -31.8207   18.8513 H   0  0  0  0  0  0  0  0  0  0  0  0
  -35.8533  -33.1918   19.4052 H   0  0  0  0  0  0  0  0  0  0  0  0
  -34.8460  -35.2400   25.1140 H   0  0  0  0  0  0  0  0  0  0  0  0
  1  2  1  0
  2  3  2  0
  3  4  1  0
  4  5  1  0
  5  6  1  0
  6  7  1  0
  7  8  1  0
  8  9  1  0
  9 10  2  0
  9 11  1  1
  9 12  1  0
 12 13  1  0
 13 14  2  0
 13 15  1  6
 13 16  1  0
 16 17  1  0
 17 18  1  0
 18 19  1  0
 19 20  1  0
 20 21  1  0
 21 22  1  0
 22 23  2  0
 23 24  1  0
 24 25  2  0
 25 26  1  0
 25 27  1  0
 27 28  2  0
 28 29  1  0
 29 30  2  0
 20 31  1  0
 31 32  1  0
 31 33  1  0
 33 34  1  0
 34 35  1  0
 35 36  2  0
 35 37  1  0
 35 38  1  0
  7 39  1  0
 39 40  1  0
 40 41  1  0
 41 42  1  0
 42 43  2  0
 42 44  1  0
 42 45  1  0
 39 46  1  0
  4 47  1  0
 47 48  2  0
 47 49  1  0
 49 50  1  0
 50 51  2  0
 50  2  1  0
 46  5  1  0
 33 18  1  0
 30 21  1  0
 30 24  1  0
  1 52  1  0
  1 53  1  0
  1 54  1  0
  3 55  1  0
  5 56  1  1
  6 57  1  0
  6 58  1  0
  7 59  1  6
 17 60  1  0
 17 61  1  0
 18 62  1  1
 20 63  1  1
 22 64  1  0
 26 65  1  0
 26 66  1  0
 28 67  1  0
 31 68  1  1
 32 69  1  0
 33 70  1  6
 39 71  1  6
 40 72  1  0
 40 73  1  0
 49 74  1  0
M  CHG  6  11  -1  15  -1  37  -1  38  -1  44  -1  45  -1
M  END
>  <meeko>  (1) 
{"is_sidechain": [false], "free_energy": -8.462, "intermolecular_energy": -15.882, "internal_energy": -2.802}

$$$$
1u1b_ligand
     RDKit          3D

 74 78  0  0  0  0  0  0  0  0999 V2000
  -36.7760  -33.2390   23.0250 C   0  0  0  0  0  0  0  0  0  0  0  0
  -35.7390  -34.2000   22.5480 C   0  0  0  0  0  0  0  0  0  0  0  0
  -35.2940  -34.2380   21.2850 C   0  0  0  0  0  0  0  0  0  0  0  0
  -34.3060  -35.1110   20.8570 N   0  0  0  0  0  0  0  0  0  0  0  0
  -33.8710  -35.1200   19.4530 C   0  0  1  0  0  0  0  0  0  0  0  0
  -35.0250  -35.0530   18.4550 C   0  0  0  0  0  0  0  0  0  0  0  0
  -34.3880  -34.3340   17.2830 C   0  0  2  0  0  0  0  0  0  0  0  0
  -33.5880  -35.2870   16.5740 O   0  0  0  0  0  0  0  0  0  0  0  0
  -33.0870  -34.9750   15.0390 P   0  0  2  0  0  5  0  0  0  0  0  0
  -33.9180  -33.7870   14.5990 O   0  0  0  0  0  0  0  0  0  0  0  0
  -33.1960  -36.2930   14.2990 O   0  0  0  0  0  0  0  0  0  0  0  0
  -31.5720  -34.5610   15.3440 O   0  0  0  0  0  0  0  0  0  0  0  0
  -30.2510  -34.3880   14.4480 P   0  0  2  0  0  5  0  0  0  0  0  0
  -30.5350  -33.8270   13.0700 O   0  0  0  0  0  0  0  0  0  0  0  0
  -29.4630  -35.6900   14.5230 O   0  0  0  0  0  0  0  0  0  0  0  0
  -29.3800  -33.2810   15.2800 O   0  0  0  0  0  0  0  0  0  0  0  0
  -29.9850  -32.7800   16.4830 C   0  0  0  0  0  0  0  0  0  0  0  0
  -29.1960  -33.2110   17.7340 C   0  0  1  0  0  0  0  0  0  0  0  0
  -28.1820  -34.1820   17.3420 O   0  0  0  0  0  0  0  0  0  0  0  0
  -26.9970  -33.9380   18.1150 C   0  0  1  0  0  0  0  0  0  0  0  0
  -25.8920  -33.6180   17.2230 N   0  0  0  0  0  0  0  0  0  0  0  0
  -25.9500  -33.1910   15.9180 C   0  0  0  0  0  0  0  0  0  0  0  0
  -24.7480  -32.9450   15.4210 N   0  0  0  0  0  0  0  0  0  0  0  0
  -23.8850  -33.2540   16.4440 C   0  0  0  0  0  0  0  0  0  0  0  0
  -22.4860  -33.1640   16.5470 C   0  0  0  0  0  0  0  0  0  0  0  0
  -21.6850  -32.6690   15.5060 N   0  0  0  0  0  0  0  0  0  0  0  0
  -21.8880  -33.4990   17.7130 N   0  0  0  0  0  0  0  0  0  0  0  0
  -22.6860  -33.9400   18.7140 C   0  0  0  0  0  0  0  0  0  0  0  0
  -24.0200  -34.1030   18.7220 N   0  0  0  0  0  0  0  0  0  0  0  0
  -24.5640  -33.7060   17.5600 C   0  0  0  0  0  0  0  0  0  0  0  0
  -27.3130  -32.8460   19.1330 C   0  0  2  0  0  0  0  0  0  0  0  0
  -27.7540  -33.4630   20.3630 O   0  0  0  0  0  0  0  0  0  0  0  0
  -28.4300  -32.0700   18.4380 C   0  0  2  0  0  0  0  0  0  0  0  0
  -29.2170  -31.2650   19.3050 O   0  0  0  0  0  0  0  0  0  0  0  0
  -29.0130  -29.6350   19.2240 P   0  0  0  0  0  0  0  0  0  0  0  0
  -29.3460  -29.3200   17.7690 O   0  0  0  0  0  0  0  0  0  0  0  0
  -30.0220  -29.0660   20.2100 O   0  0  0  0  0  0  0  0  0  0  0  0
  -27.5580  -29.3930   19.5860 O   0  0  0  0  0  0  0  0  0  0  0  0
  -33.4800  -33.3160   18.0070 C   0  0  1  0  0  0  0  0  0  0  0  0
  -34.2150  -32.0150   18.4340 C   0  0  0  0  0  0  0  0  0  0  0  0
  -34.5870  -31.2390   17.2920 O   0  0  0  0  0  0  0  0  0  0  0  0
  -33.5030  -30.1400   16.7290 P   0  0  0  0  0  0  0  0  0  0  0  0
  -32.5360  -29.9340   17.8910 O   0  0  0  0  0  0  0  0  0  0  0  0
  -32.8700  -30.8000   15.5130 O   0  0  0  0  0  0  0  0  0  0  0  0
  -34.3280  -28.9000   16.4060 O   0  0  0  0  0  0  0  0  0  0  0  0
  -32.9930  -34.0150   19.1920 O   0  0  0  0  0  0  0  0  0  0  0  0
  -33.7440  -36.0300   21.7210 C   0  0  0  0  0  0  0  0  0  0  0  0
  -32.8350  -36.8150   21.4570 O   0  0  0  0  0  0  0  0  0  0  0  0
  -34.2440  -36.0300   22.9990 N   0  0  0  0  0  0  0  0  0  0  0  0
  -35.1530  -35.1510   23.5120 C   0  0  0  0  0  0  0  0  0  0  0  0
  -35.4420  -35.1540   24.7090 O   0  0  0  0  0  0  0  0  0  0  0  0
  -36.7877  -33.2282   24.1249 H   0  0  0  0  0  0  0  0  0  0  0  0
  -36.5419  -32.2314   22.6509 H   0  0  0  0  0  0  0  0  0  0  0  0
  -37.7629  -33.5489   22.6509 H   0  0  0  0  0  0  0  0  0  0  0  0
  -35.7332  -33.5439   20.5533 H   0  0  0  0  0  0  0  0  0  0  0  0
  -33.3552  -36.0814   19.3125 H   0  0  0  0  0  0  0  0  0  0  0  0
  -35.3651  -36.0594   18.1693 H   0  0  0  0  0  0  0  0  0  0  0  0
  -35.9220  -34.5519   18.8478 H   0  0  0  0  0  0  0  0  0  0  0  0
  -35.0842  -33.8731   16.5668 H   0  0  0  0  0  0  0  0  0  0  0  0
  -30.0121  -31.6812   16.4386 H   0  0  0  0  0  0  0  0  0  0  0  0
  -31.0013  -33.1943   16.5564 H   0  0  0  0  0  0  0  0  0  0  0  0
  -29.9524  -33.6034   18.4297 H   0  0  0  0  0  0  0  0  0  0  0  0
  -26.6791  -34.8280   18.6778 H   0  0  0  0  0  0  0  0  0  0  0  0
  -26.8856  -33.0681   15.3527 H   0  0  0  0  0  0  0  0  0  0  0  0
  -21.3800  -31.7300   15.7650 H   0  0  0  0  0  0  0  0  0  0  0  0
  -20.9470  -33.3380   15.3320 H   0  0  0  0  0  0  0  0  0  0  0  0
  -22.1711  -34.2010   19.6504 H   0  0  0  0  0  0  0  0  0  0  0  0
  -26.4673  -32.1991   19.4092 H   0  0  0  0  0  0  0  0  0  0  0  0
  -27.9790  -32.6580   20.9270 H   0  0  0  0  0  0  0  0  0  0  0  0
  -28.0677  -31.2962   17.7452 H   0  0  0  0  0  0  0  0  0  0  0  0
  -32.6806  -32.9851   17.3277 H   0  0  0  0  0  0  0  0  0  0  0  0
  -35.1208  -32.2820   18.9982 H   0  0  0  0  0  0  0  0  0  0  0  0
  -33.5350  -31.4167   19.0582 H   0  0  0  0  0  0  0  0  0  0  0  0
  -33.8170  -36.6860   23.6260 H   0  0  0  0  0  0  0  0  0  0  0  0
  1  2  1  0
  2  3  2  0
  3  4  1  0
  4  5  1  0
  5  6  1  0
  6  7  1  0
  7  8  1  0
  8  9  1  0
  9 10  2  0
  9 11  1  6
  9 12  1  0
 12 13  1  0
 13 14  2  0
 13 15  1  6
 13 16  1  0
 16 17  1  0
 17 18  1  0
 18 19  1  0
 19 20  1  0
 20 21  1  0
 21 22  1  0
 22 23  2  0
 23 24  1  0
 24 25  2  0
 25 26  1  0
 25 27  1  0
 27 28  2  0
 28 29  1  0
 29 30  2  0
 20 31  1  0
 31 32  1  0
 31 33  1  0
 33 34  1  0
 34 35  1  0
 35 36  2  0
 35 37  1  0
 35 38  1  0
  7 39  1  0
 39 40  1  0
 40 41  1  0
 41 42  1  0
 42 43  2  0
 42 44  1  0
 42 45  1  0
 39 46  1  0
  4 47  1  0
 47 48  2  0
 47 49  1  0
 49 50  1  0
 50 51  2  0
 50  2  1  0
 46  5  1  0
 33 18  1  0
 30 21  1  0
 30 24  1  0
  1 52  1  0
  1 53  1  0
  1 54  1  0
  3 55  1  0
  5 56  1  6
  6 57  1  0
  6 58  1  0
  7 59  1  6
 17 60  1  0
 17 61  1  0
 18 62  1  1
 20 63  1  1
 22 64  1  0
 26 65  1  0
 26 66  1  0
 28 67  1  0
 31 68  1  1
 32 69  1  0
 33 70  1  6
 39 71  1  6
 40 72  1  0
 40 73  1  0
 49 74  1  0
M  CHG  6  11  -1  15  -1  37  -1  38  -1  44  -1  45  -1
M  END
>  <meeko>  (2) 
{"is_sidechain": [false], "free_energy": -8.223, "intermolecular_energy": -14.748, "internal_energy": -3.488}

$$$$
1u1b_ligand
     RDKit          3D

 74 78  0  0  0  0  0  0  0  0999 V2000
  -30.7300  -23.3580   15.6580 C   0  0  0  0  0  0  0  0  0  0  0  0
  -29.4860  -23.7190   14.9160 C   0  0  0  0  0  0  0  0  0  0  0  0
  -29.2570  -24.9370   14.4100 C   0  0  0  0  0  0  0  0  0  0  0  0
  -28.1140  -25.2550   13.6920 N   0  0  0  0  0  0  0  0  0  0  0  0
  -27.9080  -26.6170   13.1770 C   0  0  1  0  0  0  0  0  0  0  0  0
  -28.8570  -27.6490   13.7810 C   0  0  0  0  0  0  0  0  0  0  0  0
  -28.9950  -28.6500   12.6520 C   0  0  2  0  0  0  0  0  0  0  0  0
  -27.8160  -29.4640   12.6490 O   0  0  0  0  0  0  0  0  0  0  0  0
  -27.8990  -31.0480   12.2130 P   0  0  2  0  0  5  0  0  0  0  0  0
  -26.6550  -31.6740   12.8100 O   0  0  0  0  0  0  0  0  0  0  0  0
  -28.1010  -31.0460   10.7110 O   0  0  0  0  0  0  0  0  0  0  0  0
  -29.2190  -31.4660   13.0140 O   0  0  0  0  0  0  0  0  0  0  0  0
  -29.5780  -32.6250   14.0650 P   0  0  2  0  0  5  0  0  0  0  0  0
  -28.8090  -33.9070   13.8230 O   0  0  0  0  0  0  0  0  0  0  0  0
  -31.0960  -32.7260   14.1460 O   0  0  0  0  0  0  0  0  0  0  0  0
  -29.0870  -31.9960   15.4930 O   0  0  0  0  0  0  0  0  0  0  0  0
  -29.9800  -32.1850   16.6030 C   0  0  0  0  0  0  0  0  0  0  0  0
  -29.2530  -32.8010   17.8140 C   0  0  1  0  0  0  0  0  0  0  0  0
  -28.3050  -33.8010   17.3380 O   0  0  0  0  0  0  0  0  0  0  0  0
  -27.1240  -33.7290   18.1500 C   0  0  1  0  0  0  0  0  0  0  0  0
  -25.9780  -33.4040   17.3120 N   0  0  0  0  0  0  0  0  0  0  0  0
  -25.9760  -32.8990   16.0340 C   0  0  0  0  0  0  0  0  0  0  0  0
  -24.7490  -32.6750   15.5900 N   0  0  0  0  0  0  0  0  0  0  0  0
  -23.9330  -33.0800   16.6180 C   0  0  0  0  0  0  0  0  0  0  0  0
  -22.5350  -33.0550   16.7680 C   0  0  0  0  0  0  0  0  0  0  0  0
  -21.6810  -32.5340   15.7840 N   0  0  0  0  0  0  0  0  0  0  0  0
  -21.9900  -33.4830   17.9300 N   0  0  0  0  0  0  0  0  0  0  0  0
  -22.8380  -33.9480   18.8780 C   0  0  0  0  0  0  0  0  0  0  0  0
  -24.1770  -34.0550   18.8360 N   0  0  0  0  0  0  0  0  0  0  0  0
  -24.6670  -33.5680   17.6830 C   0  0  0  0  0  0  0  0  0  0  0  0
  -27.3800  -32.7270   19.2710 C   0  0  2  0  0  0  0  0  0  0  0  0
  -27.8930  -33.4320   20.4230 O   0  0  0  0  0  0  0  0  0  0  0  0
  -28.4210  -31.8010   18.6440 C   0  0  2  0  0  0  0  0  0  0  0  0
  -29.1650  -31.0320   19.5780 O   0  0  0  0  0  0  0  0  0  0  0  0
  -28.9130  -29.4070   19.6000 P   0  0  0  0  0  0  0  0  0  0  0  0
  -29.5320  -28.9470   18.2820 O   0  0  0  0  0  0  0  0  0  0  0  0
  -29.6670  -28.9100   20.8240 O   0  0  0  0  0  0  0  0  0  0  0  0
  -27.4060  -29.2330   19.6620 O   0  0  0  0  0  0  0  0  0  0  0  0
  -28.9970  -27.7210   11.4180 C   0  0  1  0  0  0  0  0  0  0  0  0
  -30.3940  -27.1240   11.0880 C   0  0  0  0  0  0  0  0  0  0  0  0
  -30.3150  -26.2170    9.9860 O   0  0  0  0  0  0  0  0  0  0  0  0
  -31.1230  -24.7910   10.1120 P   0  0  0  0  0  0  0  0  0  0  0  0
  -30.5260  -24.1270   11.3500 O   0  0  0  0  0  0  0  0  0  0  0  0
  -30.8230  -24.0540    8.8150 O   0  0  0  0  0  0  0  0  0  0  0  0
  -32.5860  -25.1790   10.2840 O   0  0  0  0  0  0  0  0  0  0  0  0
  -28.0700  -26.6440   11.7510 O   0  0  0  0  0  0  0  0  0  0  0  0
  -27.1170  -24.3220   13.4890 C   0  0  0  0  0  0  0  0  0  0  0  0
  -26.0910  -24.4860   12.8330 O   0  0  0  0  0  0  0  0  0  0  0  0
  -27.3270  -23.0920   14.0600 N   0  0  0  0  0  0  0  0  0  0  0  0
  -28.4570  -22.6830   14.7070 C   0  0  0  0  0  0  0  0  0  0  0  0
  -28.5990  -21.5150   15.0710 O   0  0  0  0  0  0  0  0  0  0  0  0
  -30.5405  -23.4130   16.7402 H   0  0  0  0  0  0  0  0  0  0  0  0
  -31.0328  -22.3349   15.3903 H   0  0  0  0  0  0  0  0  0  0  0  0
  -31.5334  -24.0601   15.3903 H   0  0  0  0  0  0  0  0  0  0  0  0
  -30.0105  -25.7221   14.5712 H   0  0  0  0  0  0  0  0  0  0  0  0
  -26.8823  -26.8883   13.4674 H   0  0  0  0  0  0  0  0  0  0  0  0
  -28.4222  -28.1152   14.6774 H   0  0  0  0  0  0  0  0  0  0  0  0
  -29.8150  -27.2264   14.1182 H   0  0  0  0  0  0  0  0  0  0  0  0
  -29.8696  -29.3150   12.7055 H   0  0  0  0  0  0  0  0  0  0  0  0
  -30.3985  -31.2105   16.8951 H   0  0  0  0  0  0  0  0  0  0  0  0
  -30.7772  -32.8758   16.2910 H   0  0  0  0  0  0  0  0  0  0  0  0
  -30.0521  -33.2039   18.4537 H   0  0  0  0  0  0  0  0  0  0  0  0
  -26.8869  -34.6938   18.6222 H   0  0  0  0  0  0  0  0  0  0  0  0
  -26.8867  -32.7038   15.4487 H   0  0  0  0  0  0  0  0  0  0  0  0
  -21.6080  -33.2250   15.0370 H   0  0  0  0  0  0  0  0  0  0  0  0
  -22.0330  -31.6270   15.5110 H   0  0  0  0  0  0  0  0  0  0  0  0
  -22.3651  -34.2850   19.8122 H   0  0  0  0  0  0  0  0  0  0  0  0
  -26.4951  -32.1781   19.6255 H   0  0  0  0  0  0  0  0  0  0  0  0
  -27.0640  -33.8890   20.7700 H   0  0  0  0  0  0  0  0  0  0  0  0
  -27.9867  -30.9901   18.0408 H   0  0  0  0  0  0  0  0  0  0  0  0
  -28.7091  -28.2925   10.5233 H   0  0  0  0  0  0  0  0  0  0  0  0
  -31.0836  -27.9419   10.8322 H   0  0  0  0  0  0  0  0  0  0  0  0
  -30.7580  -26.5750   11.9690 H   0  0  0  0  0  0  0  0  0  0  0  0
  -26.6090  -22.4130   13.8910 H   0  0  0  0  0  0  0  0  0  0  0  0
  1  2  1  0
  2  3  2  0
  3  4  1  0
  4  5  1  0
  5  6  1  0
  6  7  1  0
  7  8  1  0
  8  9  1  0
  9 10  2  0
  9 11  1  6
  9 12  1  0
 12 13  1  0
 13 14  2  0
 13 15  1  1
 13 16  1  0
 16 17  1  0
 17 18  1  0
 18 19  1  0
 19 20  1  0
 20 21  1  0
 21 22  1  0
 22 23  2  0
 23 24  1  0
 24 25  2  0
 25 26  1  0
 25 27  1  0
 27 28  2  0
 28 29  1  0
 29 30  2  0
 20 31  1  0
 31 32  1  0
 31 33  1  0
 33 34  1  0
 34 35  1  0
 35 36  2  0
 35 37  1  0
 35 38  1  0
  7 39  1  0
 39 40  1  0
 40 41  1  0
 41 42  1  0
 42 43  2  0
 42 44  1  0
 42 45  1  0
 39 46  1  0
  4 47  1  0
 47 48  2  0
 47 49  1  0
 49 50  1  0
 50 51  2  0
 50  2  1  0
 46  5  1  0
 33 18  1  0
 30 21  1  0
 30 24  1  0
  1 52  1  0
  1 53  1  0
  1 54  1  0
  3 55  1  0
  5 56  1  6
  6 57  1  0
  6 58  1  0
  7 59  1  1
 17 60  1  0
 17 61  1  0
 18 62  1  1
 20 63  1  1
 22 64  1  0
 26 65  1  0
 26 66  1  0
 28 67  1  0
 31 68  1  1
 32 69  1  0
 33 70  1  6
 39 71  1  6
 40 72  1  0
 40 73  1  0
 49 74  1  0
M  CHG  6  11  -1  15  -1  37  -1  38  -1  44  -1  45  -1
M  END
>  <meeko>  (3) 
{"is_sidechain": [false], "free_energy": -8.142, "intermolecular_energy": -15.081, "internal_energy": -3.003}

$$$$
1u1b_ligand
     RDKit          3D

 74 78  0  0  0  0  0  0  0  0999 V2000
  -27.9060  -22.5700   14.9350 C   0  0  0  0  0  0  0  0  0  0  0  0
  -28.0650  -23.9770   14.4620 C   0  0  0  0  0  0  0  0  0  0  0  0
  -29.1250  -24.7400   14.7610 C   0  0  0  0  0  0  0  0  0  0  0  0
  -29.2820  -26.0340   14.2890 N   0  0  0  0  0  0  0  0  0  0  0  0
  -30.4580  -26.8310   14.6680 C   0  0  1  0  0  0  0  0  0  0  0  0
  -30.2400  -27.6950   15.9070 C   0  0  0  0  0  0  0  0  0  0  0  0
  -31.6340  -27.7610   16.4960 C   0  0  2  0  0  0  0  0  0  0  0  0
  -32.3790  -28.7190   15.7360 O   0  0  0  0  0  0  0  0  0  0  0  0
  -33.6630  -29.4970   16.4060 P   0  0  2  0  0  5  0  0  0  0  0  0
  -34.8720  -28.9250   15.6940 O   0  0  0  0  0  0  0  0  0  0  0  0
  -33.5110  -29.3200   17.9030 O   0  0  0  0  0  0  0  0  0  0  0  0
  -33.3390  -30.9880   15.9240 O   0  0  0  0  0  0  0  0  0  0  0  0
  -32.4620  -32.1960   16.5150 P   0  0  2  0  0  5  0  0  0  0  0  0
  -31.9910  -33.1660   15.4520 O   0  0  0  0  0  0  0  0  0  0  0  0
  -33.2130  -32.7770   17.7070 O   0  0  0  0  0  0  0  0  0  0  0  0
  -31.1500  -31.4370   17.1310 O   0  0  0  0  0  0  0  0  0  0  0  0
  -29.8740  -31.9460   16.7090 C   0  0  0  0  0  0  0  0  0  0  0  0
  -29.1660  -32.7060   17.8470 C   0  0  1  0  0  0  0  0  0  0  0  0
  -28.2960  -33.7220   17.2680 O   0  0  0  0  0  0  0  0  0  0  0  0
  -27.0970  -33.7940   18.0530 C   0  0  1  0  0  0  0  0  0  0  0  0
  -25.9490  -33.4760   17.2160 N   0  0  0  0  0  0  0  0  0  0  0  0
  -25.9440  -32.9830   15.9330 C   0  0  0  0  0  0  0  0  0  0  0  0
  -24.7160  -32.7610   15.4910 N   0  0  0  0  0  0  0  0  0  0  0  0
  -23.9030  -33.1550   16.5250 C   0  0  0  0  0  0  0  0  0  0  0  0
  -22.5050  -33.1260   16.6800 C   0  0  0  0  0  0  0  0  0  0  0  0
  -21.6490  -32.6140   15.6940 N   0  0  0  0  0  0  0  0  0  0  0  0
  -21.9630  -33.5440   17.8470 N   0  0  0  0  0  0  0  0  0  0  0  0
  -22.8130  -34.0010   18.7970 C   0  0  0  0  0  0  0  0  0  0  0  0
  -24.1520  -34.1100   18.7510 N   0  0  0  0  0  0  0  0  0  0  0  0
  -24.6390  -33.6340   17.5930 C   0  0  0  0  0  0  0  0  0  0  0  0
  -27.2640  -32.8740   19.2580 C   0  0  2  0  0  0  0  0  0  0  0  0
  -27.8000  -33.6380   20.3610 O   0  0  0  0  0  0  0  0  0  0  0  0
  -28.2530  -31.8340   18.7350 C   0  0  2  0  0  0  0  0  0  0  0  0
  -28.9260  -31.0990   19.7480 O   0  0  0  0  0  0  0  0  0  0  0  0
  -28.4930  -29.5270   19.9630 P   0  0  0  0  0  0  0  0  0  0  0  0
  -29.4970  -28.7730   19.0950 O   0  0  0  0  0  0  0  0  0  0  0  0
  -28.6740  -29.2720   21.4520 O   0  0  0  0  0  0  0  0  0  0  0  0
  -27.0610  -29.4320   19.4660 O   0  0  0  0  0  0  0  0  0  0  0  0
  -32.1560  -26.3360   16.2080 C   0  0  1  0  0  0  0  0  0  0  0  0
  -31.7320  -25.2880   17.2740 C   0  0  0  0  0  0  0  0  0  0  0  0
  -31.6260  -25.8880   18.5680 O   0  0  0  0  0  0  0  0  0  0  0  0
  -32.7130  -25.4300   19.7130 P   0  0  0  0  0  0  0  0  0  0  0  0
  -32.8470  -23.9220   19.5260 O   0  0  0  0  0  0  0  0  0  0  0  0
  -33.9800  -26.2060   19.3820 O   0  0  0  0  0  0  0  0  0  0  0  0
  -32.0760  -25.8180   21.0420 O   0  0  0  0  0  0  0  0  0  0  0  0
  -31.5850  -25.9760   14.9140 O   0  0  0  0  0  0  0  0  0  0  0  0
  -28.3170  -26.6270   13.5010 C   0  0  0  0  0  0  0  0  0  0  0  0
  -28.3770  -27.7460   12.9960 O   0  0  0  0  0  0  0  0  0  0  0  0
  -27.2040  -25.8650   13.2450 N   0  0  0  0  0  0  0  0  0  0  0  0
  -27.0170  -24.5620   13.6050 C   0  0  0  0  0  0  0  0  0  0  0  0
  -26.0380  -23.9250   13.2150 O   0  0  0  0  0  0  0  0  0  0  0  0
  -27.9038  -22.5509   16.0348 H   0  0  0  0  0  0  0  0  0  0  0  0
  -26.9560  -22.1620   14.5593 H   0  0  0  0  0  0  0  0  0  0  0  0
  -28.7410  -21.9603   14.5593 H   0  0  0  0  0  0  0  0  0  0  0  0
  -29.9068  -24.3203   15.4111 H   0  0  0  0  0  0  0  0  0  0  0  0
  -30.6433  -27.5019   13.8162 H   0  0  0  0  0  0  0  0  0  0  0  0
  -29.8729  -28.6960   15.6364 H   0  0  0  0  0  0  0  0  0  0  0  0
  -29.4851  -27.2940   16.5994 H   0  0  0  0  0  0  0  0  0  0  0  0
  -31.6935  -28.0459   17.5568 H   0  0  0  0  0  0  0  0  0  0  0  0
  -30.0247  -32.6306   15.8613 H   0  0  0  0  0  0  0  0  0  0  0  0
  -29.2419  -31.0946   16.4165 H   0  0  0  0  0  0  0  0  0  0  0  0
  -29.9776  -33.1081   18.4712 H   0  0  0  0  0  0  0  0  0  0  0  0
  -26.9149  -34.8078   18.4390 H   0  0  0  0  0  0  0  0  0  0  0  0
  -26.8532  -32.7951   15.3430 H   0  0  0  0  0  0  0  0  0  0  0  0
  -22.2100  -32.0530   15.0530 H   0  0  0  0  0  0  0  0  0  0  0  0
  -20.8920  -32.1290   16.1560 H   0  0  0  0  0  0  0  0  0  0  0  0
  -22.3428  -34.3282   19.7360 H   0  0  0  0  0  0  0  0  0  0  0  0
  -26.3380  -32.4144   19.6340 H   0  0  0  0  0  0  0  0  0  0  0  0
  -27.4660  -34.5660   20.1500 H   0  0  0  0  0  0  0  0  0  0  0  0
  -27.7780  -31.0054   18.1892 H   0  0  0  0  0  0  0  0  0  0  0  0
  -33.2559  -26.3345   16.2235 H   0  0  0  0  0  0  0  0  0  0  0  0
  -30.7568  -24.8634   16.9933 H   0  0  0  0  0  0  0  0  0  0  0  0
  -32.4979  -24.4995   17.3147 H   0  0  0  0  0  0  0  0  0  0  0  0
  -26.5170  -26.2950   12.6550 H   0  0  0  0  0  0  0  0  0  0  0  0
  1  2  1  0
  2  3  2  0
  3  4  1  0
  4  5  1  0
  5  6  1  0
  6  7  1  0
  7  8  1  0
  8  9  1  0
  9 10  2  0
  9 11  1  1
  9 12  1  0
 12 13  1  0
 13 14  2  0
 13 15  1  1
 13 16  1  0
 16 17  1  0
 17 18  1  0
 18 19  1  0
 19 20  1  0
 20 21  1  0
 21 22  1  0
 22 23  2  0
 23 24  1  0
 24 25  2  0
 25 26  1  0
 25 27  1  0
 27 28  2  0
 28 29  1  0
 29 30  2  0
 20 31  1  0
 31 32  1  0
 31 33  1  0
 33 34  1  0
 34 35  1  0
 35 36  2  0
 35 37  1  0
 35 38  1  0
  7 39  1  0
 39 40  1  0
 40 41  1  0
 41 42  1  0
 42 43  2  0
 42 44  1  0
 42 45  1  0
 39 46  1  0
  4 47  1  0
 47 48  2  0
 47 49  1  0
 49 50  1  0
 50 51  2  0
 50  2  1  0
 46  5  1  0
 33 18  1  0
 30 21  1  0
 30 24  1  0
  1 52  1  0
  1 53  1  0
  1 54  1  0
  3 55  1  0
  5 56  1  6
  6 57  1  0
  6 58  1  0
  7 59  1  1
 17 60  1  0
 17 61  1  0
 18 62  1  1
 20 63  1  1
 22 64  1  0
 26 65  1  0
 26 66  1  0
 28 67  1  0
 31 68  1  1
 32 69  1  0
 33 70  1  6
 39 71  1  6
 40 72  1  0
 40 73  1  0
 49 74  1  0
M  CHG  6  11  -1  15  -1  37  -1  38  -1  44  -1  45  -1
M  END
>  <meeko>  (4) 
{"is_sidechain": [false], "free_energy": -8.021, "intermolecular_energy": -14.73, "internal_energy": -3.127}

$$$$
1u1b_ligand
     RDKit          3D

 74 78  0  0  0  0  0  0  0  0999 V2000
  -38.1950  -37.5500   22.4540 C   0  0  0  0  0  0  0  0  0  0  0  0
  -36.9220  -36.8020   22.6690 C   0  0  0  0  0  0  0  0  0  0  0  0
  -36.1010  -36.4410   21.6740 C   0  0  0  0  0  0  0  0  0  0  0  0
  -34.9370  -35.7170   21.8790 N   0  0  0  0  0  0  0  0  0  0  0  0
  -34.0650  -35.3670   20.7490 C   0  0  1  0  0  0  0  0  0  0  0  0
  -34.6780  -35.6730   19.3850 C   0  0  0  0  0  0  0  0  0  0  0  0
  -34.0440  -34.6130   18.5080 C   0  0  2  0  0  0  0  0  0  0  0  0
  -32.7100  -35.0400   18.2080 O   0  0  0  0  0  0  0  0  0  0  0  0
  -31.8360  -34.2840   17.0380 P   0  0  2  0  0  5  0  0  0  0  0  0
  -32.8600  -33.4990   16.2440 O   0  0  0  0  0  0  0  0  0  0  0  0
  -31.0280  -35.3750   16.3640 O   0  0  0  0  0  0  0  0  0  0  0  0
  -30.9410  -33.3330   17.9610 O   0  0  0  0  0  0  0  0  0  0  0  0
  -29.5080  -32.6270   17.7950 P   0  0  2  0  0  5  0  0  0  0  0  0
  -29.2350  -31.5760   18.8500 O   0  0  0  0  0  0  0  0  0  0  0  0
  -29.3630  -32.2070   16.3370 O   0  0  0  0  0  0  0  0  0  0  0  0
  -28.4580  -33.8610   18.0190 O   0  0  0  0  0  0  0  0  0  0  0  0
  -27.0860  -33.4890   18.2290 C   0  0  0  0  0  0  0  0  0  0  0  0
  -26.3870  -33.1370   16.9020 C   0  0  1  0  0  0  0  0  0  0  0  0
  -25.1090  -32.5000   17.1950 O   0  0  0  0  0  0  0  0  0  0  0  0
  -24.1470  -32.9480   16.2290 C   0  0  1  0  0  0  0  0  0  0  0  0
  -23.0560  -33.6310   16.9100 N   0  0  0  0  0  0  0  0  0  0  0  0
  -23.0490  -34.1710   18.1740 C   0  0  0  0  0  0  0  0  0  0  0  0
  -21.8990  -34.7630   18.4550 N   0  0  0  0  0  0  0  0  0  0  0  0
  -21.1300  -34.5680   17.3340 C   0  0  0  0  0  0  0  0  0  0  0  0
  -19.8310  -34.9940   17.0050 C   0  0  0  0  0  0  0  0  0  0  0  0
  -19.0560  -35.7840   17.8680 N   0  0  0  0  0  0  0  0  0  0  0  0
  -19.3270  -34.6920   15.7860 N   0  0  0  0  0  0  0  0  0  0  0  0
  -20.1080  -33.9580   14.9580 C   0  0  0  0  0  0  0  0  0  0  0  0
  -21.3400  -33.4660   15.1720 N   0  0  0  0  0  0  0  0  0  0  0  0
  -21.8090  -33.8410   16.3750 C   0  0  0  0  0  0  0  0  0  0  0  0
  -24.8740  -33.8090   15.2000 C   0  0  2  0  0  0  0  0  0  0  0  0
  -25.2980  -32.9700   14.1020 O   0  0  0  0  0  0  0  0  0  0  0  0
  -26.0530  -34.3490   16.0070 C   0  0  2  0  0  0  0  0  0  0  0  0
  -27.1340  -34.8320   15.2220 O   0  0  0  0  0  0  0  0  0  0  0  0
  -27.0670  -36.3930   14.7110 P   0  0  0  0  0  0  0  0  0  0  0  0
  -28.5310  -36.8260   14.7400 O   0  0  0  0  0  0  0  0  0  0  0  0
  -26.4890  -36.3200   13.3060 O   0  0  0  0  0  0  0  0  0  0  0  0
  -26.1950  -37.1130   15.7260 O   0  0  0  0  0  0  0  0  0  0  0  0
  -34.0080  -33.4030   19.4680 C   0  0  1  0  0  0  0  0  0  0  0  0
  -35.3380  -32.6010   19.5130 C   0  0  0  0  0  0  0  0  0  0  0  0
  -35.3800  -31.7440   20.6560 O   0  0  0  0  0  0  0  0  0  0  0  0
  -36.5820  -31.9900   21.7510 P   0  0  0  0  0  0  0  0  0  0  0  0
  -37.3740  -30.6860   21.7420 O   0  0  0  0  0  0  0  0  0  0  0  0
  -37.3600  -33.1840   21.2170 O   0  0  0  0  0  0  0  0  0  0  0  0
  -35.8680  -32.2520   23.0710 O   0  0  0  0  0  0  0  0  0  0  0  0
  -33.7330  -33.9700   20.7840 O   0  0  0  0  0  0  0  0  0  0  0  0
  -34.5380  -35.3540   23.1500 C   0  0  0  0  0  0  0  0  0  0  0  0
  -33.5530  -34.6770   23.4370 O   0  0  0  0  0  0  0  0  0  0  0  0
  -35.3490  -35.7760   24.1730 N   0  0  0  0  0  0  0  0  0  0  0  0
  -36.5460  -36.4180   24.0430 C   0  0  0  0  0  0  0  0  0  0  0  0
  -37.2630  -36.6400   25.0200 O   0  0  0  0  0  0  0  0  0  0  0  0
  -38.6367  -37.8095   23.4274 H   0  0  0  0  0  0  0  0  0  0  0  0
  -38.8984  -36.9216   21.8880 H   0  0  0  0  0  0  0  0  0  0  0  0
  -37.9884  -38.4703   21.8880 H   0  0  0  0  0  0  0  0  0  0  0  0
  -36.3628  -36.7328   20.6462 H   0  0  0  0  0  0  0  0  0  0  0  0
  -33.1686  -35.9937   20.8667 H   0  0  0  0  0  0  0  0  0  0  0  0
  -34.4112  -36.6846   19.0451 H   0  0  0  0  0  0  0  0  0  0  0  0
  -35.7778  -35.6529   19.3792 H   0  0  0  0  0  0  0  0  0  0  0  0
  -34.5581  -34.4071   17.5576 H   0  0  0  0  0  0  0  0  0  0  0  0
  -27.0508  -32.6140   18.8946 H   0  0  0  0  0  0  0  0  0  0  0  0
  -26.5614  -34.3447   18.6790 H   0  0  0  0  0  0  0  0  0  0  0  0
  -27.0996  -32.4942   16.3644 H   0  0  0  0  0  0  0  0  0  0  0  0
  -23.6849  -32.1099   15.6868 H   0  0  0  0  0  0  0  0  0  0  0  0
  -23.8991  -34.1175   18.8701 H   0  0  0  0  0  0  0  0  0  0  0  0
  -19.1850  -35.4300   18.8160 H   0  0  0  0  0  0  0  0  0  0  0  0
  -19.3110  -36.7520   17.7210 H   0  0  0  0  0  0  0  0  0  0  0  0
  -19.6731  -33.7333   13.9729 H   0  0  0  0  0  0  0  0  0  0  0  0
  -24.2749  -34.6139   14.7492 H   0  0  0  0  0  0  0  0  0  0  0  0
  -25.2010  -33.5960   13.3170 H   0  0  0  0  0  0  0  0  0  0  0  0
  -25.8188  -35.2596   16.5780 H   0  0  0  0  0  0  0  0  0  0  0  0
  -33.2492  -32.6829   19.1280 H   0  0  0  0  0  0  0  0  0  0  0  0
  -35.4209  -31.9901   18.6020 H   0  0  0  0  0  0  0  0  0  0  0  0
  -36.1746  -33.3123   19.5770 H   0  0  0  0  0  0  0  0  0  0  0  0
  -35.0650  -35.4910   25.0910 H   0  0  0  0  0  0  0  0  0  0  0  0
  1  2  1  0
  2  3  2  0
  3  4  1  0
  4  5  1  0
  5  6  1  0
  6  7  1  0
  7  8  1  0
  8  9  1  0
  9 10  2  0
  9 11  1  6
  9 12  1  0
 12 13  1  0
 13 14  2  0
 13 15  1  6
 13 16  1  0
 16 17  1  0
 17 18  1  0
 18 19  1  0
 19 20  1  0
 20 21  1  0
 21 22  1  0
 22 23  2  0
 23 24  1  0
 24 25  2  0
 25 26  1  0
 25 27  1  0
 27 28  2  0
 28 29  1  0
 29 30  2  0
 20 31  1  0
 31 32  1  0
 31 33  1  0
 33 34  1  0
 34 35  1  0
 35 36  2  0
 35 37  1  0
 35 38  1  0
  7 39  1  0
 39 40  1  0
 40 41  1  0
 41 42  1  0
 42 43  2  0
 42 44  1  0
 42 45  1  0
 39 46  1  0
  4 47  1  0
 47 48  2  0
 47 49  1  0
 49 50  1  0
 50 51  2  0
 50  2  1  0
 46  5  1  0
 33 18  1  0
 30 21  1  0
 30 24  1  0
  1 52  1  0
  1 53  1  0
  1 54  1  0
  3 55  1  0
  5 56  1  1
  6 57  1  0
  6 58  1  0
  7 59  1  6
 17 60  1  0
 17 61  1  0
 18 62  1  6
 20 63  1  6
 22 64  1  0
 26 65  1  0
 26 66  1  0
 28 67  1  0
 31 68  1  6
 32 69  1  0
 33 70  1  1
 39 71  1  6
 40 72  1  0
 40 73  1  0
 49 74  1  0
M  CHG  6  11  -1  15  -1  37  -1  38  -1  44  -1  45  -1
M  END
>  <meeko>  (5) 
{"is_sidechain": [false], "free_energy": -7.781, "intermolecular_energy": -15.083, "internal_energy": -2.325}

$$$$
1u1b_ligand
     RDKit          3D

 74 78  0  0  0  0  0  0  0  0999 V2000
  -26.3300  -23.7100   13.3870 C   0  0  0  0  0  0  0  0  0  0  0  0
  -27.6100  -24.1580   14.0100 C   0  0  0  0  0  0  0  0  0  0  0  0
  -28.1370  -25.3750   13.8220 C   0  0  0  0  0  0  0  0  0  0  0  0
  -29.3090  -25.7950   14.4310 N   0  0  0  0  0  0  0  0  0  0  0  0
  -29.8490  -27.1370   14.1700 C   0  0  1  0  0  0  0  0  0  0  0  0
  -30.7140  -27.2150   12.9150 C   0  0  0  0  0  0  0  0  0  0  0  0
  -30.4920  -28.6450   12.4660 C   0  0  2  0  0  0  0  0  0  0  0  0
  -31.2980  -29.4890   13.2960 O   0  0  0  0  0  0  0  0  0  0  0  0
  -31.6580  -31.0220   12.8230 P   0  0  2  0  0  5  0  0  0  0  0  0
  -31.0430  -31.1520   11.4450 O   0  0  0  0  0  0  0  0  0  0  0  0
  -33.1570  -31.1620   13.0010 O   0  0  0  0  0  0  0  0  0  0  0  0
  -30.8270  -31.8320   13.9250 O   0  0  0  0  0  0  0  0  0  0  0  0
  -30.5600  -33.3890   14.2130 P   0  0  2  0  0  5  0  0  0  0  0  0
  -29.1870  -33.8490   13.7710 O   0  0  0  0  0  0  0  0  0  0  0  0
  -31.7600  -34.1710   13.6930 O   0  0  0  0  0  0  0  0  0  0  0  0
  -30.6290  -33.4810   15.8450 O   0  0  0  0  0  0  0  0  0  0  0  0
  -29.9630  -32.4300   16.5630 C   0  0  0  0  0  0  0  0  0  0  0  0
  -29.2000  -32.9760   17.7850 C   0  0  1  0  0  0  0  0  0  0  0  0
  -28.2210  -33.9570   17.3320 O   0  0  0  0  0  0  0  0  0  0  0  0
  -27.0340  -33.8120   18.1250 C   0  0  1  0  0  0  0  0  0  0  0  0
  -25.9100  -33.4750   17.2620 N   0  0  0  0  0  0  0  0  0  0  0  0
  -25.9430  -32.9620   15.9870 C   0  0  0  0  0  0  0  0  0  0  0  0
  -24.7290  -32.7280   15.5140 N   0  0  0  0  0  0  0  0  0  0  0  0
  -23.8860  -33.1340   16.5200 C   0  0  0  0  0  0  0  0  0  0  0  0
  -22.4850  -33.1010   16.6360 C   0  0  0  0  0  0  0  0  0  0  0  0
  -21.6580  -32.5690   15.6350 N   0  0  0  0  0  0  0  0  0  0  0  0
  -21.9090  -33.5340   17.7810 N   0  0  0  0  0  0  0  0  0  0  0  0
  -22.7300  -34.0100   18.7460 C   0  0  0  0  0  0  0  0  0  0  0  0
  -24.0690  -34.1250   18.7360 N   0  0  0  0  0  0  0  0  0  0  0  0
  -24.5900  -33.6330   17.5990 C   0  0  0  0  0  0  0  0  0  0  0  0
  -27.3140  -32.7810   19.2140 C   0  0  2  0  0  0  0  0  0  0  0  0
  -27.7870  -33.4650   20.3960 O   0  0  0  0  0  0  0  0  0  0  0  0
  -28.3960  -31.9180   18.5690 C   0  0  2  0  0  0  0  0  0  0  0  0
  -29.1580  -31.1440   19.4860 O   0  0  0  0  0  0  0  0  0  0  0  0
  -28.9190  -29.5170   19.4920 P   0  0  0  0  0  0  0  0  0  0  0  0
  -29.5030  -29.0800   18.1510 O   0  0  0  0  0  0  0  0  0  0  0  0
  -29.7110  -29.0100   20.6880 O   0  0  0  0  0  0  0  0  0  0  0  0
  -27.4150  -29.3310   19.5940 O   0  0  0  0  0  0  0  0  0  0  0  0
  -28.9980  -28.8420   12.8050 C   0  0  1  0  0  0  0  0  0  0  0  0
  -28.0330  -28.3240   11.7030 C   0  0  0  0  0  0  0  0  0  0  0  0
  -26.6870  -28.2720   12.1830 O   0  0  0  0  0  0  0  0  0  0  0  0
  -25.5980  -29.3060   11.5140 P   0  0  0  0  0  0  0  0  0  0  0  0
  -24.7160  -28.4140   10.6450 O   0  0  0  0  0  0  0  0  0  0  0  0
  -24.8680  -29.9270   12.6970 O   0  0  0  0  0  0  0  0  0  0  0  0
  -26.4330  -30.2940   10.7090 O   0  0  0  0  0  0  0  0  0  0  0  0
  -28.7840  -28.0900   14.0370 O   0  0  0  0  0  0  0  0  0  0  0  0
  -30.0270  -24.9490   15.2530 C   0  0  0  0  0  0  0  0  0  0  0  0
  -31.0480  -25.2340   15.8750 O   0  0  0  0  0  0  0  0  0  0  0  0
  -29.5180  -23.6830   15.3970 N   0  0  0  0  0  0  0  0  0  0  0  0
  -28.3330  -23.2260   14.8970 C   0  0  0  0  0  0  0  0  0  0  0  0
  -27.9010  -22.1110   15.1910 O   0  0  0  0  0  0  0  0  0  0  0  0
  -25.6069  -23.4569   14.1763 H   0  0  0  0  0  0  0  0  0  0  0  0
  -25.9231  -24.5192   12.7627 H   0  0  0  0  0  0  0  0  0  0  0  0
  -26.5165  -22.8237   12.7627 H   0  0  0  0  0  0  0  0  0  0  0  0
  -27.6148  -26.0743   13.1525 H   0  0  0  0  0  0  0  0  0  0  0  0
  -30.4862  -27.3694   15.0360 H   0  0  0  0  0  0  0  0  0  0  0  0
  -31.7730  -27.0292   13.1476 H   0  0  0  0  0  0  0  0  0  0  0  0
  -30.4559  -26.4660   12.1519 H   0  0  0  0  0  0  0  0  0  0  0  0
  -30.7391  -28.8624   11.4164 H   0  0  0  0  0  0  0  0  0  0  0  0
  -29.2496  -31.9332   15.8890 H   0  0  0  0  0  0  0  0  0  0  0  0
  -30.7238  -31.7204   16.9202 H   0  0  0  0  0  0  0  0  0  0  0  0
  -29.9764  -33.3850   18.4483 H   0  0  0  0  0  0  0  0  0  0  0  0
  -26.7556  -34.7503   18.6270 H   0  0  0  0  0  0  0  0  0  0  0  0
  -26.8692  -32.7687   15.4259 H   0  0  0  0  0  0  0  0  0  0  0  0
  -20.8330  -32.1760   16.0870 H   0  0  0  0  0  0  0  0  0  0  0  0
  -21.4820  -33.2960   14.9540 H   0  0  0  0  0  0  0  0  0  0  0  0
  -22.2322  -34.3499   19.6662 H   0  0  0  0  0  0  0  0  0  0  0  0
  -26.4468  -32.1869   19.5380 H   0  0  0  0  0  0  0  0  0  0  0  0
  -28.4700  -32.8120   20.7510 H   0  0  0  0  0  0  0  0  0  0  0  0
  -27.9991  -31.1137   17.9321 H   0  0  0  0  0  0  0  0  0  0  0  0
  -28.7786  -29.9159   12.8979 H   0  0  0  0  0  0  0  0  0  0  0  0
  -28.0800  -29.0004   10.8368 H   0  0  0  0  0  0  0  0  0  0  0  0
  -28.3420  -27.3080   11.4161 H   0  0  0  0  0  0  0  0  0  0  0  0
  -30.0330  -23.0810   16.0120 H   0  0  0  0  0  0  0  0  0  0  0  0
  1  2  1  0
  2  3  2  0
  3  4  1  0
  4  5  1  0
  5  6  1  0
  6  7  1  0
  7  8  1  0
  8  9  1  0
  9 10  2  0
  9 11  1  6
  9 12  1  0
 12 13  1  0
 13 14  2  0
 13 15  1  6
 13 16  1  0
 16 17  1  0
 17 18  1  0
 18 19  1  0
 19 20  1  0
 20 21  1  0
 21 22  1  0
 22 23  2  0
 23 24  1  0
 24 25  2  0
 25 26  1  0
 25 27  1  0
 27 28  2  0
 28 29  1  0
 29 30  2  0
 20 31  1  0
 31 32  1  0
 31 33  1  0
 33 34  1  0
 34 35  1  0
 35 36  2  0
 35 37  1  0
 35 38  1  0
  7 39  1  0
 39 40  1  0
 40 41  1  0
 41 42  1  0
 42 43  2  0
 42 44  1  0
 42 45  1  0
 39 46  1  0
  4 47  1  0
 47 48  2  0
 47 49  1  0
 49 50  1  0
 50 51  2  0
 50  2  1  0
 46  5  1  0
 33 18  1  0
 30 21  1  0
 30 24  1  0
  1 52  1  0
  1 53  1  0
  1 54  1  0
  3 55  1  0
  5 56  1  1
  6 57  1  0
  6 58  1  0
  7 59  1  6
 17 60  1  0
 17 61  1  0
 18 62  1  1
 20 63  1  1
 22 64  1  0
 26 65  1  0
 26 66  1  0
 28 67  1  0
 31 68  1  1
 32 69  1  0
 33 70  1  6
 39 71  1  1
 40 72  1  0
 40 73  1  0
 49 74  1  0
M  CHG  6  11  -1  15  -1  37  -1  38  -1  44  -1  45  -1
M  END
>  <meeko>  (6) 
{"is_sidechain": [false], "free_energy": -7.757, "intermolecular_energy": -14.241, "internal_energy": -3.12}

$$$$
1u1b_ligand
     RDKit          3D

 74 78  0  0  0  0  0  0  0  0999 V2000
  -21.5910  -33.0130   16.6410 C   0  0  0  0  0  0  0  0  0  0  0  0
  -22.9450  -33.2720   17.2130 C   0  0  0  0  0  0  0  0  0  0  0  0
  -24.0830  -32.9050   16.6100 C   0  0  0  0  0  0  0  0  0  0  0  0
  -25.3380  -33.1790   17.1310 N   0  0  0  0  0  0  0  0  0  0  0  0
  -26.5520  -32.7330   16.4330 C   0  0  1  0  0  0  0  0  0  0  0  0
  -27.7150  -33.7160   16.5380 C   0  0  0  0  0  0  0  0  0  0  0  0
  -28.9150  -32.7940   16.4710 C   0  0  2  0  0  0  0  0  0  0  0  0
  -29.1070  -32.4320   15.0990 O   0  0  0  0  0  0  0  0  0  0  0  0
  -30.5720  -32.6350   14.3800 P   0  0  2  0  0  5  0  0  0  0  0  0
  -31.3620  -31.4010   14.7670 O   0  0  0  0  0  0  0  0  0  0  0  0
  -31.0500  -34.0070   14.8100 O   0  0  0  0  0  0  0  0  0  0  0  0
  -30.1130  -32.5920   12.8480 O   0  0  0  0  0  0  0  0  0  0  0  0
  -28.9440  -33.2960   12.0030 P   0  0  2  0  0  5  0  0  0  0  0  0
  -29.3640  -33.6630   10.5950 O   0  0  0  0  0  0  0  0  0  0  0  0
  -28.3480  -34.4020   12.8650 O   0  0  0  0  0  0  0  0  0  0  0  0
  -27.8010  -32.1290   11.9070 O   0  0  0  0  0  0  0  0  0  0  0  0
  -27.4500  -31.7010   10.5810 C   0  0  0  0  0  0  0  0  0  0  0  0
  -26.6870  -30.3620   10.6040 C   0  0  1  0  0  0  0  0  0  0  0  0
  -27.6500  -29.2700   10.6610 O   0  0  0  0  0  0  0  0  0  0  0  0
  -27.1210  -28.2430   11.5130 C   0  0  1  0  0  0  0  0  0  0  0  0
  -28.0210  -28.0330   12.6380 N   0  0  0  0  0  0  0  0  0  0  0  0
  -28.8530  -28.9460   13.2400 C   0  0  0  0  0  0  0  0  0  0  0  0
  -29.4980  -28.4250   14.2730 N   0  0  0  0  0  0  0  0  0  0  0  0
  -29.0790  -27.1170   14.3130 C   0  0  0  0  0  0  0  0  0  0  0  0
  -29.3720  -26.0680   15.2020 C   0  0  0  0  0  0  0  0  0  0  0  0
  -30.2150  -26.2350   16.3120 N   0  0  0  0  0  0  0  0  0  0  0  0
  -28.7700  -24.8690   15.0280 N   0  0  0  0  0  0  0  0  0  0  0  0
  -27.9340  -24.7440   13.9700 C   0  0  0  0  0  0  0  0  0  0  0  0
  -27.6060  -25.6550   13.0390 N   0  0  0  0  0  0  0  0  0  0  0  0
  -28.1910  -26.8390   13.2910 C   0  0  0  0  0  0  0  0  0  0  0  0
  -25.7040  -28.6440   11.9150 C   0  0  2  0  0  0  0  0  0  0  0  0
  -24.7700  -28.0730   10.9720 O   0  0  0  0  0  0  0  0  0  0  0  0
  -25.7630  -30.1670   11.8250 C   0  0  2  0  0  0  0  0  0  0  0  0
  -24.4960  -30.8020   11.7260 O   0  0  0  0  0  0  0  0  0  0  0  0
  -23.9440  -31.6120   13.0470 P   0  0  0  0  0  0  0  0  0  0  0  0
  -22.5930  -32.1460   12.5810 O   0  0  0  0  0  0  0  0  0  0  0  0
  -23.8310  -30.5540   14.1340 O   0  0  0  0  0  0  0  0  0  0  0  0
  -24.9730  -32.6970   13.3130 O   0  0  0  0  0  0  0  0  0  0  0  0
  -28.4090  -31.5740   17.2730 C   0  0  1  0  0  0  0  0  0  0  0  0
  -28.5820  -31.7220   18.8100 C   0  0  0  0  0  0  0  0  0  0  0  0
  -29.5620  -30.8060   19.3060 O   0  0  0  0  0  0  0  0  0  0  0  0
  -29.0980  -29.2470   19.5430 P   0  0  0  0  0  0  0  0  0  0  0  0
  -27.5820  -29.3220   19.6940 O   0  0  0  0  0  0  0  0  0  0  0  0
  -29.5560  -28.5070   18.2930 O   0  0  0  0  0  0  0  0  0  0  0  0
  -29.8090  -28.8110   20.8180 O   0  0  0  0  0  0  0  0  0  0  0  0
  -26.9910  -31.4670   16.9470 O   0  0  0  0  0  0  0  0  0  0  0  0
  -25.4810  -33.8280   18.3410 C   0  0  0  0  0  0  0  0  0  0  0  0
  -26.5410  -34.1580   18.8680 O   0  0  0  0  0  0  0  0  0  0  0  0
  -24.3130  -34.1500   18.9860 N   0  0  0  0  0  0  0  0  0  0  0  0
  -23.0490  -33.9860   18.5000 C   0  0  0  0  0  0  0  0  0  0  0  0
  -22.0690  -34.4270   19.1020 O   0  0  0  0  0  0  0  0  0  0  0  0
  -20.8680  -32.8747   17.4584 H   0  0  0  0  0  0  0  0  0  0  0  0
  -21.2848  -33.8689   16.0215 H   0  0  0  0  0  0  0  0  0  0  0  0
  -21.6223  -32.1046   16.0215 H   0  0  0  0  0  0  0  0  0  0  0  0
  -24.0189  -32.3605   15.6564 H   0  0  0  0  0  0  0  0  0  0  0  0
  -26.2679  -32.6562   15.3731 H   0  0  0  0  0  0  0  0  0  0  0  0
  -27.7120  -34.4293   15.7007 H   0  0  0  0  0  0  0  0  0  0  0  0
  -27.6865  -34.3412   17.4426 H   0  0  0  0  0  0  0  0  0  0  0  0
  -29.8603  -33.2099   16.8498 H   0  0  0  0  0  0  0  0  0  0  0  0
  -26.8134  -32.4673   10.1146 H   0  0  0  0  0  0  0  0  0  0  0  0
  -28.3775  -31.5603   10.0065 H   0  0  0  0  0  0  0  0  0  0  0  0
  -26.0662  -30.3698    9.6960 H   0  0  0  0  0  0  0  0  0  0  0  0
  -27.0530  -27.2732   10.9984 H   0  0  0  0  0  0  0  0  0  0  0  0
  -28.9696  -29.9868   12.9037 H   0  0  0  0  0  0  0  0  0  0  0  0
  -30.8550  -27.0020   16.1060 H   0  0  0  0  0  0  0  0  0  0  0  0
  -29.6360  -26.3530   17.1320 H   0  0  0  0  0  0  0  0  0  0  0  0
  -27.4571  -23.7592   13.8573 H   0  0  0  0  0  0  0  0  0  0  0  0
  -25.3779  -28.2984   12.9071 H   0  0  0  0  0  0  0  0  0  0  0  0
  -25.2020  -27.1840   10.7680 H   0  0  0  0  0  0  0  0  0  0  0  0
  -26.1410  -30.6501   12.7381 H   0  0  0  0  0  0  0  0  0  0  0  0
  -28.9944  -30.6830   17.0021 H   0  0  0  0  0  0  0  0  0  0  0  0
  -28.9016  -32.7494   19.0387 H   0  0  0  0  0  0  0  0  0  0  0  0
  -27.6192  -31.5011   19.2939 H   0  0  0  0  0  0  0  0  0  0  0  0
  -24.4240  -34.6390   19.8550 H   0  0  0  0  0  0  0  0  0  0  0  0
  1  2  1  0
  2  3  2  0
  3  4  1  0
  4  5  1  0
  5  6  1  0
  6  7  1  0
  7  8  1  0
  8  9  1  0
  9 10  2  0
  9 11  1  1
  9 12  1  0
 12 13  1  0
 13 14  2  0
 13 15  1  1
 13 16  1  0
 16 17  1  0
 17 18  1  0
 18 19  1  0
 19 20  1  0
 20 21  1  0
 21 22  1  0
 22 23  2  0
 23 24  1  0
 24 25  2  0
 25 26  1  0
 25 27  1  0
 27 28  2  0
 28 29  1  0
 29 30  2  0
 20 31  1  0
 31 32  1  0
 31 33  1  0
 33 34  1  0
 34 35  1  0
 35 36  2  0
 35 37  1  0
 35 38  1  0
  7 39  1  0
 39 40  1  0
 40 41  1  0
 41 42  1  0
 42 43  2  0
 42 44  1  0
 42 45  1  0
 39 46  1  0
  4 47  1  0
 47 48  2  0
 47 49  1  0
 49 50  1  0
 50 51  2  0
 50  2  1  0
 46  5  1  0
 33 18  1  0
 30 21  1  0
 30 24  1  0
  1 52  1  0
  1 53  1  0
  1 54  1  0
  3 55  1  0
  5 56  1  6
  6 57  1  0
  6 58  1  0
  7 59  1  1
 17 60  1  0
 17 61  1  0
 18 62  1  6
 20 63  1  6
 22 64  1  0
 26 65  1  0
 26 66  1  0
 28 67  1  0
 31 68  1  1
 32 69  1  0
 33 70  1  1
 39 71  1  6
 40 72  1  0
 40 73  1  0
 49 74  1  0
M  CHG  6  11  -1  15  -1  37  -1  38  -1  44  -1  45  -1
M  END
>  <meeko>  (7) 
{"is_sidechain": [false], "free_energy": -7.748, "intermolecular_energy": -14.047, "internal_energy": -3.297}

$$$$
1u1b_ligand
     RDKit          3D

 74 78  0  0  0  0  0  0  0  0999 V2000
  -18.3430  -33.2760   14.4240 C   0  0  0  0  0  0  0  0  0  0  0  0
  -19.3110  -33.6940   15.4810 C   0  0  0  0  0  0  0  0  0  0  0  0
  -20.6380  -33.6940   15.3060 C   0  0  0  0  0  0  0  0  0  0  0  0
  -21.5290  -34.1170   16.2800 N   0  0  0  0  0  0  0  0  0  0  0  0
  -22.9790  -34.0760   16.0380 C   0  0  1  0  0  0  0  0  0  0  0  0
  -23.6390  -32.7770   16.4920 C   0  0  0  0  0  0  0  0  0  0  0  0
  -24.7950  -32.6530   15.5200 C   0  0  2  0  0  0  0  0  0  0  0  0
  -25.8260  -33.5450   15.9590 O   0  0  0  0  0  0  0  0  0  0  0  0
  -27.4100  -33.1490   15.7610 P   0  0  2  0  0  5  0  0  0  0  0  0
  -28.0500  -34.4010   15.1970 O   0  0  0  0  0  0  0  0  0  0  0  0
  -27.4110  -31.8670   14.9530 O   0  0  0  0  0  0  0  0  0  0  0  0
  -27.8090  -32.9150   17.2920 O   0  0  0  0  0  0  0  0  0  0  0  0
  -27.5960  -31.7170   18.3400 P   0  0  2  0  0  5  0  0  0  0  0  0
  -26.1780  -31.1850   18.3560 O   0  0  0  0  0  0  0  0  0  0  0  0
  -28.1940  -32.1530   19.6720 O   0  0  0  0  0  0  0  0  0  0  0  0
  -28.5770  -30.5410   17.7650 O   0  0  0  0  0  0  0  0  0  0  0  0
  -29.4320  -29.9080   18.7300 C   0  0  0  0  0  0  0  0  0  0  0  0
  -30.6020  -29.1710   18.0490 C   0  0  1  0  0  0  0  0  0  0  0  0
  -30.0640  -28.1350   17.1760 O   0  0  0  0  0  0  0  0  0  0  0  0
  -30.8740  -28.0750   15.9920 C   0  0  1  0  0  0  0  0  0  0  0  0
  -30.0530  -28.3650   14.8260 N   0  0  0  0  0  0  0  0  0  0  0  0
  -29.9750  -29.5370   14.1130 C   0  0  0  0  0  0  0  0  0  0  0  0
  -29.1600  -29.4350   13.0750 N   0  0  0  0  0  0  0  0  0  0  0  0
  -28.6770  -28.1510   13.1440 C   0  0  0  0  0  0  0  0  0  0  0  0
  -27.8070  -27.4320   12.3050 C   0  0  0  0  0  0  0  0  0  0  0  0
  -27.2650  -27.9830   11.1340 N   0  0  0  0  0  0  0  0  0  0  0  0
  -27.5320  -26.1400   12.5940 N   0  0  0  0  0  0  0  0  0  0  0  0
  -28.0960  -25.6210   13.7110 C   0  0  0  0  0  0  0  0  0  0  0  0
  -28.9070  -26.2150   14.6030 N   0  0  0  0  0  0  0  0  0  0  0  0
  -29.1870  -27.4780   14.2380 C   0  0  0  0  0  0  0  0  0  0  0  0
  -32.0540  -29.0250   16.1770 C   0  0  2  0  0  0  0  0  0  0  0  0
  -33.1640  -28.2920   16.7400 O   0  0  0  0  0  0  0  0  0  0  0  0
  -31.4860  -30.0580   17.1480 C   0  0  2  0  0  0  0  0  0  0  0  0
  -32.4670  -30.8230   17.8360 O   0  0  0  0  0  0  0  0  0  0  0  0
  -32.2780  -32.4560   17.8630 P   0  0  0  0  0  0  0  0  0  0  0  0
  -31.9310  -32.7360   19.3230 O   0  0  0  0  0  0  0  0  0  0  0  0
  -33.6310  -33.0130   17.4490 O   0  0  0  0  0  0  0  0  0  0  0  0
  -31.1430  -32.7470   16.8970 O   0  0  0  0  0  0  0  0  0  0  0  0
  -24.1570  -33.1830   14.2180 C   0  0  1  0  0  0  0  0  0  0  0  0
  -23.3540  -32.1090   13.4330 C   0  0  0  0  0  0  0  0  0  0  0  0
  -24.1050  -30.8990   13.3050 O   0  0  0  0  0  0  0  0  0  0  0  0
  -24.7630  -30.5610   11.8370 P   0  0  0  0  0  0  0  0  0  0  0  0
  -24.0000  -31.4570   10.8660 O   0  0  0  0  0  0  0  0  0  0  0  0
  -26.2360  -30.9180   11.9760 O   0  0  0  0  0  0  0  0  0  0  0  0
  -24.5000  -29.0760   11.6190 O   0  0  0  0  0  0  0  0  0  0  0  0
  -23.2590  -34.2530   14.6410 O   0  0  0  0  0  0  0  0  0  0  0  0
  -21.0860  -34.5330   17.5200 C   0  0  0  0  0  0  0  0  0  0  0  0
  -21.7830  -34.9670   18.4340 O   0  0  0  0  0  0  0  0  0  0  0  0
  -19.7290  -34.4750   17.7170 N   0  0  0  0  0  0  0  0  0  0  0  0
  -18.7890  -34.1500   16.7830 C   0  0  0  0  0  0  0  0  0  0  0  0
  -17.5850  -34.2530   17.0230 O   0  0  0  0  0  0  0  0  0  0  0  0
  -17.4312  -32.8823   14.8968 H   0  0  0  0  0  0  0  0  0  0  0  0
  -18.0862  -34.1434   13.7982 H   0  0  0  0  0  0  0  0  0  0  0  0
  -18.7984  -32.4943   13.7982 H   0  0  0  0  0  0  0  0  0  0  0  0
  -21.0402  -33.3420   14.3446 H   0  0  0  0  0  0  0  0  0  0  0  0
  -23.3995  -34.8970   16.6373 H   0  0  0  0  0  0  0  0  0  0  0  0
  -23.9960  -32.8518   17.5298 H   0  0  0  0  0  0  0  0  0  0  0  0
  -22.9613  -31.9105   16.4873 H   0  0  0  0  0  0  0  0  0  0  0  0
  -25.2323  -31.6486   15.4198 H   0  0  0  0  0  0  0  0  0  0  0  0
  -29.8376  -30.6750   19.4061 H   0  0  0  0  0  0  0  0  0  0  0  0
  -28.8367  -29.1702   19.2879 H   0  0  0  0  0  0  0  0  0  0  0  0
  -31.2205  -28.7895   18.8748 H   0  0  0  0  0  0  0  0  0  0  0  0
  -31.2874  -27.0696   15.8237 H   0  0  0  0  0  0  0  0  0  0  0  0
  -30.5254  -30.4528   14.3742 H   0  0  0  0  0  0  0  0  0  0  0  0
  -26.2500  -27.8910   11.1870 H   0  0  0  0  0  0  0  0  0  0  0  0
  -27.6160  -28.9250   11.0380 H   0  0  0  0  0  0  0  0  0  0  0  0
  -27.8570  -24.5671   13.9164 H   0  0  0  0  0  0  0  0  0  0  0  0
  -32.4378  -29.4872   15.2555 H   0  0  0  0  0  0  0  0  0  0  0  0
  -33.3100  -28.7780   17.6110 H   0  0  0  0  0  0  0  0  0  0  0  0
  -30.9296  -30.8695   16.6562 H   0  0  0  0  0  0  0  0  0  0  0  0
  -24.9469  -33.5142   13.5278 H   0  0  0  0  0  0  0  0  0  0  0  0
  -22.4179  -31.8961   13.9700 H   0  0  0  0  0  0  0  0  0  0  0  0
  -23.1412  -32.4973   12.4261 H   0  0  0  0  0  0  0  0  0  0  0  0
  -19.4120  -34.7990   18.6120 H   0  0  0  0  0  0  0  0  0  0  0  0
  1  2  1  0
  2  3  2  0
  3  4  1  0
  4  5  1  0
  5  6  1  0
  6  7  1  0
  7  8  1  0
  8  9  1  0
  9 10  2  0
  9 11  1  6
  9 12  1  0
 12 13  1  0
 13 14  2  0
 13 15  1  1
 13 16  1  0
 16 17  1  0
 17 18  1  0
 18 19  1  0
 19 20  1  0
 20 21  1  0
 21 22  1  0
 22 23  2  0
 23 24  1  0
 24 25  2  0
 25 26  1  0
 25 27  1  0
 27 28  2  0
 28 29  1  0
 29 30  2  0
 20 31  1  0
 31 32  1  0
 31 33  1  0
 33 34  1  0
 34 35  1  0
 35 36  2  0
 35 37  1  0
 35 38  1  0
  7 39  1  0
 39 40  1  0
 40 41  1  0
 41 42  1  0
 42 43  2  0
 42 44  1  0
 42 45  1  0
 39 46  1  0
  4 47  1  0
 47 48  2  0
 47 49  1  0
 49 50  1  0
 50 51  2  0
 50  2  1  0
 46  5  1  0
 33 18  1  0
 30 21  1  0
 30 24  1  0
  1 52  1  0
  1 53  1  0
  1 54  1  0
  3 55  1  0
  5 56  1  1
  6 57  1  0
  6 58  1  0
  7 59  1  6
 17 60  1  0
 17 61  1  0
 18 62  1  1
 20 63  1  6
 22 64  1  0
 26 65  1  0
 26 66  1  0
 28 67  1  0
 31 68  1  6
 32 69  1  0
 33 70  1  6
 39 71  1  6
 40 72  1  0
 40 73  1  0
 49 74  1  0
M  CHG  6  11  -1  15  -1  37  -1  38  -1  44  -1  45  -1
M  END
>  <meeko>  (8) 
{"is_sidechain": [false], "free_energy": -7.656, "intermolecular_energy": -13.279, "internal_energy": -3.892}

$$$$
1u1b_ligand
     RDKit          3D

 74 78  0  0  0  0  0  0  0  0999 V2000
  -28.7650  -24.1520   15.3720 C   0  0  0  0  0  0  0  0  0  0  0  0
  -28.4550  -25.3210   14.4970 C   0  0  0  0  0  0  0  0  0  0  0  0
  -29.1400  -26.4720   14.5330 C   0  0  0  0  0  0  0  0  0  0  0  0
  -28.8680  -27.5410   13.6940 N   0  0  0  0  0  0  0  0  0  0  0  0
  -29.6430  -28.7860   13.7940 C   0  0  1  0  0  0  0  0  0  0  0  0
  -28.8770  -29.9320   14.4500 C   0  0  0  0  0  0  0  0  0  0  0  0
  -29.9920  -30.7250   15.1010 C   0  0  2  0  0  0  0  0  0  0  0  0
  -30.6300  -31.4960   14.0770 O   0  0  0  0  0  0  0  0  0  0  0  0
  -30.2970  -33.0970   13.9090 P   0  0  2  0  0  5  0  0  0  0  0  0
  -29.4510  -33.1820   12.6550 O   0  0  0  0  0  0  0  0  0  0  0  0
  -31.6370  -33.8020   13.9680 O   0  0  0  0  0  0  0  0  0  0  0  0
  -29.4240  -33.3170   15.2320 O   0  0  0  0  0  0  0  0  0  0  0  0
  -29.5750  -34.2360   16.5390 P   0  0  2  0  0  5  0  0  0  0  0  0
  -29.3640  -35.7090   16.2590 O   0  0  0  0  0  0  0  0  0  0  0  0
  -30.8660  -33.8360   17.2430 O   0  0  0  0  0  0  0  0  0  0  0  0
  -28.3550  -33.7190   17.4990 O   0  0  0  0  0  0  0  0  0  0  0  0
  -27.0730  -34.3250   17.2680 C   0  0  0  0  0  0  0  0  0  0  0  0
  -26.2240  -33.4930   16.2870 C   0  0  1  0  0  0  0  0  0  0  0  0
  -25.1350  -32.8610   17.0210 O   0  0  0  0  0  0  0  0  0  0  0  0
  -23.9630  -32.8730   16.1940 C   0  0  1  0  0  0  0  0  0  0  0  0
  -22.9080  -33.6260   16.8560 N   0  0  0  0  0  0  0  0  0  0  0  0
  -22.9830  -34.3440   18.0250 C   0  0  0  0  0  0  0  0  0  0  0  0
  -21.8410  -34.9490   18.3120 N   0  0  0  0  0  0  0  0  0  0  0  0
  -20.9930  -34.5790   17.2960 C   0  0  0  0  0  0  0  0  0  0  0  0
  -19.6600  -34.9270   17.0160 C   0  0  0  0  0  0  0  0  0  0  0  0
  -18.9310  -35.8200   17.8160 N   0  0  0  0  0  0  0  0  0  0  0  0
  -19.0730  -34.4410   15.8980 N   0  0  0  0  0  0  0  0  0  0  0  0
  -19.8090  -33.6100   15.1230 C   0  0  0  0  0  0  0  0  0  0  0  0
  -21.0680  -33.1780   15.3050 N   0  0  0  0  0  0  0  0  0  0  0  0
  -21.6180  -33.7320   16.4000 C   0  0  0  0  0  0  0  0  0  0  0  0
  -24.3550  -33.4210   14.8250 C   0  0  2  0  0  0  0  0  0  0  0  0
  -24.7160  -32.3180   13.9630 O   0  0  0  0  0  0  0  0  0  0  0  0
  -25.5500  -34.3100   15.1640 C   0  0  2  0  0  0  0  0  0  0  0  0
  -26.3890  -34.6170   14.0590 O   0  0  0  0  0  0  0  0  0  0  0  0
  -26.6590  -36.2050   13.7260 P   0  0  0  0  0  0  0  0  0  0  0  0
  -28.1260  -36.2210   13.3050 O   0  0  0  0  0  0  0  0  0  0  0  0
  -25.7030  -36.5340   12.5900 O   0  0  0  0  0  0  0  0  0  0  0  0
  -26.3860  -36.9410   15.0260 O   0  0  0  0  0  0  0  0  0  0  0  0
  -30.9330  -29.5960   15.5770 C   0  0  1  0  0  0  0  0  0  0  0  0
  -30.5350  -28.9880   16.9500 C   0  0  0  0  0  0  0  0  0  0  0  0
  -29.3460  -29.6000   17.4560 O   0  0  0  0  0  0  0  0  0  0  0  0
  -29.2650  -29.8890   19.0720 P   0  0  0  0  0  0  0  0  0  0  0  0
  -30.0270  -31.1970   19.2610 O   0  0  0  0  0  0  0  0  0  0  0  0
  -27.7780  -29.9930   19.3780 O   0  0  0  0  0  0  0  0  0  0  0  0
  -29.9510  -28.6940   19.7230 O   0  0  0  0  0  0  0  0  0  0  0  0
  -30.8480  -28.5700   14.5430 O   0  0  0  0  0  0  0  0  0  0  0  0
  -27.8320  -27.4860   12.7830 C   0  0  0  0  0  0  0  0  0  0  0  0
  -27.5360  -28.3560   11.9670 O   0  0  0  0  0  0  0  0  0  0  0  0
  -27.0930  -26.3300   12.7900 N   0  0  0  0  0  0  0  0  0  0  0  0
  -27.3510  -25.2100   13.5260 C   0  0  0  0  0  0  0  0  0  0  0  0
  -26.7040  -24.1750   13.3640 O   0  0  0  0  0  0  0  0  0  0  0  0
  -28.6853  -24.4525   16.4272 H   0  0  0  0  0  0  0  0  0  0  0  0
  -28.0509  -23.3408   15.1668 H   0  0  0  0  0  0  0  0  0  0  0  0
  -29.7872  -23.8013   15.1668 H   0  0  0  0  0  0  0  0  0  0  0  0
  -29.9567  -26.5732   15.2629 H   0  0  0  0  0  0  0  0  0  0  0  0
  -29.8654  -29.0758   12.7564 H   0  0  0  0  0  0  0  0  0  0  0  0
  -28.3420  -30.5351   13.7016 H   0  0  0  0  0  0  0  0  0  0  0  0
  -28.0997  -29.6000   15.1540 H   0  0  0  0  0  0  0  0  0  0  0  0
  -29.6860  -31.4118   15.9039 H   0  0  0  0  0  0  0  0  0  0  0  0
  -26.5375  -34.4047   18.2255 H   0  0  0  0  0  0  0  0  0  0  0  0
  -27.2356  -35.3193   16.8265 H   0  0  0  0  0  0  0  0  0  0  0  0
  -26.9292  -32.7850   15.8272 H   0  0  0  0  0  0  0  0  0  0  0  0
  -23.5568  -31.8627   16.0379 H   0  0  0  0  0  0  0  0  0  0  0  0
  -23.8863  -34.4086   18.6494 H   0  0  0  0  0  0  0  0  0  0  0  0
  -19.3030  -36.7570   17.6580 H   0  0  0  0  0  0  0  0  0  0  0  0
  -17.9490  -35.6960   17.6110 H   0  0  0  0  0  0  0  0  0  0  0  0
  -19.3063  -33.2367   14.2186 H   0  0  0  0  0  0  0  0  0  0  0  0
  -23.5654  -33.9712   14.2923 H   0  0  0  0  0  0  0  0  0  0  0  0
  -25.3770  -32.7540   13.3390 H   0  0  0  0  0  0  0  0  0  0  0  0
  -25.2716  -35.3282   15.4735 H   0  0  0  0  0  0  0  0  0  0  0  0
  -31.9474  -29.9955   15.7230 H   0  0  0  0  0  0  0  0  0  0  0  0
  -30.3604  -27.9088   16.8285 H   0  0  0  0  0  0  0  0  0  0  0  0
  -31.3527  -29.1681   17.6633 H   0  0  0  0  0  0  0  0  0  0  0  0
  -26.3560  -26.2890   12.1110 H   0  0  0  0  0  0  0  0  0  0  0  0
  1  2  1  0
  2  3  2  0
  3  4  1  0
  4  5  1  0
  5  6  1  0
  6  7  1  0
  7  8  1  0
  8  9  1  0
  9 10  2  0
  9 11  1  6
  9 12  1  0
 12 13  1  0
 13 14  2  0
 13 15  1  1
 13 16  1  0
 16 17  1  0
 17 18  1  0
 18 19  1  0
 19 20  1  0
 20 21  1  0
 21 22  1  0
 22 23  2  0
 23 24  1  0
 24 25  2  0
 25 26  1  0
 25 27  1  0
 27 28  2  0
 28 29  1  0
 29 30  2  0
 20 31  1  0
 31 32  1  0
 31 33  1  0
 33 34  1  0
 34 35  1  0
 35 36  2  0
 35 37  1  0
 35 38  1  0
  7 39  1  0
 39 40  1  0
 40 41  1  0
 41 42  1  0
 42 43  2  0
 42 44  1  0
 42 45  1  0
 39 46  1  0
  4 47  1  0
 47 48  2  0
 47 49  1  0
 49 50  1  0
 50 51  2  0
 50  2  1  0
 46  5  1  0
 33 18  1  0
 30 21  1  0
 30 24  1  0
  1 52  1  0
  1 53  1  0
  1 54  1  0
  3 55  1  0
  5 56  1  6
  6 57  1  0
  6 58  1  0
  7 59  1  1
 17 60  1  0
 17 61  1  0
 18 62  1  6
 20 63  1  6
 22 64  1  0
 26 65  1  0
 26 66  1  0
 28 67  1  0
 31 68  1  6
 32 69  1  0
 33 70  1  1
 39 71  1  1
 40 72  1  0
 40 73  1  0
 49 74  1  0
M  CHG  6  11  -1  15  -1  37  -1  38  -1  44  -1  45  -1
M  END
>  <meeko>  (9) 
{"is_sidechain": [false], "free_energy": -7.636, "intermolecular_energy": -14.082, "internal_energy": -3.052}

$$$$
