3nx7_ligand
     RDKit          3D

 36 36  0  0  0  0  0  0  0  0999 V2000
   -6.7350   -7.6140   -9.9730 C   0  0  0  0  0  0  0  0  0  0  0  0
   -6.7900   -7.6500   -8.5530 O   0  0  0  0  0  0  0  0  0  0  0  0
   -5.7790   -7.0300   -7.8740 C   0  0  0  0  0  0  0  0  0  0  0  0
   -5.8460   -6.5450   -6.5660 C   0  0  0  0  0  0  0  0  0  0  0  0
   -4.7310   -5.9300   -5.9860 C   0  0  0  0  0  0  0  0  0  0  0  0
   -3.5410   -5.8160   -6.7120 C   0  0  0  0  0  0  0  0  0  0  0  0
   -2.1360   -5.0040   -5.9890 S   0  0  0  0  0  0  0  0  0  0  0  0
   -1.0060   -5.1890   -6.8730 O   0  0  0  0  0  0  0  0  0  0  0  0
   -2.5470   -3.6720   -5.5910 O   0  0  0  0  0  0  0  0  0  0  0  0
   -1.8600   -5.8580   -4.5570 N   0  0  0  0  0  0  0  0  0  0  0  0
   -1.5530   -5.1460   -3.2840 C   0  0  0  0  0  0  0  0  0  0  0  0
   -0.1120   -4.6330   -3.2090 C   0  0  0  0  0  0  0  0  0  0  0  0
    0.0040   -3.3320   -3.7780 O   0  0  0  0  0  0  0  0  0  0  0  0
   -1.1550   -7.1600   -4.6990 C   0  0  0  0  0  0  0  0  0  0  0  0
   -2.1020   -8.2800   -4.3080 C   0  0  0  0  0  0  0  0  0  0  0  0
   -3.2750   -8.0880   -3.9840 O   0  0  0  0  0  0  0  0  0  0  0  0
   -1.5460   -9.5410   -4.3430 N   0  0  0  0  0  0  0  0  0  0  0  0
   -2.4650  -10.5980   -4.1170 O   0  0  0  0  0  0  0  0  0  0  0  0
   -3.4750   -6.2730   -8.0290 C   0  0  0  0  0  0  0  0  0  0  0  0
   -4.5920   -6.8880   -8.5980 C   0  0  0  0  0  0  0  0  0  0  0  0
   -5.8540   -7.0373  -10.2913 H   0  0  0  0  0  0  0  0  0  0  0  0
   -6.6623   -8.6399  -10.3633 H   0  0  0  0  0  0  0  0  0  0  0  0
   -7.6461   -7.1369  -10.3633 H   0  0  0  0  0  0  0  0  0  0  0  0
   -6.7778   -6.6468   -5.9903 H   0  0  0  0  0  0  0  0  0  0  0  0
   -4.7903   -5.5367   -4.9604 H   0  0  0  0  0  0  0  0  0  0  0  0
   -2.2345   -4.2875   -3.1910 H   0  0  0  0  0  0  0  0  0  0  0  0
   -1.6841   -5.8698   -2.4661 H   0  0  0  0  0  0  0  0  0  0  0  0
    0.1996   -4.5922   -2.1548 H   0  0  0  0  0  0  0  0  0  0  0  0
    0.5314   -5.3199   -3.7784 H   0  0  0  0  0  0  0  0  0  0  0  0
   -0.4530   -3.3730   -4.6480 H   0  0  0  0  0  0  0  0  0  0  0  0
   -0.8358   -7.2946   -5.7430 H   0  0  0  0  0  0  0  0  0  0  0  0
   -0.2700   -7.1766   -4.0459 H   0  0  0  0  0  0  0  0  0  0  0  0
   -0.8020   -9.7390   -5.0220 H   0  0  0  0  0  0  0  0  0  0  0  0
   -2.1750  -10.9520   -3.2480 H   0  0  0  0  0  0  0  0  0  0  0  0
   -2.5513   -6.1498   -8.6135 H   0  0  0  0  0  0  0  0  0  0  0  0
   -4.5370   -7.2657   -9.6297 H   0  0  0  0  0  0  0  0  0  0  0  0
  1  2  1  0
  2  3  1  0
  3  4  2  0
  4  5  1  0
  5  6  2  0
  6  7  1  0
  7  8  2  0
  7  9  2  0
  7 10  1  0
 10 11  1  0
 11 12  1  0
 12 13  1  0
 10 14  1  0
 14 15  1  0
 15 16  2  0
 15 17  1  0
 17 18  1  0
  6 19  1  0
 19 20  2  0
 20  3  1  0
  1 21  1  0
  1 22  1  0
  1 23  1  0
  4 24  1  0
  5 25  1  0
 11 26  1  0
 11 27  1  0
 12 28  1  0
 12 29  1  0
 13 30  1  0
 14 31  1  0
 14 32  1  0
 17 33  1  0
 18 34  1  0
 19 35  1  0
 20 36  1  0
M  END
>  <meeko>  (1) 
{"is_sidechain": [false], "free_energy": -6.934, "intermolecular_energy": -10.176, "internal_energy": -0.865}

$$$$
3nx7_ligand
     RDKit          3D

 36 36  0  0  0  0  0  0  0  0999 V2000
   -6.6440   -7.2480   -9.7820 C   0  0  0  0  0  0  0  0  0  0  0  0
   -6.6560   -6.6390   -8.4970 O   0  0  0  0  0  0  0  0  0  0  0  0
   -5.4560   -6.5120   -7.8560 C   0  0  0  0  0  0  0  0  0  0  0  0
   -4.2150   -6.3170   -8.4680 C   0  0  0  0  0  0  0  0  0  0  0  0
   -3.0580   -6.2000   -7.6900 C   0  0  0  0  0  0  0  0  0  0  0  0
   -3.1460   -6.2620   -6.2960 C   0  0  0  0  0  0  0  0  0  0  0  0
   -1.6720   -6.1490   -5.3090 S   0  0  0  0  0  0  0  0  0  0  0  0
   -1.4230   -7.4480   -4.7230 O   0  0  0  0  0  0  0  0  0  0  0  0
   -0.6520   -5.4940   -6.1050 O   0  0  0  0  0  0  0  0  0  0  0  0
   -2.0820   -5.0610   -4.0830 N   0  0  0  0  0  0  0  0  0  0  0  0
   -2.5830   -5.5420   -2.7640 C   0  0  0  0  0  0  0  0  0  0  0  0
   -1.4830   -5.6560   -1.7040 C   0  0  0  0  0  0  0  0  0  0  0  0
   -0.1890   -5.6330   -2.2960 O   0  0  0  0  0  0  0  0  0  0  0  0
   -2.6970   -3.7810   -4.5250 C   0  0  0  0  0  0  0  0  0  0  0  0
   -1.7340   -2.6430   -4.2350 C   0  0  0  0  0  0  0  0  0  0  0  0
   -2.0820   -1.4630   -4.1860 O   0  0  0  0  0  0  0  0  0  0  0  0
   -0.4290   -3.0350   -4.0270 N   0  0  0  0  0  0  0  0  0  0  0  0
    0.4420   -1.9920   -3.6170 O   0  0  0  0  0  0  0  0  0  0  0  0
   -4.3770   -6.4850   -5.6780 C   0  0  0  0  0  0  0  0  0  0  0  0
   -5.5270   -6.5980   -6.4630 C   0  0  0  0  0  0  0  0  0  0  0  0
   -6.6224   -8.3420   -9.6691 H   0  0  0  0  0  0  0  0  0  0  0  0
   -7.5481   -6.9542  -10.3354 H   0  0  0  0  0  0  0  0  0  0  0  0
   -5.7522   -6.9189  -10.3354 H   0  0  0  0  0  0  0  0  0  0  0  0
   -4.1475   -6.2553   -9.5642 H   0  0  0  0  0  0  0  0  0  0  0  0
   -2.0805   -6.0594   -8.1744 H   0  0  0  0  0  0  0  0  0  0  0  0
   -3.3455   -4.8368   -2.4017 H   0  0  0  0  0  0  0  0  0  0  0  0
   -2.9926   -6.5511   -2.9189 H   0  0  0  0  0  0  0  0  0  0  0  0
   -1.5716   -4.8123   -1.0037 H   0  0  0  0  0  0  0  0  0  0  0  0
   -1.6066   -6.6139   -1.1775 H   0  0  0  0  0  0  0  0  0  0  0  0
    0.4260   -5.3150   -1.5980 H   0  0  0  0  0  0  0  0  0  0  0  0
   -2.9023   -3.8241   -5.6048 H   0  0  0  0  0  0  0  0  0  0  0  0
   -3.6405   -3.6160   -3.9841 H   0  0  0  0  0  0  0  0  0  0  0  0
   -0.2440   -3.9550   -3.6120 H   0  0  0  0  0  0  0  0  0  0  0  0
   -0.1810   -1.3130   -3.2780 H   0  0  0  0  0  0  0  0  0  0  0  0
   -4.4413   -6.5710   -4.5833 H   0  0  0  0  0  0  0  0  0  0  0  0
   -6.5015   -6.7568   -5.9781 H   0  0  0  0  0  0  0  0  0  0  0  0
  1  2  1  0
  2  3  1  0
  3  4  2  0
  4  5  1  0
  5  6  2  0
  6  7  1  0
  7  8  2  0
  7  9  2  0
  7 10  1  0
 10 11  1  0
 11 12  1  0
 12 13  1  0
 10 14  1  0
 14 15  1  0
 15 16  2  0
 15 17  1  0
 17 18  1  0
  6 19  1  0
 19 20  2  0
 20  3  1  0
  1 21  1  0
  1 22  1  0
  1 23  1  0
  4 24  1  0
  5 25  1  0
 11 26  1  0
 11 27  1  0
 12 28  1  0
 12 29  1  0
 13 30  1  0
 14 31  1  0
 14 32  1  0
 17 33  1  0
 18 34  1  0
 19 35  1  0
 20 36  1  0
M  END
>  <meeko>  (2) 
{"is_sidechain": [false], "free_energy": -6.905, "intermolecular_energy": -10.078, "internal_energy": -0.922}

$$$$
3nx7_ligand
     RDKit          3D

 36 36  0  0  0  0  0  0  0  0999 V2000
   -6.4790   -7.3850   -9.7880 C   0  0  0  0  0  0  0  0  0  0  0  0
   -6.5140   -7.5450   -8.3750 O   0  0  0  0  0  0  0  0  0  0  0  0
   -5.5170   -6.9490   -7.6550 C   0  0  0  0  0  0  0  0  0  0  0  0
   -5.6220   -6.4720   -6.3470 C   0  0  0  0  0  0  0  0  0  0  0  0
   -4.5170   -5.8820   -5.7220 C   0  0  0  0  0  0  0  0  0  0  0  0
   -3.3010   -5.7840   -6.4060 C   0  0  0  0  0  0  0  0  0  0  0  0
   -1.9070   -5.0030   -5.6270 S   0  0  0  0  0  0  0  0  0  0  0  0
   -0.7130   -5.3980   -6.3410 O   0  0  0  0  0  0  0  0  0  0  0  0
   -2.2260   -3.5990   -5.4470 O   0  0  0  0  0  0  0  0  0  0  0  0
   -1.8720   -5.6780   -4.0770 N   0  0  0  0  0  0  0  0  0  0  0  0
   -1.6500   -4.8280   -2.8730 C   0  0  0  0  0  0  0  0  0  0  0  0
   -2.9460   -4.4530   -2.1490 C   0  0  0  0  0  0  0  0  0  0  0  0
   -3.2090   -5.3390   -1.0660 O   0  0  0  0  0  0  0  0  0  0  0  0
   -1.2710   -7.0340   -3.9700 C   0  0  0  0  0  0  0  0  0  0  0  0
   -2.3470   -8.0200   -3.5500 C   0  0  0  0  0  0  0  0  0  0  0  0
   -2.9310   -8.7570   -4.3450 O   0  0  0  0  0  0  0  0  0  0  0  0
   -2.6230   -8.0270   -2.2000 N   0  0  0  0  0  0  0  0  0  0  0  0
   -3.5230   -9.0430   -1.7870 O   0  0  0  0  0  0  0  0  0  0  0  0
   -3.1960   -6.2320   -7.7230 C   0  0  0  0  0  0  0  0  0  0  0  0
   -4.3030   -6.8210   -8.3370 C   0  0  0  0  0  0  0  0  0  0  0  0
   -6.2498   -6.3374  -10.0328 H   0  0  0  0  0  0  0  0  0  0  0  0
   -5.7027   -8.0389  -10.2119 H   0  0  0  0  0  0  0  0  0  0  0  0
   -7.4575   -7.6550  -10.2119 H   0  0  0  0  0  0  0  0  0  0  0  0
   -6.5757   -6.5601   -5.8060 H   0  0  0  0  0  0  0  0  0  0  0  0
   -4.6049   -5.4965   -4.6955 H   0  0  0  0  0  0  0  0  0  0  0  0
   -1.0048   -5.3776   -2.1718 H   0  0  0  0  0  0  0  0  0  0  0  0
   -1.1860   -3.8916   -3.2163 H   0  0  0  0  0  0  0  0  0  0  0  0
   -2.8552   -3.4283   -1.7596 H   0  0  0  0  0  0  0  0  0  0  0  0
   -3.7772   -4.5249   -2.8659 H   0  0  0  0  0  0  0  0  0  0  0  0
   -2.3880   -5.3610   -0.5250 H   0  0  0  0  0  0  0  0  0  0  0  0
   -0.8577   -7.3322   -4.9448 H   0  0  0  0  0  0  0  0  0  0  0  0
   -0.4635   -7.0247   -3.2231 H   0  0  0  0  0  0  0  0  0  0  0  0
   -1.8720   -7.8050   -1.5360 H   0  0  0  0  0  0  0  0  0  0  0  0
   -4.2410   -8.9790   -2.4550 H   0  0  0  0  0  0  0  0  0  0  0  0
   -2.2496   -6.1222   -8.2727 H   0  0  0  0  0  0  0  0  0  0  0  0
   -4.2191   -7.1890   -9.3702 H   0  0  0  0  0  0  0  0  0  0  0  0
  1  2  1  0
  2  3  1  0
  3  4  2  0
  4  5  1  0
  5  6  2  0
  6  7  1  0
  7  8  2  0
  7  9  2  0
  7 10  1  0
 10 11  1  0
 11 12  1  0
 12 13  1  0
 10 14  1  0
 14 15  1  0
 15 16  2  0
 15 17  1  0
 17 18  1  0
  6 19  1  0
 19 20  2  0
 20  3  1  0
  1 21  1  0
  1 22  1  0
  1 23  1  0
  4 24  1  0
  5 25  1  0
 11 26  1  0
 11 27  1  0
 12 28  1  0
 12 29  1  0
 13 30  1  0
 14 31  1  0
 14 32  1  0
 17 33  1  0
 18 34  1  0
 19 35  1  0
 20 36  1  0
M  END
>  <meeko>  (3) 
{"is_sidechain": [false], "free_energy": -6.879, "intermolecular_energy": -9.985, "internal_energy": -0.976}

$$$$
3nx7_ligand
     RDKit          3D

 36 36  0  0  0  0  0  0  0  0999 V2000
   -6.6590   -7.6040   -9.8630 C   0  0  0  0  0  0  0  0  0  0  0  0
   -6.7400   -6.6320   -8.8280 O   0  0  0  0  0  0  0  0  0  0  0  0
   -5.6700   -6.5300   -7.9840 C   0  0  0  0  0  0  0  0  0  0  0  0
   -5.7160   -6.5910   -6.5900 C   0  0  0  0  0  0  0  0  0  0  0  0
   -4.5390   -6.4750   -5.8410 C   0  0  0  0  0  0  0  0  0  0  0  0
   -3.3120   -6.3120   -6.4920 C   0  0  0  0  0  0  0  0  0  0  0  0
   -1.8220   -6.1280   -5.5410 S   0  0  0  0  0  0  0  0  0  0  0  0
   -1.5250   -7.4010   -4.9200 O   0  0  0  0  0  0  0  0  0  0  0  0
   -0.8370   -5.4720   -6.3790 O   0  0  0  0  0  0  0  0  0  0  0  0
   -2.2360   -5.0130   -4.3410 N   0  0  0  0  0  0  0  0  0  0  0  0
   -2.7930   -3.6760   -4.6920 C   0  0  0  0  0  0  0  0  0  0  0  0
   -1.8240   -2.5240   -4.4110 C   0  0  0  0  0  0  0  0  0  0  0  0
   -1.8470   -1.5620   -5.4610 O   0  0  0  0  0  0  0  0  0  0  0  0
   -1.3660   -5.0000   -3.1340 C   0  0  0  0  0  0  0  0  0  0  0  0
   -2.1310   -5.5970   -1.9660 C   0  0  0  0  0  0  0  0  0  0  0  0
   -2.7530   -4.9160   -1.1500 O   0  0  0  0  0  0  0  0  0  0  0  0
   -2.0780   -6.9720   -1.8880 N   0  0  0  0  0  0  0  0  0  0  0  0
   -2.9060   -7.5390   -0.8850 O   0  0  0  0  0  0  0  0  0  0  0  0
   -3.2610   -6.2210   -7.8840 C   0  0  0  0  0  0  0  0  0  0  0  0
   -4.4400   -6.3410   -8.6220 C   0  0  0  0  0  0  0  0  0  0  0  0
   -6.5754   -8.6067   -9.4186 H   0  0  0  0  0  0  0  0  0  0  0  0
   -7.5645   -7.5531  -10.4855 H   0  0  0  0  0  0  0  0  0  0  0  0
   -5.7744   -7.4039  -10.4855 H   0  0  0  0  0  0  0  0  0  0  0  0
   -6.6799   -6.7306   -6.0787 H   0  0  0  0  0  0  0  0  0  0  0  0
   -4.5792   -6.5120   -4.7424 H   0  0  0  0  0  0  0  0  0  0  0  0
   -3.0400   -3.6710   -5.7639 H   0  0  0  0  0  0  0  0  0  0  0  0
   -3.6803   -3.5168   -4.0617 H   0  0  0  0  0  0  0  0  0  0  0  0
   -2.1129   -2.0340   -3.4695 H   0  0  0  0  0  0  0  0  0  0  0  0
   -0.8064   -2.9354   -4.3387 H   0  0  0  0  0  0  0  0  0  0  0  0
   -1.3840   -0.7670   -5.1140 H   0  0  0  0  0  0  0  0  0  0  0  0
   -0.4612   -5.5957   -3.3252 H   0  0  0  0  0  0  0  0  0  0  0  0
   -1.0745   -3.9660   -2.8974 H   0  0  0  0  0  0  0  0  0  0  0  0
   -1.9950   -7.5180   -2.7530 H   0  0  0  0  0  0  0  0  0  0  0  0
   -3.7210   -6.9940   -0.9450 H   0  0  0  0  0  0  0  0  0  0  0  0
   -2.3008   -6.0563   -8.3947 H   0  0  0  0  0  0  0  0  0  0  0  0
   -4.4009   -6.2862   -9.7199 H   0  0  0  0  0  0  0  0  0  0  0  0
  1  2  1  0
  2  3  1  0
  3  4  2  0
  4  5  1  0
  5  6  2  0
  6  7  1  0
  7  8  2  0
  7  9  2  0
  7 10  1  0
 10 11  1  0
 11 12  1  0
 12 13  1  0
 10 14  1  0
 14 15  1  0
 15 16  2  0
 15 17  1  0
 17 18  1  0
  6 19  1  0
 19 20  2  0
 20  3  1  0
  1 21  1  0
  1 22  1  0
  1 23  1  0
  4 24  1  0
  5 25  1  0
 11 26  1  0
 11 27  1  0
 12 28  1  0
 12 29  1  0
 13 30  1  0
 14 31  1  0
 14 32  1  0
 17 33  1  0
 18 34  1  0
 19 35  1  0
 20 36  1  0
M  END
>  <meeko>  (4) 
{"is_sidechain": [false], "free_energy": -6.776, "intermolecular_energy": -10.054, "internal_energy": -0.755}

$$$$
3nx7_ligand
     RDKit          3D

 36 36  0  0  0  0  0  0  0  0999 V2000
   -7.1240   -8.0050  -10.1340 C   0  0  0  0  0  0  0  0  0  0  0  0
   -7.1330   -7.6450   -8.7590 O   0  0  0  0  0  0  0  0  0  0  0  0
   -5.9980   -7.0720   -8.2570 C   0  0  0  0  0  0  0  0  0  0  0  0
   -4.8050   -6.8690   -8.9540 C   0  0  0  0  0  0  0  0  0  0  0  0
   -3.7140   -6.2650   -8.3190 C   0  0  0  0  0  0  0  0  0  0  0  0
   -3.8240   -5.8500   -6.9880 C   0  0  0  0  0  0  0  0  0  0  0  0
   -2.4280   -5.1150   -6.1710 S   0  0  0  0  0  0  0  0  0  0  0  0
   -1.3460   -5.0190   -7.1270 O   0  0  0  0  0  0  0  0  0  0  0  0
   -2.8930   -3.9360   -5.4660 O   0  0  0  0  0  0  0  0  0  0  0  0
   -2.0120   -6.2390   -4.9790 N   0  0  0  0  0  0  0  0  0  0  0  0
   -2.9010   -6.4850   -3.8090 C   0  0  0  0  0  0  0  0  0  0  0  0
   -2.9050   -7.9450   -3.3470 C   0  0  0  0  0  0  0  0  0  0  0  0
   -2.9730   -8.8380   -4.4540 O   0  0  0  0  0  0  0  0  0  0  0  0
   -0.5620   -6.3470   -4.6610 C   0  0  0  0  0  0  0  0  0  0  0  0
   -0.1840   -5.2380   -3.6960 C   0  0  0  0  0  0  0  0  0  0  0  0
    0.0490   -5.4350   -2.5020 O   0  0  0  0  0  0  0  0  0  0  0  0
   -0.1200   -3.9820   -4.2600 N   0  0  0  0  0  0  0  0  0  0  0  0
    0.3700   -2.9700   -3.3940 O   0  0  0  0  0  0  0  0  0  0  0  0
   -5.0030   -6.0750   -6.2770 C   0  0  0  0  0  0  0  0  0  0  0  0
   -6.0880   -6.6760   -6.9190 C   0  0  0  0  0  0  0  0  0  0  0  0
   -7.0966   -9.1008  -10.2259 H   0  0  0  0  0  0  0  0  0  0  0  0
   -8.0321   -7.6188  -10.6201 H   0  0  0  0  0  0  0  0  0  0  0  0
   -6.2364   -7.5740  -10.6201 H   0  0  0  0  0  0  0  0  0  0  0  0
   -4.7227   -7.1846  -10.0045 H   0  0  0  0  0  0  0  0  0  0  0  0
   -2.7712   -6.1168   -8.8660 H   0  0  0  0  0  0  0  0  0  0  0  0
   -2.5607   -5.8555   -2.9736 H   0  0  0  0  0  0  0  0  0  0  0  0
   -3.9266   -6.2398   -4.1221 H   0  0  0  0  0  0  0  0  0  0  0  0
   -1.9826   -8.1445   -2.7819 H   0  0  0  0  0  0  0  0  0  0  0  0
   -3.7911   -8.1068   -2.7156 H   0  0  0  0  0  0  0  0  0  0  0  0
   -3.0690   -8.2750   -5.2540 H   0  0  0  0  0  0  0  0  0  0  0  0
   -0.3576   -7.3239   -4.1985 H   0  0  0  0  0  0  0  0  0  0  0  0
    0.0289   -6.2540   -5.5841 H   0  0  0  0  0  0  0  0  0  0  0  0
    0.1530   -3.8910   -5.2460 H   0  0  0  0  0  0  0  0  0  0  0  0
    1.1220   -3.4150   -2.9470 H   0  0  0  0  0  0  0  0  0  0  0  0
   -5.0775   -5.7815   -5.2195 H   0  0  0  0  0  0  0  0  0  0  0  0
   -7.0244   -6.8398   -6.3655 H   0  0  0  0  0  0  0  0  0  0  0  0
  1  2  1  0
  2  3  1  0
  3  4  2  0
  4  5  1  0
  5  6  2  0
  6  7  1  0
  7  8  2  0
  7  9  2  0
  7 10  1  0
 10 11  1  0
 11 12  1  0
 12 13  1  0
 10 14  1  0
 14 15  1  0
 15 16  2  0
 15 17  1  0
 17 18  1  0
  6 19  1  0
 19 20  2  0
 20  3  1  0
  1 21  1  0
  1 22  1  0
  1 23  1  0
  4 24  1  0
  5 25  1  0
 11 26  1  0
 11 27  1  0
 12 28  1  0
 12 29  1  0
 13 30  1  0
 14 31  1  0
 14 32  1  0
 17 33  1  0
 18 34  1  0
 19 35  1  0
 20 36  1  0
M  END
>  <meeko>  (5) 
{"is_sidechain": [false], "free_energy": -6.555, "intermolecular_energy": -10.003, "internal_energy": -0.483}

$$$$
3nx7_ligand
     RDKit          3D

 36 36  0  0  0  0  0  0  0  0999 V2000
   -7.5700   -6.9300   -9.5140 C   0  0  0  0  0  0  0  0  0  0  0  0
   -6.4580   -7.6890   -9.0570 O   0  0  0  0  0  0  0  0  0  0  0  0
   -5.5800   -7.0650   -8.2160 C   0  0  0  0  0  0  0  0  0  0  0  0
   -5.8770   -6.5590   -6.9490 C   0  0  0  0  0  0  0  0  0  0  0  0
   -4.8800   -5.9420   -6.1850 C   0  0  0  0  0  0  0  0  0  0  0  0
   -3.5780   -5.8460   -6.6870 C   0  0  0  0  0  0  0  0  0  0  0  0
   -2.3190   -5.0320   -5.7340 S   0  0  0  0  0  0  0  0  0  0  0  0
   -1.0330   -5.3770   -6.3000 O   0  0  0  0  0  0  0  0  0  0  0  0
   -2.7050   -3.6430   -5.5790 O   0  0  0  0  0  0  0  0  0  0  0  0
   -2.4500   -5.7290   -4.2000 N   0  0  0  0  0  0  0  0  0  0  0  0
   -2.7390   -7.1820   -4.0370 C   0  0  0  0  0  0  0  0  0  0  0  0
   -1.4790   -8.0340   -3.8620 C   0  0  0  0  0  0  0  0  0  0  0  0
   -0.3110   -7.3150   -4.2420 O   0  0  0  0  0  0  0  0  0  0  0  0
   -3.0620   -4.8760   -3.1460 C   0  0  0  0  0  0  0  0  0  0  0  0
   -1.9600   -4.2880   -2.2830 C   0  0  0  0  0  0  0  0  0  0  0  0
   -1.4650   -4.8840   -1.3250 O   0  0  0  0  0  0  0  0  0  0  0  0
   -1.5490   -3.0260   -2.6560 N   0  0  0  0  0  0  0  0  0  0  0  0
   -0.4260   -2.5360   -1.9420 O   0  0  0  0  0  0  0  0  0  0  0  0
   -3.2790   -6.3240   -7.9640 C   0  0  0  0  0  0  0  0  0  0  0  0
   -4.2810   -6.9410   -8.7170 C   0  0  0  0  0  0  0  0  0  0  0  0
   -8.1321   -6.5463   -8.6498 H   0  0  0  0  0  0  0  0  0  0  0  0
   -7.2128   -6.0864  -10.1229 H   0  0  0  0  0  0  0  0  0  0  0  0
   -8.2254   -7.5700  -10.1229 H   0  0  0  0  0  0  0  0  0  0  0  0
   -6.8984   -6.6457   -6.5499 H   0  0  0  0  0  0  0  0  0  0  0  0
   -5.1197   -5.5335   -5.1922 H   0  0  0  0  0  0  0  0  0  0  0  0
   -3.3758   -7.3140   -3.1498 H   0  0  0  0  0  0  0  0  0  0  0  0
   -3.2361   -7.5207   -4.9580 H   0  0  0  0  0  0  0  0  0  0  0  0
   -1.3901   -8.3294   -2.8061 H   0  0  0  0  0  0  0  0  0  0  0  0
   -1.5667   -8.9198   -4.5082 H   0  0  0  0  0  0  0  0  0  0  0  0
   -0.5160   -6.3640   -4.1000 H   0  0  0  0  0  0  0  0  0  0  0  0
   -3.6352   -4.0634   -3.6162 H   0  0  0  0  0  0  0  0  0  0  0  0
   -3.7374   -5.4818   -2.5239 H   0  0  0  0  0  0  0  0  0  0  0  0
   -1.5950   -2.7600   -3.6460 H   0  0  0  0  0  0  0  0  0  0  0  0
   -0.5080   -1.5640   -2.0530 H   0  0  0  0  0  0  0  0  0  0  0  0
   -2.2638   -6.2159   -8.3736 H   0  0  0  0  0  0  0  0  0  0  0  0
   -4.0447   -7.3342   -9.7168 H   0  0  0  0  0  0  0  0  0  0  0  0
  1  2  1  0
  2  3  1  0
  3  4  2  0
  4  5  1  0
  5  6  2  0
  6  7  1  0
  7  8  2  0
  7  9  2  0
  7 10  1  0
 10 11  1  0
 11 12  1  0
 12 13  1  0
 10 14  1  0
 14 15  1  0
 15 16  2  0
 15 17  1  0
 17 18  1  0
  6 19  1  0
 19 20  2  0
 20  3  1  0
  1 21  1  0
  1 22  1  0
  1 23  1  0
  4 24  1  0
  5 25  1  0
 11 26  1  0
 11 27  1  0
 12 28  1  0
 12 29  1  0
 13 30  1  0
 14 31  1  0
 14 32  1  0
 17 33  1  0
 18 34  1  0
 19 35  1  0
 20 36  1  0
M  END
>  <meeko>  (6) 
{"is_sidechain": [false], "free_energy": -6.304, "intermolecular_energy": -9.355, "internal_energy": -0.763}

$$$$
3nx7_ligand
     RDKit          3D

 36 36  0  0  0  0  0  0  0  0999 V2000
    2.3000   -1.1240   -1.4220 C   0  0  0  0  0  0  0  0  0  0  0  0
    1.7650   -1.1230   -2.7390 O   0  0  0  0  0  0  0  0  0  0  0  0
    0.6380   -1.8660   -2.9550 C   0  0  0  0  0  0  0  0  0  0  0  0
   -0.5120   -1.4370   -3.6210 C   0  0  0  0  0  0  0  0  0  0  0  0
   -1.6000   -2.3040   -3.7770 C   0  0  0  0  0  0  0  0  0  0  0  0
   -1.5280   -3.6080   -3.2770 C   0  0  0  0  0  0  0  0  0  0  0  0
   -2.9210   -4.6980   -3.4420 S   0  0  0  0  0  0  0  0  0  0  0  0
   -2.9530   -5.5670   -2.2860 O   0  0  0  0  0  0  0  0  0  0  0  0
   -4.0770   -3.8940   -3.7900 O   0  0  0  0  0  0  0  0  0  0  0  0
   -2.5620   -5.6200   -4.8130 N   0  0  0  0  0  0  0  0  0  0  0  0
   -1.3690   -6.5120   -4.8480 C   0  0  0  0  0  0  0  0  0  0  0  0
   -1.6850   -7.9620   -4.4690 C   0  0  0  0  0  0  0  0  0  0  0  0
   -3.0810   -8.1500   -4.2630 O   0  0  0  0  0  0  0  0  0  0  0  0
   -2.8750   -4.9900   -6.1240 C   0  0  0  0  0  0  0  0  0  0  0  0
   -4.1380   -5.6190   -6.6850 C   0  0  0  0  0  0  0  0  0  0  0  0
   -4.3890   -5.6650   -7.8900 O   0  0  0  0  0  0  0  0  0  0  0  0
   -4.9900   -6.1420   -5.7350 N   0  0  0  0  0  0  0  0  0  0  0  0
   -6.0970   -6.8540   -6.2640 O   0  0  0  0  0  0  0  0  0  0  0  0
   -0.3930   -4.0350   -2.5850 C   0  0  0  0  0  0  0  0  0  0  0  0
    0.6880   -3.1640   -2.4380 C   0  0  0  0  0  0  0  0  0  0  0  0
    1.4772   -1.1225   -0.6920 H   0  0  0  0  0  0  0  0  0  0  0  0
    2.9167   -2.0233   -1.2775 H   0  0  0  0  0  0  0  0  0  0  0  0
    2.9201   -0.2270   -1.2775 H   0  0  0  0  0  0  0  0  0  0  0  0
   -0.5631   -0.4148   -4.0242 H   0  0  0  0  0  0  0  0  0  0  0  0
   -2.5094   -1.9603   -4.2917 H   0  0  0  0  0  0  0  0  0  0  0  0
   -0.9539   -6.5000   -5.8666 H   0  0  0  0  0  0  0  0  0  0  0  0
   -0.6543   -6.1294   -4.1044 H   0  0  0  0  0  0  0  0  0  0  0  0
   -1.3498   -8.6255   -5.2798 H   0  0  0  0  0  0  0  0  0  0  0  0
   -1.1606   -8.1981   -3.5313 H   0  0  0  0  0  0  0  0  0  0  0  0
   -3.4700   -7.2500   -4.1830 H   0  0  0  0  0  0  0  0  0  0  0  0
   -3.0306   -3.9098   -5.9864 H   0  0  0  0  0  0  0  0  0  0  0  0
   -2.0393   -5.1481   -6.8216 H   0  0  0  0  0  0  0  0  0  0  0  0
   -4.5960   -6.5190   -4.8660 H   0  0  0  0  0  0  0  0  0  0  0  0
   -6.6920   -6.1330   -6.5660 H   0  0  0  0  0  0  0  0  0  0  0  0
   -0.3510   -5.0485   -2.1595 H   0  0  0  0  0  0  0  0  0  0  0  0
    1.5906   -3.5033   -1.9087 H   0  0  0  0  0  0  0  0  0  0  0  0
  1  2  1  0
  2  3  1  0
  3  4  2  0
  4  5  1  0
  5  6  2  0
  6  7  1  0
  7  8  2  0
  7  9  2  0
  7 10  1  0
 10 11  1  0
 11 12  1  0
 12 13  1  0
 10 14  1  0
 14 15  1  0
 15 16  2  0
 15 17  1  0
 17 18  1  0
  6 19  1  0
 19 20  2  0
 20  3  1  0
  1 21  1  0
  1 22  1  0
  1 23  1  0
  4 24  1  0
  5 25  1  0
 11 26  1  0
 11 27  1  0
 12 28  1  0
 12 29  1  0
 13 30  1  0
 14 31  1  0
 14 32  1  0
 17 33  1  0
 18 34  1  0
 19 35  1  0
 20 36  1  0
M  END
>  <meeko>  (7) 
{"is_sidechain": [false], "free_energy": -5.846, "intermolecular_energy": -8.44, "internal_energy": -1.005}

$$$$
3nx7_ligand
     RDKit          3D

 36 36  0  0  0  0  0  0  0  0999 V2000
    1.2580   -2.2210   -0.7360 C   0  0  0  0  0  0  0  0  0  0  0  0
   -0.1560   -2.2060   -0.8870 O   0  0  0  0  0  0  0  0  0  0  0  0
   -0.7120   -3.1970   -1.6470 C   0  0  0  0  0  0  0  0  0  0  0  0
   -2.0370   -3.6340   -1.5830 C   0  0  0  0  0  0  0  0  0  0  0  0
   -2.4800   -4.6610   -2.4240 C   0  0  0  0  0  0  0  0  0  0  0  0
   -1.5970   -5.2410   -3.3410 C   0  0  0  0  0  0  0  0  0  0  0  0
   -2.1490   -6.5690   -4.3850 S   0  0  0  0  0  0  0  0  0  0  0  0
   -0.9890   -7.1500   -5.0240 O   0  0  0  0  0  0  0  0  0  0  0  0
   -3.0540   -7.3970   -3.6110 O   0  0  0  0  0  0  0  0  0  0  0  0
   -3.0990   -5.8040   -5.5550 N   0  0  0  0  0  0  0  0  0  0  0  0
   -2.6170   -4.5810   -6.2570 C   0  0  0  0  0  0  0  0  0  0  0  0
   -1.7690   -4.8870   -7.4950 C   0  0  0  0  0  0  0  0  0  0  0  0
   -2.0060   -6.2080   -7.9710 O   0  0  0  0  0  0  0  0  0  0  0  0
   -4.5670   -5.8170   -5.3150 C   0  0  0  0  0  0  0  0  0  0  0  0
   -5.2470   -6.5630   -6.4480 C   0  0  0  0  0  0  0  0  0  0  0  0
   -4.6270   -7.1890   -7.3090 O   0  0  0  0  0  0  0  0  0  0  0  0
   -6.6230   -6.4890   -6.4410 N   0  0  0  0  0  0  0  0  0  0  0  0
   -7.2640   -7.3010   -7.4130 O   0  0  0  0  0  0  0  0  0  0  0  0
   -0.2650   -4.8290   -3.3910 C   0  0  0  0  0  0  0  0  0  0  0  0
    0.1670   -3.8020   -2.5500 C   0  0  0  0  0  0  0  0  0  0  0  0
    1.5125   -2.2237    0.3342 H   0  0  0  0  0  0  0  0  0  0  0  0
    1.6681   -3.1235   -1.2127 H   0  0  0  0  0  0  0  0  0  0  0  0
    1.6872   -1.3274   -1.2127 H   0  0  0  0  0  0  0  0  0  0  0  0
   -2.7340   -3.1698   -0.8698 H   0  0  0  0  0  0  0  0  0  0  0  0
   -3.5209   -5.0117   -2.3641 H   0  0  0  0  0  0  0  0  0  0  0  0
   -3.4910   -3.9908   -6.5698 H   0  0  0  0  0  0  0  0  0  0  0  0
   -1.9765   -4.0317   -5.5513 H   0  0  0  0  0  0  0  0  0  0  0  0
   -2.0222   -4.1692   -8.2891 H   0  0  0  0  0  0  0  0  0  0  0  0
   -0.7077   -4.8029   -7.2183 H   0  0  0  0  0  0  0  0  0  0  0  0
   -2.1930   -6.1220   -8.9330 H   0  0  0  0  0  0  0  0  0  0  0  0
   -4.7801   -6.3216   -4.3611 H   0  0  0  0  0  0  0  0  0  0  0  0
   -4.9451   -4.7850   -5.2703 H   0  0  0  0  0  0  0  0  0  0  0  0
   -7.1130   -6.4040   -5.5430 H   0  0  0  0  0  0  0  0  0  0  0  0
   -7.7220   -7.9730   -6.8630 H   0  0  0  0  0  0  0  0  0  0  0  0
    0.4386   -5.3092   -4.0870 H   0  0  0  0  0  0  0  0  0  0  0  0
    1.2128   -3.4644   -2.5985 H   0  0  0  0  0  0  0  0  0  0  0  0
  1  2  1  0
  2  3  1  0
  3  4  2  0
  4  5  1  0
  5  6  2  0
  6  7  1  0
  7  8  2  0
  7  9  2  0
  7 10  1  0
 10 11  1  0
 11 12  1  0
 12 13  1  0
 10 14  1  0
 14 15  1  0
 15 16  2  0
 15 17  1  0
 17 18  1  0
  6 19  1  0
 19 20  2  0
 20  3  1  0
  1 21  1  0
  1 22  1  0
  1 23  1  0
  4 24  1  0
  5 25  1  0
 11 26  1  0
 11 27  1  0
 12 28  1  0
 12 29  1  0
 13 30  1  0
 14 31  1  0
 14 32  1  0
 17 33  1  0
 18 34  1  0
 19 35  1  0
 20 36  1  0
M  END
>  <meeko>  (8) 
{"is_sidechain": [false], "free_energy": -5.818, "intermolecular_energy": -8.327, "internal_energy": -1.077}

$$$$
3nx7_ligand
     RDKit          3D

 36 36  0  0  0  0  0  0  0  0999 V2000
    0.6500   -0.0860   -1.9610 C   0  0  0  0  0  0  0  0  0  0  0  0
   -0.5810   -0.7980   -1.9260 O   0  0  0  0  0  0  0  0  0  0  0  0
   -0.6640   -1.9360   -2.6770 C   0  0  0  0  0  0  0  0  0  0  0  0
    0.1800   -3.0450   -2.5820 C   0  0  0  0  0  0  0  0  0  0  0  0
   -0.0180   -4.1540   -3.4130 C   0  0  0  0  0  0  0  0  0  0  0  0
   -1.0730   -4.1570   -4.3300 C   0  0  0  0  0  0  0  0  0  0  0  0
   -1.3040   -5.5480   -5.4110 S   0  0  0  0  0  0  0  0  0  0  0  0
   -1.3800   -5.0550   -6.7690 O   0  0  0  0  0  0  0  0  0  0  0  0
   -0.3300   -6.5600   -5.0490 O   0  0  0  0  0  0  0  0  0  0  0  0
   -2.8120   -6.1680   -4.9660 N   0  0  0  0  0  0  0  0  0  0  0  0
   -4.0740   -5.5590   -5.4720 C   0  0  0  0  0  0  0  0  0  0  0  0
   -4.9340   -6.5310   -6.2840 C   0  0  0  0  0  0  0  0  0  0  0  0
   -6.3160   -6.3780   -5.9800 O   0  0  0  0  0  0  0  0  0  0  0  0
   -2.9170   -6.6960   -3.5790 C   0  0  0  0  0  0  0  0  0  0  0  0
   -2.4620   -8.1440   -3.5650 C   0  0  0  0  0  0  0  0  0  0  0  0
   -3.0690   -9.0460   -4.1450 O   0  0  0  0  0  0  0  0  0  0  0  0
   -1.3080   -8.3770   -2.8480 N   0  0  0  0  0  0  0  0  0  0  0  0
   -0.8060   -9.7000   -2.9520 O   0  0  0  0  0  0  0  0  0  0  0  0
   -1.9040   -3.0410   -4.4510 C   0  0  0  0  0  0  0  0  0  0  0  0
   -1.7000   -1.9410   -3.6160 C   0  0  0  0  0  0  0  0  0  0  0  0
    0.9894    0.1103   -0.9332 H   0  0  0  0  0  0  0  0  0  0  0  0
    1.4059   -0.6863   -2.4884 H   0  0  0  0  0  0  0  0  0  0  0  0
    0.5066    0.8686   -2.4884 H   0  0  0  0  0  0  0  0  0  0  0  0
    1.0028   -3.0469   -1.8519 H   0  0  0  0  0  0  0  0  0  0  0  0
    0.6552   -5.0212   -3.3445 H   0  0  0  0  0  0  0  0  0  0  0  0
   -4.6620   -5.2086   -4.6109 H   0  0  0  0  0  0  0  0  0  0  0  0
   -3.7910   -4.7356   -6.1443 H   0  0  0  0  0  0  0  0  0  0  0  0
   -4.7794   -6.3367   -7.3556 H   0  0  0  0  0  0  0  0  0  0  0  0
   -4.6339   -7.5576   -6.0269 H   0  0  0  0  0  0  0  0  0  0  0  0
   -6.7700   -6.2190   -6.8380 H   0  0  0  0  0  0  0  0  0  0  0  0
   -2.2778   -6.1022   -2.9091 H   0  0  0  0  0  0  0  0  0  0  0  0
   -3.9598   -6.6311   -3.2349 H   0  0  0  0  0  0  0  0  0  0  0  0
   -0.5990   -7.6370   -2.7910 H   0  0  0  0  0  0  0  0  0  0  0  0
    0.0800   -9.6270   -2.5340 H   0  0  0  0  0  0  0  0  0  0  0  0
   -2.7119   -3.0289   -5.1974 H   0  0  0  0  0  0  0  0  0  0  0  0
   -2.3628   -1.0669   -3.6978 H   0  0  0  0  0  0  0  0  0  0  0  0
  1  2  1  0
  2  3  1  0
  3  4  2  0
  4  5  1  0
  5  6  2  0
  6  7  1  0
  7  8  2  0
  7  9  2  0
  7 10  1  0
 10 11  1  0
 11 12  1  0
 12 13  1  0
 10 14  1  0
 14 15  1  0
 15 16  2  0
 15 17  1  0
 17 18  1  0
  6 19  1  0
 19 20  2  0
 20  3  1  0
  1 21  1  0
  1 22  1  0
  1 23  1  0
  4 24  1  0
  5 25  1  0
 11 26  1  0
 11 27  1  0
 12 28  1  0
 12 29  1  0
 13 30  1  0
 14 31  1  0
 14 32  1  0
 17 33  1  0
 18 34  1  0
 19 35  1  0
 20 36  1  0
M  END
>  <meeko>  (9) 
{"is_sidechain": [false], "free_energy": -5.745, "intermolecular_energy": -8.749, "internal_energy": -0.547}

$$$$
