3n86_ligand
     RDKit          3D

 39 40  0  0  0  0  0  0  0  0999 V2000
   27.9510   27.0860   -3.0270 O   0  0  0  0  0  0  0  0  0  0  0  0
   28.8810   27.4160   -2.3000 C   0  0  0  0  0  0  0  0  0  0  0  0
   29.7870   26.4050   -1.6200 C   0  0  0  0  0  0  0  0  0  0  0  0
   29.2960   24.9710   -1.7930 C   0  0  0  0  0  0  0  0  0  0  0  0
   29.5170   24.1760   -0.5390 C   0  0  0  0  0  0  0  0  0  0  0  0
   30.3450   24.5590    0.4490 C   0  0  0  0  0  0  0  0  0  0  0  0
   30.5130   23.8420    1.7620 C   0  0  1  0  0  0  0  0  0  0  0  0
   31.7830   23.1550    1.6840 O   0  0  0  0  0  0  0  0  0  0  0  0
   30.5610   24.8890    2.9420 C   0  0  0  0  0  0  0  0  0  0  0  0
   29.8630   24.5310    3.9430 O   0  0  0  0  0  0  0  0  0  0  0  0
   31.2780   25.9130    2.7710 O   0  0  0  0  0  0  0  0  0  0  0  0
   29.4120   22.8260    2.0440 C   0  0  0  0  0  0  0  0  0  0  0  0
   29.1450   21.9870    0.8070 C   0  0  1  0  0  0  0  0  0  0  0  0
   28.0770   21.0690    1.0690 O   0  0  0  0  0  0  0  0  0  0  0  0
   28.7850   22.8850   -0.3800 C   0  0  0  0  0  0  0  0  0  0  0  0
   27.9370   22.5320   -1.2060 O   0  0  0  0  0  0  0  0  0  0  0  0
   29.2550   28.7130   -1.9770 N   0  0  0  0  0  0  0  0  0  0  0  0
   28.6580   29.9170   -2.4010 C   0  0  0  0  0  0  0  0  0  0  0  0
   28.9250   31.0640   -1.6410 C   0  0  0  0  0  0  0  0  0  0  0  0
   28.3720   32.2990   -1.9940 C   0  0  0  0  0  0  0  0  0  0  0  0
   27.5450   32.3980   -3.1080 C   0  0  0  0  0  0  0  0  0  0  0  0
   27.2740   31.2640   -3.8690 C   0  0  0  0  0  0  0  0  0  0  0  0
   27.8280   30.0270   -3.5170 C   0  0  0  0  0  0  0  0  0  0  0  0
   30.7949   26.4874   -2.0528 H   0  0  0  0  0  0  0  0  0  0  0  0
   29.7896   26.6297   -0.5432 H   0  0  0  0  0  0  0  0  0  0  0  0
   28.2213   24.9837   -2.0270 H   0  0  0  0  0  0  0  0  0  0  0  0
   29.8611   24.5016   -2.6118 H   0  0  0  0  0  0  0  0  0  0  0  0
   30.9457   25.4658    0.2852 H   0  0  0  0  0  0  0  0  0  0  0  0
   31.6460   22.5750    0.8920 H   0  0  0  0  0  0  0  0  0  0  0  0
   29.7262   22.1688    2.8682 H   0  0  0  0  0  0  0  0  0  0  0  0
   28.4916   23.3610    2.3210 H   0  0  0  0  0  0  0  0  0  0  0  0
   30.0555   21.4234    0.5553 H   0  0  0  0  0  0  0  0  0  0  0  0
   27.6540   20.9190    0.2010 H   0  0  0  0  0  0  0  0  0  0  0  0
   30.0620   28.8050   -1.3720 H   0  0  0  0  0  0  0  0  0  0  0  0
   29.5764   30.9920   -0.7575 H   0  0  0  0  0  0  0  0  0  0  0  0
   28.5911   33.1923   -1.3906 H   0  0  0  0  0  0  0  0  0  0  0  0
   27.1071   33.3679   -3.3865 H   0  0  0  0  0  0  0  0  0  0  0  0
   26.6214   31.3401   -4.7512 H   0  0  0  0  0  0  0  0  0  0  0  0
   27.6074   29.1366   -4.1241 H   0  0  0  0  0  0  0  0  0  0  0  0
  1  2  2  0
  2  3  1  0
  3  4  1  0
  4  5  1  0
  5  6  2  0
  6  7  1  0
  7  8  1  6
  7  9  1  0
  9 10  2  0
  9 11  1  0
  7 12  1  0
 12 13  1  0
 13 14  1  0
 13 15  1  0
 15 16  2  0
  2 17  1  0
 17 18  1  0
 18 19  2  0
 19 20  1  0
 20 21  2  0
 21 22  1  0
 22 23  2  0
 15  5  1  0
 23 18  1  0
  3 24  1  0
  3 25  1  0
  4 26  1  0
  4 27  1  0
  6 28  1  0
  8 29  1  0
 12 30  1  0
 12 31  1  0
 13 32  1  6
 14 33  1  0
 17 34  1  0
 19 35  1  0
 20 36  1  0
 21 37  1  0
 22 38  1  0
 23 39  1  0
M  CHG  1  11  -1
M  END
>  <meeko>  (1) 
{"is_sidechain": [false], "free_energy": -10.967, "intermolecular_energy": -14.813, "internal_energy": -0.163}

$$$$
3n86_ligand
     RDKit          3D

 39 40  0  0  0  0  0  0  0  0999 V2000
   27.0660   27.3210   -2.8210 O   0  0  0  0  0  0  0  0  0  0  0  0
   28.2630   27.2710   -2.5610 C   0  0  0  0  0  0  0  0  0  0  0  0
   29.0170   25.9590   -2.4300 C   0  0  0  0  0  0  0  0  0  0  0  0
   30.1900   26.0530   -1.4580 C   0  0  0  0  0  0  0  0  0  0  0  0
   29.9980   25.1200   -0.2980 C   0  0  0  0  0  0  0  0  0  0  0  0
   29.1950   24.0430   -0.3340 C   0  0  0  0  0  0  0  0  0  0  0  0
   29.0570   23.0300    0.7710 C   0  0  1  0  0  0  0  0  0  0  0  0
   27.7850   23.2960    1.4030 O   0  0  0  0  0  0  0  0  0  0  0  0
   29.0400   21.5730    0.1650 C   0  0  0  0  0  0  0  0  0  0  0  0
   29.8870   20.8020    0.7190 O   0  0  0  0  0  0  0  0  0  0  0  0
   28.2050   21.3440   -0.7520 O   0  0  0  0  0  0  0  0  0  0  0  0
   30.1640   23.1190    1.8180 C   0  0  0  0  0  0  0  0  0  0  0  0
   30.3980   24.5680    2.2070 C   0  0  1  0  0  0  0  0  0  0  0  0
   31.4700   24.6440    3.1540 O   0  0  0  0  0  0  0  0  0  0  0  0
   30.7310   25.4080    0.9700 C   0  0  0  0  0  0  0  0  0  0  0  0
   31.5570   26.3230    1.0300 O   0  0  0  0  0  0  0  0  0  0  0  0
   29.1070   28.3510   -2.3440 N   0  0  0  0  0  0  0  0  0  0  0  0
   28.7810   29.7210   -2.3690 C   0  0  0  0  0  0  0  0  0  0  0  0
   27.9800   30.1680   -3.4290 C   0  0  0  0  0  0  0  0  0  0  0  0
   27.6110   31.5130   -3.5280 C   0  0  0  0  0  0  0  0  0  0  0  0
   28.0410   32.4240   -2.5680 C   0  0  0  0  0  0  0  0  0  0  0  0
   28.8370   31.9900   -1.5110 C   0  0  0  0  0  0  0  0  0  0  0  0
   29.2060   30.6440   -1.4120 C   0  0  0  0  0  0  0  0  0  0  0  0
   28.3213   25.1869   -2.0696 H   0  0  0  0  0  0  0  0  0  0  0  0
   29.4234   25.7069   -3.4206 H   0  0  0  0  0  0  0  0  0  0  0  0
   31.1176   25.7862   -1.9856 H   0  0  0  0  0  0  0  0  0  0  0  0
   30.2491   27.0828   -1.0758 H   0  0  0  0  0  0  0  0  0  0  0  0
   28.5919   23.8898   -1.2411 H   0  0  0  0  0  0  0  0  0  0  0  0
   27.4640   24.0750    0.8810 H   0  0  0  0  0  0  0  0  0  0  0  0
   29.8688   22.5460    2.7094 H   0  0  0  0  0  0  0  0  0  0  0  0
   31.0920   22.7044    1.3974 H   0  0  0  0  0  0  0  0  0  0  0  0
   29.4797   24.9672    2.6624 H   0  0  0  0  0  0  0  0  0  0  0  0
   31.3670   25.5150    3.5830 H   0  0  0  0  0  0  0  0  0  0  0  0
   30.0760   28.1260   -2.1560 H   0  0  0  0  0  0  0  0  0  0  0  0
   27.6379   29.4527   -4.1914 H   0  0  0  0  0  0  0  0  0  0  0  0
   26.9812   31.8508   -4.3642 H   0  0  0  0  0  0  0  0  0  0  0  0
   27.7532   33.4830   -2.6438 H   0  0  0  0  0  0  0  0  0  0  0  0
   29.1771   32.7084   -0.7506 H   0  0  0  0  0  0  0  0  0  0  0  0
   29.8356   30.3107   -0.5739 H   0  0  0  0  0  0  0  0  0  0  0  0
  1  2  2  0
  2  3  1  0
  3  4  1  0
  4  5  1  0
  5  6  2  0
  6  7  1  0
  7  8  1  1
  7  9  1  0
  9 10  2  0
  9 11  1  0
  7 12  1  0
 12 13  1  0
 13 14  1  0
 13 15  1  0
 15 16  2  0
  2 17  1  0
 17 18  1  0
 18 19  2  0
 19 20  1  0
 20 21  2  0
 21 22  1  0
 22 23  2  0
 15  5  1  0
 23 18  1  0
  3 24  1  0
  3 25  1  0
  4 26  1  0
  4 27  1  0
  6 28  1  0
  8 29  1  0
 12 30  1  0
 12 31  1  0
 13 32  1  1
 14 33  1  0
 17 34  1  0
 19 35  1  0
 20 36  1  0
 21 37  1  0
 22 38  1  0
 23 39  1  0
M  CHG  1  11  -1
M  END
>  <meeko>  (2) 
{"is_sidechain": [false], "free_energy": -9.987, "intermolecular_energy": -13.294, "internal_energy": -0.359}

$$$$
3n86_ligand
     RDKit          3D

 39 40  0  0  0  0  0  0  0  0999 V2000
   29.1140   24.2010   -3.1120 O   0  0  0  0  0  0  0  0  0  0  0  0
   29.1410   25.2190   -2.4310 C   0  0  0  0  0  0  0  0  0  0  0  0
   29.0320   26.6090   -3.0340 C   0  0  0  0  0  0  0  0  0  0  0  0
   29.6140   27.6880   -2.1250 C   0  0  0  0  0  0  0  0  0  0  0  0
   29.0370   29.0340   -2.4560 C   0  0  0  0  0  0  0  0  0  0  0  0
   28.2970   29.2770   -3.5520 C   0  0  0  0  0  0  0  0  0  0  0  0
   27.6170   30.5840   -3.8630 C   0  0  1  0  0  0  0  0  0  0  0  0
   28.4030   31.2070   -4.9050 O   0  0  0  0  0  0  0  0  0  0  0  0
   26.1600   30.3150   -4.4040 C   0  0  0  0  0  0  0  0  0  0  0  0
   26.0440   30.5630   -5.6470 O   0  0  0  0  0  0  0  0  0  0  0  0
   25.3120   29.8810   -3.5760 O   0  0  0  0  0  0  0  0  0  0  0  0
   27.5370   31.5260   -2.6660 C   0  0  0  0  0  0  0  0  0  0  0  0
   28.8740   31.5750   -1.9490 C   0  0  1  0  0  0  0  0  0  0  0  0
   28.7740   32.4240   -0.8010 O   0  0  0  0  0  0  0  0  0  0  0  0
   29.3040   30.1680   -1.5240 C   0  0  0  0  0  0  0  0  0  0  0  0
   29.8910   29.9820   -0.4530 O   0  0  0  0  0  0  0  0  0  0  0  0
   29.2750   25.2870   -1.0520 N   0  0  0  0  0  0  0  0  0  0  0  0
   29.4120   24.2190   -0.1430 C   0  0  0  0  0  0  0  0  0  0  0  0
   30.2900   24.4060    0.9340 C   0  0  0  0  0  0  0  0  0  0  0  0
   30.4820   23.3960    1.8810 C   0  0  0  0  0  0  0  0  0  0  0  0
   29.8010   22.1890    1.7600 C   0  0  0  0  0  0  0  0  0  0  0  0
   28.9260   21.9940    0.6940 C   0  0  0  0  0  0  0  0  0  0  0  0
   28.7320   23.0050   -0.2540 C   0  0  0  0  0  0  0  0  0  0  0  0
   29.5757   26.6223   -3.9901 H   0  0  0  0  0  0  0  0  0  0  0  0
   27.9634   26.8300   -3.1731 H   0  0  0  0  0  0  0  0  0  0  0  0
   29.3795   27.4428   -1.0786 H   0  0  0  0  0  0  0  0  0  0  0  0
   30.7030   27.7252   -2.2754 H   0  0  0  0  0  0  0  0  0  0  0  0
   28.1793   28.4582   -4.2771 H   0  0  0  0  0  0  0  0  0  0  0  0
   28.0230   30.7840   -5.7170 H   0  0  0  0  0  0  0  0  0  0  0  0
   27.2742   32.5356   -3.0148 H   0  0  0  0  0  0  0  0  0  0  0  0
   26.7689   31.1582   -1.9697 H   0  0  0  0  0  0  0  0  0  0  0  0
   29.6318   31.9799   -2.6359 H   0  0  0  0  0  0  0  0  0  0  0  0
   27.8160   32.4990   -0.6230 H   0  0  0  0  0  0  0  0  0  0  0  0
   29.2620   26.2160   -0.6490 H   0  0  0  0  0  0  0  0  0  0  0  0
   30.8332   25.3572    1.0347 H   0  0  0  0  0  0  0  0  0  0  0  0
   31.1721   23.5557    2.7226 H   0  0  0  0  0  0  0  0  0  0  0  0
   29.9529   21.3921    2.5029 H   0  0  0  0  0  0  0  0  0  0  0  0
   28.3851   21.0411    0.5968 H   0  0  0  0  0  0  0  0  0  0  0  0
   28.0389   22.8419   -1.0924 H   0  0  0  0  0  0  0  0  0  0  0  0
  1  2  2  0
  2  3  1  0
  3  4  1  0
  4  5  1  0
  5  6  2  0
  6  7  1  0
  7  8  1  6
  7  9  1  0
  9 10  2  0
  9 11  1  0
  7 12  1  0
 12 13  1  0
 13 14  1  0
 13 15  1  0
 15 16  2  0
  2 17  1  0
 17 18  1  0
 18 19  2  0
 19 20  1  0
 20 21  2  0
 21 22  1  0
 22 23  2  0
 15  5  1  0
 23 18  1  0
  3 24  1  0
  3 25  1  0
  4 26  1  0
  4 27  1  0
  6 28  1  0
  8 29  1  0
 12 30  1  0
 12 31  1  0
 13 32  1  6
 14 33  1  0
 17 34  1  0
 19 35  1  0
 20 36  1  0
 21 37  1  0
 22 38  1  0
 23 39  1  0
M  CHG  1  11  -1
M  END
>  <meeko>  (3) 
{"is_sidechain": [false], "free_energy": -8.316, "intermolecular_energy": -11.007, "internal_energy": -0.389}

$$$$
