4agp_ligand
     RDKit          3D

 62 64  0  0  0  0  0  0  0  0999 V2000
   84.0340   96.0470  -46.0420 C   0  0  0  0  0  0  0  0  0  0  0  0
   85.4970   96.2700  -45.6980 C   0  0  0  0  0  0  0  0  0  0  0  0
   85.6490   97.2210  -44.5210 N   0  0  0  0  0  0  0  0  0  0  0  0
   84.3870   97.4460  -43.6980 C   0  0  0  0  0  0  0  0  0  0  0  0
   83.9180   98.8860  -43.6250 C   0  0  0  0  0  0  0  0  0  0  0  0
   86.5140   98.4510  -44.8720 C   0  0  0  0  0  0  0  0  0  0  0  0
   86.9780   98.4370  -46.3330 C   0  0  0  0  0  0  0  0  0  0  0  0
   88.3480   97.8020  -46.5820 C   0  0  0  0  0  0  0  0  0  0  0  0
   89.0960   97.5400  -45.3450 N   0  0  0  0  0  0  0  0  0  0  0  0
   90.5120   97.2040  -45.6510 C   0  0  0  0  0  0  0  0  0  0  0  0
   90.9220   95.8690  -45.0650 C   0  0  0  0  0  0  0  0  0  0  0  0
   90.9810   94.7450  -45.9040 C   0  0  0  0  0  0  0  0  0  0  0  0
   91.4240   93.5090  -45.4300 C   0  0  0  0  0  0  0  0  0  0  0  0
   91.5890   92.4380  -46.3590 C   0  0  0  0  0  0  0  0  0  0  0  0
   91.7730   91.6170  -47.2160 C   0  0  0  0  0  0  0  0  0  0  0  0
   91.8980   90.6340  -48.2980 C   0  0  0  0  0  0  0  0  0  0  0  0
   90.6040   90.1740  -48.7100 O   0  0  0  0  0  0  0  0  0  0  0  0
   90.0600   90.7050  -49.8460 C   0  0  0  0  0  0  0  0  0  0  0  0
   88.9240   90.0380  -50.3150 C   0  0  0  0  0  0  0  0  0  0  0  0
   88.2680   90.4710  -51.4690 C   0  0  0  0  0  0  0  0  0  0  0  0
   88.7350   91.5900  -52.1540 C   0  0  0  0  0  0  0  0  0  0  0  0
   89.8580   92.2700  -51.6840 C   0  0  0  0  0  0  0  0  0  0  0  0
   90.5190   91.8310  -50.5310 C   0  0  0  0  0  0  0  0  0  0  0  0
   91.7590   93.3590  -44.0860 C   0  0  0  0  0  0  0  0  0  0  0  0
   91.6630   94.4570  -43.2270 C   0  0  0  0  0  0  0  0  0  0  0  0
   92.1760   94.1960  -41.2170 I   0  0  0  0  0  0  0  0  0  0  0  0
   91.2550   95.7080  -43.7160 C   0  0  0  0  0  0  0  0  0  0  0  0
   91.1830   96.8050  -42.9000 O   0  0  0  0  0  0  0  0  0  0  0  0
   89.0210   98.6870  -44.4440 C   0  0  0  0  0  0  0  0  0  0  0  0
   87.6140   98.7500  -43.8500 C   0  0  0  0  0  0  0  0  0  0  0  0
   83.4488   95.9578  -45.1149 H   0  0  0  0  0  0  0  0  0  0  0  0
   83.6617   96.8988  -46.6301 H   0  0  0  0  0  0  0  0  0  0  0  0
   83.9323   95.1230  -46.6301 H   0  0  0  0  0  0  0  0  0  0  0  0
   85.9557   95.3041  -45.4398 H   0  0  0  0  0  0  0  0  0  0  0  0
   85.9950   96.7161  -46.5715 H   0  0  0  0  0  0  0  0  0  0  0  0
   86.2500   96.7040  -43.8660 H   0  0  0  0  0  0  0  0  0  0  0  0
   83.5788   96.8460  -44.1416 H   0  0  0  0  0  0  0  0  0  0  0  0
   84.6351   97.1508  -42.6678 H   0  0  0  0  0  0  0  0  0  0  0  0
   83.8200   99.1868  -42.5715 H   0  0  0  0  0  0  0  0  0  0  0  0
   84.6508   99.5361  -44.1253 H   0  0  0  0  0  0  0  0  0  0  0  0
   82.9429   98.9798  -44.1253 H   0  0  0  0  0  0  0  0  0  0  0  0
   85.8530   99.3263  -44.7886 H   0  0  0  0  0  0  0  0  0  0  0  0
   86.2338   97.8787  -46.9198 H   0  0  0  0  0  0  0  0  0  0  0  0
   87.0751   99.4918  -46.6296 H   0  0  0  0  0  0  0  0  0  0  0  0
   88.2009   96.8486  -47.1106 H   0  0  0  0  0  0  0  0  0  0  0  0
   88.9371   98.5162  -47.1761 H   0  0  0  0  0  0  0  0  0  0  0  0
   90.6391   97.1657  -46.7430 H   0  0  0  0  0  0  0  0  0  0  0  0
   91.1484   97.9803  -45.2012 H   0  0  0  0  0  0  0  0  0  0  0  0
   90.6721   94.8401  -46.9554 H   0  0  0  0  0  0  0  0  0  0  0  0
   92.4059   91.1011  -49.1547 H   0  0  0  0  0  0  0  0  0  0  0  0
   92.4814   89.7757  -47.9335 H   0  0  0  0  0  0  0  0  0  0  0  0
   88.5430   89.1625  -49.7688 H   0  0  0  0  0  0  0  0  0  0  0  0
   87.3840   89.9293  -51.8364 H   0  0  0  0  0  0  0  0  0  0  0  0
   88.2200   91.9361  -53.0623 H   0  0  0  0  0  0  0  0  0  0  0  0
   90.2263   93.1559  -52.2221 H   0  0  0  0  0  0  0  0  0  0  0  0
   91.4021   92.3746  -50.1640 H   0  0  0  0  0  0  0  0  0  0  0  0
   92.0963   92.3841  -43.7041 H   0  0  0  0  0  0  0  0  0  0  0  0
   91.8560   97.4440  -43.2040 H   0  0  0  0  0  0  0  0  0  0  0  0
   89.7593   98.5728  -43.6366 H   0  0  0  0  0  0  0  0  0  0  0  0
   89.2373   99.6133  -44.9964 H   0  0  0  0  0  0  0  0  0  0  0  0
   87.5448   98.0132  -43.0362 H   0  0  0  0  0  0  0  0  0  0  0  0
   87.4563   99.7778  -43.4913 H   0  0  0  0  0  0  0  0  0  0  0  0
  1  2  1  0
  2  3  1  0
  3  4  1  0
  4  5  1  0
  3  6  1  0
  6  7  1  0
  7  8  1  0
  8  9  1  0
  9 10  1  0
 10 11  1  0
 11 12  2  0
 12 13  1  0
 13 14  1  0
 14 15  3  0
 15 16  1  0
 16 17  1  0
 17 18  1  0
 18 19  2  0
 19 20  1  0
 20 21  2  0
 21 22  1  0
 22 23  2  0
 13 24  2  0
 24 25  1  0
 25 26  1  0
 25 27  2  0
 27 28  1  0
  9 29  1  0
 29 30  1  0
 30  6  1  0
 27 11  1  0
 23 18  1  0
  1 31  1  0
  1 32  1  0
  1 33  1  0
  2 34  1  0
  2 35  1  0
  3 36  1  0
  4 37  1  0
  4 38  1  0
  5 39  1  0
  5 40  1  0
  5 41  1  0
  6 42  1  0
  7 43  1  0
  7 44  1  0
  8 45  1  0
  8 46  1  0
 10 47  1  0
 10 48  1  0
 12 49  1  0
 16 50  1  0
 16 51  1  0
 19 52  1  0
 20 53  1  0
 21 54  1  0
 22 55  1  0
 23 56  1  0
 24 57  1  0
 28 58  1  0
 29 59  1  0
 29 60  1  0
 30 61  1  0
 30 62  1  0
M  CHG  1   3   1
M  END
>  <meeko>  (1) 
{"is_sidechain": [false], "free_energy": -6.837, "intermolecular_energy": -10.234, "internal_energy": -1.093}

$$$$
4agp_ligand
     RDKit          3D

 62 64  0  0  0  0  0  0  0  0999 V2000
   90.3430  101.7150  -41.0270 C   0  0  0  0  0  0  0  0  0  0  0  0
   90.6460  100.6670  -42.0840 C   0  0  0  0  0  0  0  0  0  0  0  0
   92.0930  100.7500  -42.5450 N   0  0  0  0  0  0  0  0  0  0  0  0
   92.9630  101.7420  -41.7830 C   0  0  0  0  0  0  0  0  0  0  0  0
   93.6230  102.8040  -42.6400 C   0  0  0  0  0  0  0  0  0  0  0  0
   92.2190  100.7070  -44.0830 C   0  0  0  0  0  0  0  0  0  0  0  0
   90.8670  100.8890  -44.7820 C   0  0  0  0  0  0  0  0  0  0  0  0
   90.1250   99.5950  -45.1260 C   0  0  0  0  0  0  0  0  0  0  0  0
   90.9520   98.3930  -44.9540 N   0  0  0  0  0  0  0  0  0  0  0  0
   90.2930   97.2120  -45.5730 C   0  0  0  0  0  0  0  0  0  0  0  0
   90.7980   95.9070  -44.9930 C   0  0  0  0  0  0  0  0  0  0  0  0
   90.9080   94.7860  -45.8300 C   0  0  0  0  0  0  0  0  0  0  0  0
   91.4370   93.5820  -45.3630 C   0  0  0  0  0  0  0  0  0  0  0  0
   91.6480   92.5190  -46.2930 C   0  0  0  0  0  0  0  0  0  0  0  0
   91.8640   91.7080  -47.1520 C   0  0  0  0  0  0  0  0  0  0  0  0
   92.0240   90.7260  -48.2300 C   0  0  0  0  0  0  0  0  0  0  0  0
   90.7630   90.1270  -48.5550 O   0  0  0  0  0  0  0  0  0  0  0  0
   90.1280   90.5340  -49.6960 C   0  0  0  0  0  0  0  0  0  0  0  0
   89.1860   89.6280  -50.1930 C   0  0  0  0  0  0  0  0  0  0  0  0
   88.4650   89.9140  -51.3540 C   0  0  0  0  0  0  0  0  0  0  0  0
   88.6700   91.1210  -52.0180 C   0  0  0  0  0  0  0  0  0  0  0  0
   89.5960   92.0360  -51.5200 C   0  0  0  0  0  0  0  0  0  0  0  0
   90.3230   91.7460  -50.3600 C   0  0  0  0  0  0  0  0  0  0  0  0
   91.8100   93.4570  -44.0270 C   0  0  0  0  0  0  0  0  0  0  0  0
   91.6660   94.5500  -43.1680 C   0  0  0  0  0  0  0  0  0  0  0  0
   92.2380   94.3290  -41.1700 I   0  0  0  0  0  0  0  0  0  0  0  0
   91.1700   95.7710  -43.6500 C   0  0  0  0  0  0  0  0  0  0  0  0
   91.0480   96.8650  -42.8360 O   0  0  0  0  0  0  0  0  0  0  0  0
   92.2830   98.5970  -45.5200 C   0  0  0  0  0  0  0  0  0  0  0  0
   93.0630   99.5420  -44.6050 C   0  0  0  0  0  0  0  0  0  0  0  0
   90.4703  101.2747  -40.0270 H   0  0  0  0  0  0  0  0  0  0  0  0
   91.0324  102.5641  -41.1443 H   0  0  0  0  0  0  0  0  0  0  0  0
   89.3068  102.0651  -41.1443 H   0  0  0  0  0  0  0  0  0  0  0  0
   90.4611   99.6682  -41.6618 H   0  0  0  0  0  0  0  0  0  0  0  0
   89.9942  100.8495  -42.9511 H   0  0  0  0  0  0  0  0  0  0  0  0
   92.4910   99.8460  -42.2620 H   0  0  0  0  0  0  0  0  0  0  0  0
   92.3314  102.2482  -41.0382 H   0  0  0  0  0  0  0  0  0  0  0  0
   93.7795  101.1556  -41.3363 H   0  0  0  0  0  0  0  0  0  0  0  0
   94.0921  103.5589  -41.9918 H   0  0  0  0  0  0  0  0  0  0  0  0
   94.3907  102.3378  -43.2750 H   0  0  0  0  0  0  0  0  0  0  0  0
   92.8651  103.2860  -43.2750 H   0  0  0  0  0  0  0  0  0  0  0  0
   92.8105  101.5892  -44.3689 H   0  0  0  0  0  0  0  0  0  0  0  0
   90.2208  101.4850  -44.1207 H   0  0  0  0  0  0  0  0  0  0  0  0
   91.0866  101.3766  -45.7433 H   0  0  0  0  0  0  0  0  0  0  0  0
   89.2452   99.5113  -44.4710 H   0  0  0  0  0  0  0  0  0  0  0  0
   89.8441   99.6505  -46.1881 H   0  0  0  0  0  0  0  0  0  0  0  0
   89.2087   97.2804  -45.4008 H   0  0  0  0  0  0  0  0  0  0  0  0
   90.5283   97.2180  -46.6475 H   0  0  0  0  0  0  0  0  0  0  0  0
   90.5707   94.8577  -46.8745 H   0  0  0  0  0  0  0  0  0  0  0  0
   92.4260   91.2295  -49.1215 H   0  0  0  0  0  0  0  0  0  0  0  0
   92.7156   89.9391  -47.8945 H   0  0  0  0  0  0  0  0  0  0  0  0
   89.0111   88.6798  -49.6636 H   0  0  0  0  0  0  0  0  0  0  0  0
   87.7366   89.1875  -51.7434 H   0  0  0  0  0  0  0  0  0  0  0  0
   88.1032   91.3513  -52.9321 H   0  0  0  0  0  0  0  0  0  0  0  0
   89.7562   92.9911  -52.0416 H   0  0  0  0  0  0  0  0  0  0  0  0
   91.0494   92.4746  -49.9708 H   0  0  0  0  0  0  0  0  0  0  0  0
   92.2146   92.5058  -43.6510 H   0  0  0  0  0  0  0  0  0  0  0  0
   91.8230   96.8800  -42.2430 H   0  0  0  0  0  0  0  0  0  0  0  0
   92.8075   97.6327  -45.5904 H   0  0  0  0  0  0  0  0  0  0  0  0
   92.2004   99.0322  -46.5269 H   0  0  0  0  0  0  0  0  0  0  0  0
   93.4360   98.9671  -43.7445 H   0  0  0  0  0  0  0  0  0  0  0  0
   93.8821   99.9720  -45.2002 H   0  0  0  0  0  0  0  0  0  0  0  0
  1  2  1  0
  2  3  1  0
  3  4  1  0
  4  5  1  0
  3  6  1  0
  6  7  1  0
  7  8  1  0
  8  9  1  0
  9 10  1  0
 10 11  1  0
 11 12  2  0
 12 13  1  0
 13 14  1  0
 14 15  3  0
 15 16  1  0
 16 17  1  0
 17 18  1  0
 18 19  2  0
 19 20  1  0
 20 21  2  0
 21 22  1  0
 22 23  2  0
 13 24  2  0
 24 25  1  0
 25 26  1  0
 25 27  2  0
 27 28  1  0
  9 29  1  0
 29 30  1  0
 30  6  1  0
 27 11  1  0
 23 18  1  0
  1 31  1  0
  1 32  1  0
  1 33  1  0
  2 34  1  0
  2 35  1  0
  3 36  1  0
  4 37  1  0
  4 38  1  0
  5 39  1  0
  5 40  1  0
  5 41  1  0
  6 42  1  0
  7 43  1  0
  7 44  1  0
  8 45  1  0
  8 46  1  0
 10 47  1  0
 10 48  1  0
 12 49  1  0
 16 50  1  0
 16 51  1  0
 19 52  1  0
 20 53  1  0
 21 54  1  0
 22 55  1  0
 23 56  1  0
 24 57  1  0
 28 58  1  0
 29 59  1  0
 29 60  1  0
 30 61  1  0
 30 62  1  0
M  CHG  1   3   1
M  END
>  <meeko>  (2) 
{"is_sidechain": [false], "free_energy": -6.752, "intermolecular_energy": -10.273, "internal_energy": -0.927}

$$$$
4agp_ligand
     RDKit          3D

 62 64  0  0  0  0  0  0  0  0999 V2000
   85.2710   95.4230  -48.0780 C   0  0  0  0  0  0  0  0  0  0  0  0
   85.3850   96.9140  -48.3440 C   0  0  0  0  0  0  0  0  0  0  0  0
   86.0370   97.6350  -47.1740 N   0  0  0  0  0  0  0  0  0  0  0  0
   87.3520   97.0370  -46.6910 C   0  0  0  0  0  0  0  0  0  0  0  0
   88.5770   97.8940  -46.9470 C   0  0  0  0  0  0  0  0  0  0  0  0
   85.0070   98.0730  -46.1100 C   0  0  0  0  0  0  0  0  0  0  0  0
   84.7890   99.5900  -46.1040 C   0  0  0  0  0  0  0  0  0  0  0  0
   85.6610  100.3760  -45.1200 C   0  0  0  0  0  0  0  0  0  0  0  0
   86.3790   99.5140  -44.1720 N   0  0  0  0  0  0  0  0  0  0  0  0
   86.9670  100.3240  -43.0710 C   0  0  0  0  0  0  0  0  0  0  0  0
   88.4290  100.0020  -42.8420 C   0  0  0  0  0  0  0  0  0  0  0  0
   88.9690   98.8390  -43.4150 C   0  0  0  0  0  0  0  0  0  0  0  0
   90.3260   98.5350  -43.2950 C   0  0  0  0  0  0  0  0  0  0  0  0
   90.8420   97.4110  -44.0090 C   0  0  0  0  0  0  0  0  0  0  0  0
   91.2070   96.5000  -44.7010 C   0  0  0  0  0  0  0  0  0  0  0  0
   91.5800   95.3250  -45.4950 C   0  0  0  0  0  0  0  0  0  0  0  0
   91.2280   94.1190  -44.8040 O   0  0  0  0  0  0  0  0  0  0  0  0
   91.8400   93.8550  -43.6100 C   0  0  0  0  0  0  0  0  0  0  0  0
   93.1490   93.3780  -43.7190 C   0  0  0  0  0  0  0  0  0  0  0  0
   93.8920   93.0650  -42.5790 C   0  0  0  0  0  0  0  0  0  0  0  0
   93.3320   93.2440  -41.3170 C   0  0  0  0  0  0  0  0  0  0  0  0
   92.0320   93.7340  -41.1990 C   0  0  0  0  0  0  0  0  0  0  0  0
   91.2870   94.0420  -42.3420 C   0  0  0  0  0  0  0  0  0  0  0  0
   91.1600   99.3610  -42.5450 C   0  0  0  0  0  0  0  0  0  0  0  0
   90.6300  100.4990  -41.9320 C   0  0  0  0  0  0  0  0  0  0  0  0
   91.9120  101.7170  -40.8160 I   0  0  0  0  0  0  0  0  0  0  0  0
   89.2740  100.8220  -42.0860 C   0  0  0  0  0  0  0  0  0  0  0  0
   88.7380  101.9480  -41.5200 O   0  0  0  0  0  0  0  0  0  0  0  0
   85.4930   98.4840  -43.6380 C   0  0  0  0  0  0  0  0  0  0  0  0
   85.2320   97.4490  -44.7320 C   0  0  0  0  0  0  0  0  0  0  0  0
   85.2573   95.2442  -46.9927 H   0  0  0  0  0  0  0  0  0  0  0  0
   84.3410   95.0410  -48.5243 H   0  0  0  0  0  0  0  0  0  0  0  0
   86.1321   94.9040  -48.5243 H   0  0  0  0  0  0  0  0  0  0  0  0
   85.9938   97.0716  -49.2465 H   0  0  0  0  0  0  0  0  0  0  0  0
   84.3724   97.3208  -48.4823 H   0  0  0  0  0  0  0  0  0  0  0  0
   86.3380   98.5310  -47.5780 H   0  0  0  0  0  0  0  0  0  0  0  0
   87.2730   96.8694  -45.6067 H   0  0  0  0  0  0  0  0  0  0  0  0
   87.4986   96.1107  -47.2659 H   0  0  0  0  0  0  0  0  0  0  0  0
   89.0166   98.2015  -45.9867 H   0  0  0  0  0  0  0  0  0  0  0  0
   89.3163   97.3151  -47.5200 H   0  0  0  0  0  0  0  0  0  0  0  0
   88.2866   98.7869  -47.5200 H   0  0  0  0  0  0  0  0  0  0  0  0
   84.0424   97.6449  -46.4201 H   0  0  0  0  0  0  0  0  0  0  0  0
   84.9964   99.9665  -47.1165 H   0  0  0  0  0  0  0  0  0  0  0  0
   83.7498   99.7452  -45.7784 H   0  0  0  0  0  0  0  0  0  0  0  0
   86.3986  100.9573  -45.6928 H   0  0  0  0  0  0  0  0  0  0  0  0
   84.9925  101.0235  -44.5336 H   0  0  0  0  0  0  0  0  0  0  0  0
   86.8749  101.3898  -43.3271 H   0  0  0  0  0  0  0  0  0  0  0  0
   86.4199  100.0856  -42.1470 H   0  0  0  0  0  0  0  0  0  0  0  0
   88.3098   98.1545  -43.9690 H   0  0  0  0  0  0  0  0  0  0  0  0
   91.0514   95.3571  -46.4592 H   0  0  0  0  0  0  0  0  0  0  0  0
   92.6678   95.3368  -45.6580 H   0  0  0  0  0  0  0  0  0  0  0  0
   93.5991   93.2476  -44.7142 H   0  0  0  0  0  0  0  0  0  0  0  0
   94.9170   92.6781  -42.6777 H   0  0  0  0  0  0  0  0  0  0  0  0
   93.9134   92.9996  -40.4157 H   0  0  0  0  0  0  0  0  0  0  0  0
   91.5901   93.8791  -40.2021 H   0  0  0  0  0  0  0  0  0  0  0  0
   90.2635   94.4323  -42.2415 H   0  0  0  0  0  0  0  0  0  0  0  0
   92.2276   99.1191  -42.4362 H   0  0  0  0  0  0  0  0  0  0  0  0
   89.4480  102.3930  -41.0190 H   0  0  0  0  0  0  0  0  0  0  0  0
   85.9690   97.9976  -42.7738 H   0  0  0  0  0  0  0  0  0  0  0  0
   84.5437   98.9361  -43.3147 H   0  0  0  0  0  0  0  0  0  0  0  0
   86.0999   96.7757  -44.7905 H   0  0  0  0  0  0  0  0  0  0  0  0
   84.3105   96.9126  -44.4615 H   0  0  0  0  0  0  0  0  0  0  0  0
  1  2  1  0
  2  3  1  0
  3  4  1  0
  4  5  1  0
  3  6  1  0
  6  7  1  0
  7  8  1  0
  8  9  1  0
  9 10  1  0
 10 11  1  0
 11 12  2  0
 12 13  1  0
 13 14  1  0
 14 15  3  0
 15 16  1  0
 16 17  1  0
 17 18  1  0
 18 19  2  0
 19 20  1  0
 20 21  2  0
 21 22  1  0
 22 23  2  0
 13 24  2  0
 24 25  1  0
 25 26  1  0
 25 27  2  0
 27 28  1  0
  9 29  1  0
 29 30  1  0
 30  6  1  0
 27 11  1  0
 23 18  1  0
  1 31  1  0
  1 32  1  0
  1 33  1  0
  2 34  1  0
  2 35  1  0
  3 36  1  0
  4 37  1  0
  4 38  1  0
  5 39  1  0
  5 40  1  0
  5 41  1  0
  6 42  1  0
  7 43  1  0
  7 44  1  0
  8 45  1  0
  8 46  1  0
 10 47  1  0
 10 48  1  0
 12 49  1  0
 16 50  1  0
 16 51  1  0
 19 52  1  0
 20 53  1  0
 21 54  1  0
 22 55  1  0
 23 56  1  0
 24 57  1  0
 28 58  1  0
 29 59  1  0
 29 60  1  0
 30 61  1  0
 30 62  1  0
M  CHG  1   3   1
M  END
>  <meeko>  (3) 
{"is_sidechain": [false], "free_energy": -6.69, "intermolecular_energy": -9.285, "internal_energy": -1.822}

$$$$
4agp_ligand
     RDKit          3D

 62 64  0  0  0  0  0  0  0  0999 V2000
   87.8720   99.2820  -42.6380 C   0  0  0  0  0  0  0  0  0  0  0  0
   86.9470  100.1040  -43.5190 C   0  0  0  0  0  0  0  0  0  0  0  0
   86.0860   99.2110  -44.4000 N   0  0  0  0  0  0  0  0  0  0  0  0
   85.5910   97.9290  -43.7410 C   0  0  0  0  0  0  0  0  0  0  0  0
   84.0840   97.7720  -43.6990 C   0  0  0  0  0  0  0  0  0  0  0  0
   86.6230   99.1230  -45.8450 C   0  0  0  0  0  0  0  0  0  0  0  0
   86.9620   97.6850  -46.2520 C   0  0  0  0  0  0  0  0  0  0  0  0
   88.4160   97.2620  -46.0250 C   0  0  0  0  0  0  0  0  0  0  0  0
   89.2980   98.3880  -45.6900 N   0  0  0  0  0  0  0  0  0  0  0  0
   90.7250   97.9760  -45.7700 C   0  0  0  0  0  0  0  0  0  0  0  0
   90.9890   96.6820  -45.0300 C   0  0  0  0  0  0  0  0  0  0  0  0
   91.0110   95.4770  -45.7490 C   0  0  0  0  0  0  0  0  0  0  0  0
   91.3220   94.2670  -45.1260 C   0  0  0  0  0  0  0  0  0  0  0  0
   91.4590   93.0960  -45.9330 C   0  0  0  0  0  0  0  0  0  0  0  0
   91.6310   92.1810  -46.6910 C   0  0  0  0  0  0  0  0  0  0  0  0
   91.8300   91.1330  -47.6980 C   0  0  0  0  0  0  0  0  0  0  0  0
   91.2430   91.5200  -48.9480 O   0  0  0  0  0  0  0  0  0  0  0  0
   90.4240   90.6270  -49.5820 C   0  0  0  0  0  0  0  0  0  0  0  0
   90.4410   89.3360  -49.0440 C   0  0  0  0  0  0  0  0  0  0  0  0
   89.6540   88.3240  -49.5960 C   0  0  0  0  0  0  0  0  0  0  0  0
   88.8290   88.6010  -50.6830 C   0  0  0  0  0  0  0  0  0  0  0  0
   88.7940   89.8890  -51.2150 C   0  0  0  0  0  0  0  0  0  0  0  0
   89.5880   90.9020  -50.6660 C   0  0  0  0  0  0  0  0  0  0  0  0
   91.5570   94.2300  -43.7540 C   0  0  0  0  0  0  0  0  0  0  0  0
   91.4960   95.4150  -43.0150 C   0  0  0  0  0  0  0  0  0  0  0  0
   91.8570   95.3240  -40.9580 I   0  0  0  0  0  0  0  0  0  0  0  0
   91.2210   96.6350  -43.6500 C   0  0  0  0  0  0  0  0  0  0  0  0
   91.1860   97.8130  -42.9530 O   0  0  0  0  0  0  0  0  0  0  0  0
   89.0390   99.5260  -46.5680 C   0  0  0  0  0  0  0  0  0  0  0  0
   87.7050  100.1560  -46.1690 C   0  0  0  0  0  0  0  0  0  0  0  0
   87.6457   99.4831  -41.5805 H   0  0  0  0  0  0  0  0  0  0  0  0
   87.7235   98.2124  -42.8478 H   0  0  0  0  0  0  0  0  0  0  0  0
   88.9167   99.5552  -42.8478 H   0  0  0  0  0  0  0  0  0  0  0  0
   86.2927  100.7151  -42.8799 H   0  0  0  0  0  0  0  0  0  0  0  0
   87.5630  100.7431  -44.1687 H   0  0  0  0  0  0  0  0  0  0  0  0
   85.2170   99.7480  -44.5160 H   0  0  0  0  0  0  0  0  0  0  0  0
   86.0077   97.0763  -44.2972 H   0  0  0  0  0  0  0  0  0  0  0  0
   85.9253   97.9722  -42.6939 H   0  0  0  0  0  0  0  0  0  0  0  0
   83.7480   97.7370  -42.6521 H   0  0  0  0  0  0  0  0  0  0  0  0
   83.6121   98.6258  -44.2072 H   0  0  0  0  0  0  0  0  0  0  0  0
   83.7982   96.8392  -44.2072 H   0  0  0  0  0  0  0  0  0  0  0  0
   85.7917   99.4188  -46.5019 H   0  0  0  0  0  0  0  0  0  0  0  0
   86.3174   97.0077  -45.6725 H   0  0  0  0  0  0  0  0  0  0  0  0
   86.7976   97.6314  -47.3383 H   0  0  0  0  0  0  0  0  0  0  0  0
   88.4447   96.5368  -45.1984 H   0  0  0  0  0  0  0  0  0  0  0  0
   88.7821   96.8275  -46.9669 H   0  0  0  0  0  0  0  0  0  0  0  0
   90.9960   97.8409  -46.8275 H   0  0  0  0  0  0  0  0  0  0  0  0
   91.3309   98.7640  -45.2989 H   0  0  0  0  0  0  0  0  0  0  0  0
   90.7787   95.4861  -46.8242 H   0  0  0  0  0  0  0  0  0  0  0  0
   92.9082   90.9675  -47.8401 H   0  0  0  0  0  0  0  0  0  0  0  0
   91.3473   90.2081  -47.3493 H   0  0  0  0  0  0  0  0  0  0  0  0
   91.0812   89.1160  -48.1770 H   0  0  0  0  0  0  0  0  0  0  0  0
   89.6855   87.3091  -49.1729 H   0  0  0  0  0  0  0  0  0  0  0  0
   88.2070   87.8061  -51.1204 H   0  0  0  0  0  0  0  0  0  0  0  0
   88.1390   90.1101  -52.0706 H   0  0  0  0  0  0  0  0  0  0  0  0
   89.5535   91.9168  -51.0892 H   0  0  0  0  0  0  0  0  0  0  0  0
   91.7886   93.2768  -43.2562 H   0  0  0  0  0  0  0  0  0  0  0  0
   90.2710   98.1520  -42.9920 H   0  0  0  0  0  0  0  0  0  0  0  0
   89.8451  100.2669  -46.4620 H   0  0  0  0  0  0  0  0  0  0  0  0
   88.9982   99.1912  -47.6150 H   0  0  0  0  0  0  0  0  0  0  0  0
   87.8667  100.7834  -45.2800 H   0  0  0  0  0  0  0  0  0  0  0  0
   87.3500  100.7421  -47.0295 H   0  0  0  0  0  0  0  0  0  0  0  0
  1  2  1  0
  2  3  1  0
  3  4  1  0
  4  5  1  0
  3  6  1  0
  6  7  1  0
  7  8  1  0
  8  9  1  0
  9 10  1  0
 10 11  1  0
 11 12  2  0
 12 13  1  0
 13 14  1  0
 14 15  3  0
 15 16  1  0
 16 17  1  0
 17 18  1  0
 18 19  2  0
 19 20  1  0
 20 21  2  0
 21 22  1  0
 22 23  2  0
 13 24  2  0
 24 25  1  0
 25 26  1  0
 25 27  2  0
 27 28  1  0
  9 29  1  0
 29 30  1  0
 30  6  1  0
 27 11  1  0
 23 18  1  0
  1 31  1  0
  1 32  1  0
  1 33  1  0
  2 34  1  0
  2 35  1  0
  3 36  1  0
  4 37  1  0
  4 38  1  0
  5 39  1  0
  5 40  1  0
  5 41  1  0
  6 42  1  0
  7 43  1  0
  7 44  1  0
  8 45  1  0
  8 46  1  0
 10 47  1  0
 10 48  1  0
 12 49  1  0
 16 50  1  0
 16 51  1  0
 19 52  1  0
 20 53  1  0
 21 54  1  0
 22 55  1  0
 23 56  1  0
 24 57  1  0
 28 58  1  0
 29 59  1  0
 29 60  1  0
 30 61  1  0
 30 62  1  0
M  CHG  1   3   1
M  END
>  <meeko>  (4) 
{"is_sidechain": [false], "free_energy": -6.564, "intermolecular_energy": -9.798, "internal_energy": -1.12}

$$$$
4agp_ligand
     RDKit          3D

 62 64  0  0  0  0  0  0  0  0999 V2000
   84.4340   95.6300  -48.6020 C   0  0  0  0  0  0  0  0  0  0  0  0
   85.9260   95.4450  -48.3860 C   0  0  0  0  0  0  0  0  0  0  0  0
   86.6940   96.7140  -48.7240 N   0  0  0  0  0  0  0  0  0  0  0  0
   87.9370   96.5140  -49.5820 C   0  0  0  0  0  0  0  0  0  0  0  0
   88.7130   95.2420  -49.2990 C   0  0  0  0  0  0  0  0  0  0  0  0
   86.7920   97.6750  -47.5200 C   0  0  0  0  0  0  0  0  0  0  0  0
   87.7590   98.8350  -47.7800 C   0  0  0  0  0  0  0  0  0  0  0  0
   89.1980   98.6100  -47.3090 C   0  0  0  0  0  0  0  0  0  0  0  0
   89.3480   97.4200  -46.4610 N   0  0  0  0  0  0  0  0  0  0  0  0
   90.6800   97.4130  -45.8000 C   0  0  0  0  0  0  0  0  0  0  0  0
   90.9950   96.0750  -45.1640 C   0  0  0  0  0  0  0  0  0  0  0  0
   91.0490   94.9300  -45.9730 C   0  0  0  0  0  0  0  0  0  0  0  0
   91.4070   93.6870  -45.4480 C   0  0  0  0  0  0  0  0  0  0  0  0
   91.5740   92.5870  -46.3440 C   0  0  0  0  0  0  0  0  0  0  0  0
   91.7680   91.7390  -47.1710 C   0  0  0  0  0  0  0  0  0  0  0  0
   91.9080   90.7270  -48.2240 C   0  0  0  0  0  0  0  0  0  0  0  0
   90.6200   90.3340  -48.7180 O   0  0  0  0  0  0  0  0  0  0  0  0
   90.1580   90.9240  -49.8610 C   0  0  0  0  0  0  0  0  0  0  0  0
   88.9420   90.4170  -50.3280 C   0  0  0  0  0  0  0  0  0  0  0  0
   88.3550   90.9250  -51.4880 C   0  0  0  0  0  0  0  0  0  0  0  0
   88.9750   91.9610  -52.1830 C   0  0  0  0  0  0  0  0  0  0  0  0
   90.1800   92.4830  -51.7150 C   0  0  0  0  0  0  0  0  0  0  0  0
   90.7710   91.9680  -50.5550 C   0  0  0  0  0  0  0  0  0  0  0  0
   91.6600   93.5540  -44.0850 C   0  0  0  0  0  0  0  0  0  0  0  0
   91.5670   94.6750  -43.2570 C   0  0  0  0  0  0  0  0  0  0  0  0
   91.9550   94.4400  -41.2160 I   0  0  0  0  0  0  0  0  0  0  0  0
   91.2450   95.9310  -43.7940 C   0  0  0  0  0  0  0  0  0  0  0  0
   91.1780   97.0500  -43.0080 O   0  0  0  0  0  0  0  0  0  0  0  0
   88.2790   97.3560  -45.4690 C   0  0  0  0  0  0  0  0  0  0  0  0
   86.9790   96.9690  -46.1750 C   0  0  0  0  0  0  0  0  0  0  0  0
   83.9275   95.6928  -47.6276 H   0  0  0  0  0  0  0  0  0  0  0  0
   84.2575   96.5569  -49.1674 H   0  0  0  0  0  0  0  0  0  0  0  0
   84.0365   94.7743  -49.1674 H   0  0  0  0  0  0  0  0  0  0  0  0
   86.1064   95.1868  -47.3321 H   0  0  0  0  0  0  0  0  0  0  0  0
   86.2760   94.6399  -49.0488 H   0  0  0  0  0  0  0  0  0  0  0  0
   86.0640   97.2160  -49.3620 H   0  0  0  0  0  0  0  0  0  0  0  0
   87.6245   96.4956  -50.6365 H   0  0  0  0  0  0  0  0  0  0  0  0
   88.6139   97.3471  -49.3417 H   0  0  0  0  0  0  0  0  0  0  0  0
   88.7998   95.0997  -48.2117 H   0  0  0  0  0  0  0  0  0  0  0  0
   88.1843   94.3841  -49.7400 H   0  0  0  0  0  0  0  0  0  0  0  0
   89.7177   95.3196  -49.7400 H   0  0  0  0  0  0  0  0  0  0  0  0
   85.8022   98.1441  -47.4183 H   0  0  0  0  0  0  0  0  0  0  0  0
   87.7821   99.0208  -48.8639 H   0  0  0  0  0  0  0  0  0  0  0  0
   87.3779   99.6838  -47.1933 H   0  0  0  0  0  0  0  0  0  0  0  0
   89.8414   98.4928  -48.1934 H   0  0  0  0  0  0  0  0  0  0  0  0
   89.4847   99.4823  -46.7033 H   0  0  0  0  0  0  0  0  0  0  0  0
   91.4502   97.6379  -46.5524 H   0  0  0  0  0  0  0  0  0  0  0  0
   90.6660   98.1712  -45.0032 H   0  0  0  0  0  0  0  0  0  0  0  0
   90.8044   95.0134  -47.0422 H   0  0  0  0  0  0  0  0  0  0  0  0
   92.5008   91.1449  -49.0511 H   0  0  0  0  0  0  0  0  0  0  0  0
   92.4123   89.8442  -47.8040 H   0  0  0  0  0  0  0  0  0  0  0  0
   88.4419   89.6083  -49.7749 H   0  0  0  0  0  0  0  0  0  0  0  0
   87.4046   90.5081  -51.8527 H   0  0  0  0  0  0  0  0  0  0  0  0
   88.5158   92.3654  -53.0971 H   0  0  0  0  0  0  0  0  0  0  0  0
   90.6690   93.3039  -52.2600 H   0  0  0  0  0  0  0  0  0  0  0  0
   91.7203   92.3871  -50.1900 H   0  0  0  0  0  0  0  0  0  0  0  0
   91.9308   92.5745  -43.6641 H   0  0  0  0  0  0  0  0  0  0  0  0
   90.5560   97.6720  -43.4310 H   0  0  0  0  0  0  0  0  0  0  0  0
   88.5254   96.6018  -44.7072 H   0  0  0  0  0  0  0  0  0  0  0  0
   88.1630   98.3339  -44.9787 H   0  0  0  0  0  0  0  0  0  0  0  0
   86.9847   95.8827  -46.3478 H   0  0  0  0  0  0  0  0  0  0  0  0
   86.1480   97.2786  -45.5242 H   0  0  0  0  0  0  0  0  0  0  0  0
  1  2  1  0
  2  3  1  0
  3  4  1  0
  4  5  1  0
  3  6  1  0
  6  7  1  0
  7  8  1  0
  8  9  1  0
  9 10  1  0
 10 11  1  0
 11 12  2  0
 12 13  1  0
 13 14  1  0
 14 15  3  0
 15 16  1  0
 16 17  1  0
 17 18  1  0
 18 19  2  0
 19 20  1  0
 20 21  2  0
 21 22  1  0
 22 23  2  0
 13 24  2  0
 24 25  1  0
 25 26  1  0
 25 27  2  0
 27 28  1  0
  9 29  1  0
 29 30  1  0
 30  6  1  0
 27 11  1  0
 23 18  1  0
  1 31  1  0
  1 32  1  0
  1 33  1  0
  2 34  1  0
  2 35  1  0
  3 36  1  0
  4 37  1  0
  4 38  1  0
  5 39  1  0
  5 40  1  0
  5 41  1  0
  6 42  1  0
  7 43  1  0
  7 44  1  0
  8 45  1  0
  8 46  1  0
 10 47  1  0
 10 48  1  0
 12 49  1  0
 16 50  1  0
 16 51  1  0
 19 52  1  0
 20 53  1  0
 21 54  1  0
 22 55  1  0
 23 56  1  0
 24 57  1  0
 28 58  1  0
 29 59  1  0
 29 60  1  0
 30 61  1  0
 30 62  1  0
M  CHG  1   3   1
M  END
>  <meeko>  (5) 
{"is_sidechain": [false], "free_energy": -6.456, "intermolecular_energy": -9.025, "internal_energy": -1.731}

$$$$
4agp_ligand
     RDKit          3D

 62 64  0  0  0  0  0  0  0  0999 V2000
   92.9520  102.7780  -42.1790 C   0  0  0  0  0  0  0  0  0  0  0  0
   92.8050  101.6590  -43.1950 C   0  0  0  0  0  0  0  0  0  0  0  0
   91.4900  100.9160  -43.0120 N   0  0  0  0  0  0  0  0  0  0  0  0
   91.2760   99.7310  -43.9440 C   0  0  0  0  0  0  0  0  0  0  0  0
   91.1970   98.3820  -43.2570 C   0  0  0  0  0  0  0  0  0  0  0  0
   90.3040  101.8770  -42.7770 C   0  0  0  0  0  0  0  0  0  0  0  0
   89.3820  101.3970  -41.6520 C   0  0  0  0  0  0  0  0  0  0  0  0
   88.1890  100.5450  -42.0970 C   0  0  0  0  0  0  0  0  0  0  0  0
   87.9930  100.5450  -43.5530 N   0  0  0  0  0  0  0  0  0  0  0  0
   86.6720   99.9560  -43.9010 C   0  0  0  0  0  0  0  0  0  0  0  0
   86.7890   98.8680  -44.9480 C   0  0  0  0  0  0  0  0  0  0  0  0
   88.0110   98.1920  -45.0950 C   0  0  0  0  0  0  0  0  0  0  0  0
   88.1490   97.1330  -45.9930 C   0  0  0  0  0  0  0  0  0  0  0  0
   89.3740   96.3990  -46.0040 C   0  0  0  0  0  0  0  0  0  0  0  0
   90.4030   95.7890  -45.8930 C   0  0  0  0  0  0  0  0  0  0  0  0
   91.6010   94.9600  -45.7240 C   0  0  0  0  0  0  0  0  0  0  0  0
   91.3530   93.9050  -44.7860 O   0  0  0  0  0  0  0  0  0  0  0  0
   91.9090   94.0030  -43.5400 C   0  0  0  0  0  0  0  0  0  0  0  0
   92.9440   93.0960  -43.2910 C   0  0  0  0  0  0  0  0  0  0  0  0
   93.5990   93.0830  -42.0580 C   0  0  0  0  0  0  0  0  0  0  0  0
   93.2330   93.9910  -41.0680 C   0  0  0  0  0  0  0  0  0  0  0  0
   92.2120   94.9090  -41.3150 C   0  0  0  0  0  0  0  0  0  0  0  0
   91.5520   94.9170  -42.5480 C   0  0  0  0  0  0  0  0  0  0  0  0
   87.0810   96.7670  -46.8090 C   0  0  0  0  0  0  0  0  0  0  0  0
   85.8710   97.4590  -46.7060 C   0  0  0  0  0  0  0  0  0  0  0  0
   84.2870   96.8820  -47.9440 I   0  0  0  0  0  0  0  0  0  0  0  0
   85.7230   98.4980  -45.7750 C   0  0  0  0  0  0  0  0  0  0  0  0
   84.5380   99.1690  -45.6350 O   0  0  0  0  0  0  0  0  0  0  0  0
   88.1140  101.8970  -44.0900 C   0  0  0  0  0  0  0  0  0  0  0  0
   89.5870  102.3040  -44.0600 C   0  0  0  0  0  0  0  0  0  0  0  0
   92.8971  102.3602  -41.1629 H   0  0  0  0  0  0  0  0  0  0  0  0
   93.9232  103.2752  -42.3191 H   0  0  0  0  0  0  0  0  0  0  0  0
   92.1422  103.5092  -42.3191 H   0  0  0  0  0  0  0  0  0  0  0  0
   92.8365  102.0878  -44.2075 H   0  0  0  0  0  0  0  0  0  0  0  0
   93.6300  100.9463  -43.0486 H   0  0  0  0  0  0  0  0  0  0  0  0
   91.5940  100.4600  -42.0970 H   0  0  0  0  0  0  0  0  0  0  0  0
   90.3345   99.8917  -44.4897 H   0  0  0  0  0  0  0  0  0  0  0  0
   92.1590   99.6914  -44.5988 H   0  0  0  0  0  0  0  0  0  0  0  0
   91.2054   98.5249  -42.1664 H   0  0  0  0  0  0  0  0  0  0  0  0
   90.2675   97.8736  -43.5531 H   0  0  0  0  0  0  0  0  0  0  0  0
   92.0608   97.7686  -43.5531 H   0  0  0  0  0  0  0  0  0  0  0  0
   90.7379  102.8188  -42.4099 H   0  0  0  0  0  0  0  0  0  0  0  0
   89.9839  100.7986  -40.9523 H   0  0  0  0  0  0  0  0  0  0  0  0
   88.9542  102.3055  -41.2030 H   0  0  0  0  0  0  0  0  0  0  0  0
   88.3555   99.5093  -41.7660 H   0  0  0  0  0  0  0  0  0  0  0  0
   87.2866  100.9816  -41.6442 H   0  0  0  0  0  0  0  0  0  0  0  0
   86.2251   99.5266  -42.9922 H   0  0  0  0  0  0  0  0  0  0  0  0
   86.0434  100.7577  -44.3157 H   0  0  0  0  0  0  0  0  0  0  0  0
   88.8759   98.5032  -44.4907 H   0  0  0  0  0  0  0  0  0  0  0  0
   91.8791   94.5235  -46.6946 H   0  0  0  0  0  0  0  0  0  0  0  0
   92.4186   95.5897  -45.3433 H   0  0  0  0  0  0  0  0  0  0  0  0
   93.2452   92.3854  -44.0748 H   0  0  0  0  0  0  0  0  0  0  0  0
   94.4030   92.3565  -41.8690 H   0  0  0  0  0  0  0  0  0  0  0  0
   93.7467   93.9846  -40.0953 H   0  0  0  0  0  0  0  0  0  0  0  0
   91.9245   95.6303  -40.5359 H   0  0  0  0  0  0  0  0  0  0  0  0
   90.7496   95.6455  -42.7362 H   0  0  0  0  0  0  0  0  0  0  0  0
   87.1889   95.9412  -47.5276 H   0  0  0  0  0  0  0  0  0  0  0  0
   83.9010   98.7800  -46.2650 H   0  0  0  0  0  0  0  0  0  0  0  0
   87.7446  101.9187  -45.1259 H   0  0  0  0  0  0  0  0  0  0  0  0
   87.5187  102.5963  -43.4846 H   0  0  0  0  0  0  0  0  0  0  0  0
   90.0960  101.8382  -44.9167 H   0  0  0  0  0  0  0  0  0  0  0  0
   89.6238  103.4025  -44.1052 H   0  0  0  0  0  0  0  0  0  0  0  0
  1  2  1  0
  2  3  1  0
  3  4  1  0
  4  5  1  0
  3  6  1  0
  6  7  1  0
  7  8  1  0
  8  9  1  0
  9 10  1  0
 10 11  1  0
 11 12  2  0
 12 13  1  0
 13 14  1  0
 14 15  3  0
 15 16  1  0
 16 17  1  0
 17 18  1  0
 18 19  2  0
 19 20  1  0
 20 21  2  0
 21 22  1  0
 22 23  2  0
 13 24  2  0
 24 25  1  0
 25 26  1  0
 25 27  2  0
 27 28  1  0
  9 29  1  0
 29 30  1  0
 30  6  1  0
 27 11  1  0
 23 18  1  0
  1 31  1  0
  1 32  1  0
  1 33  1  0
  2 34  1  0
  2 35  1  0
  3 36  1  0
  4 37  1  0
  4 38  1  0
  5 39  1  0
  5 40  1  0
  5 41  1  0
  6 42  1  0
  7 43  1  0
  7 44  1  0
  8 45  1  0
  8 46  1  0
 10 47  1  0
 10 48  1  0
 12 49  1  0
 16 50  1  0
 16 51  1  0
 19 52  1  0
 20 53  1  0
 21 54  1  0
 22 55  1  0
 23 56  1  0
 24 57  1  0
 28 58  1  0
 29 59  1  0
 29 60  1  0
 30 61  1  0
 30 62  1  0
M  CHG  1   3   1
M  END
>  <meeko>  (6) 
{"is_sidechain": [false], "free_energy": -6.256, "intermolecular_energy": -8.585, "internal_energy": -1.872}

$$$$
4agp_ligand
     RDKit          3D

 62 64  0  0  0  0  0  0  0  0999 V2000
   90.7730   98.9990  -42.6980 C   0  0  0  0  0  0  0  0  0  0  0  0
   91.9560   99.7550  -43.2790 C   0  0  0  0  0  0  0  0  0  0  0  0
   92.2840  100.9880  -42.4500 N   0  0  0  0  0  0  0  0  0  0  0  0
   91.9950  100.8660  -40.9590 C   0  0  0  0  0  0  0  0  0  0  0  0
   92.8810  101.7100  -40.0640 C   0  0  0  0  0  0  0  0  0  0  0  0
   91.8780  102.2960  -43.1620 C   0  0  0  0  0  0  0  0  0  0  0  0
   90.5940  102.8990  -42.5810 C   0  0  0  0  0  0  0  0  0  0  0  0
   89.2970  102.4890  -43.2850 C   0  0  0  0  0  0  0  0  0  0  0  0
   89.5280  101.7860  -44.5540 N   0  0  0  0  0  0  0  0  0  0  0  0
   88.2620  101.6740  -45.3270 C   0  0  0  0  0  0  0  0  0  0  0  0
   87.6760  100.2790  -45.2650 C   0  0  0  0  0  0  0  0  0  0  0  0
   88.4750   99.1860  -45.6350 C   0  0  0  0  0  0  0  0  0  0  0  0
   88.0060   97.8760  -45.5250 C   0  0  0  0  0  0  0  0  0  0  0  0
   88.9080   96.8010  -45.7890 C   0  0  0  0  0  0  0  0  0  0  0  0
   89.7500   95.9600  -45.9530 C   0  0  0  0  0  0  0  0  0  0  0  0
   90.8170   94.9590  -46.0560 C   0  0  0  0  0  0  0  0  0  0  0  0
   91.9100   95.2990  -45.1930 O   0  0  0  0  0  0  0  0  0  0  0  0
   91.9730   94.7050  -43.9630 C   0  0  0  0  0  0  0  0  0  0  0  0
   91.5960   95.5290  -42.8980 C   0  0  0  0  0  0  0  0  0  0  0  0
   91.6150   95.0520  -41.5860 C   0  0  0  0  0  0  0  0  0  0  0  0
   91.9980   93.7370  -41.3310 C   0  0  0  0  0  0  0  0  0  0  0  0
   92.3600   92.9050  -42.3900 C   0  0  0  0  0  0  0  0  0  0  0  0
   92.3460   93.3860  -43.7040 C   0  0  0  0  0  0  0  0  0  0  0  0
   86.7020   97.6360  -45.0990 C   0  0  0  0  0  0  0  0  0  0  0  0
   85.8780   98.7160  -44.7690 C   0  0  0  0  0  0  0  0  0  0  0  0
   83.9270   98.3200  -44.1310 I   0  0  0  0  0  0  0  0  0  0  0  0
   86.3650  100.0300  -44.8430 C   0  0  0  0  0  0  0  0  0  0  0  0
   85.5870  101.1010  -44.4960 O   0  0  0  0  0  0  0  0  0  0  0  0
   90.5550  102.4640  -45.3400 C   0  0  0  0  0  0  0  0  0  0  0  0
   91.9150  102.2090  -44.6900 C   0  0  0  0  0  0  0  0  0  0  0  0
   90.8217   99.0301  -41.5995 H   0  0  0  0  0  0  0  0  0  0  0  0
   89.8368   99.4666  -43.0369 H   0  0  0  0  0  0  0  0  0  0  0  0
   90.8041   97.9530  -43.0369 H   0  0  0  0  0  0  0  0  0  0  0  0
   92.8326   99.0908  -43.2959 H   0  0  0  0  0  0  0  0  0  0  0  0
   91.6949  100.0799  -44.2970 H   0  0  0  0  0  0  0  0  0  0  0  0
   93.3110  101.0300  -42.4720 H   0  0  0  0  0  0  0  0  0  0  0  0
   90.9510  101.1674  -40.7879 H   0  0  0  0  0  0  0  0  0  0  0  0
   92.1963   99.8182  -40.6913 H   0  0  0  0  0  0  0  0  0  0  0  0
   92.6520  101.4918  -39.0105 H   0  0  0  0  0  0  0  0  0  0  0  0
   93.9364  101.4750  -40.2661 H   0  0  0  0  0  0  0  0  0  0  0  0
   92.6975  102.7756  -40.2661 H   0  0  0  0  0  0  0  0  0  0  0  0
   92.6670  103.0283  -42.9358 H   0  0  0  0  0  0  0  0  0  0  0  0
   90.5205  102.5899  -41.5279 H   0  0  0  0  0  0  0  0  0  0  0  0
   90.6817  103.9869  -42.7181 H   0  0  0  0  0  0  0  0  0  0  0  0
   88.7297  101.8257  -42.6155 H   0  0  0  0  0  0  0  0  0  0  0  0
   88.7437  103.4111  -43.5166 H   0  0  0  0  0  0  0  0  0  0  0  0
   87.5306  102.3843  -44.9139 H   0  0  0  0  0  0  0  0  0  0  0  0
   88.4878  101.8992  -46.3798 H   0  0  0  0  0  0  0  0  0  0  0  0
   89.4901   99.3652  -46.0190 H   0  0  0  0  0  0  0  0  0  0  0  0
   90.4195   93.9752  -45.7661 H   0  0  0  0  0  0  0  0  0  0  0  0
   91.1792   94.9309  -47.0943 H   0  0  0  0  0  0  0  0  0  0  0  0
   91.2811   96.5642  -43.0960 H   0  0  0  0  0  0  0  0  0  0  0  0
   91.3281   95.7133  -40.7551 H   0  0  0  0  0  0  0  0  0  0  0  0
   92.0148   93.3567  -40.2990 H   0  0  0  0  0  0  0  0  0  0  0  0
   92.6582   91.8650  -42.1913 H   0  0  0  0  0  0  0  0  0  0  0  0
   92.6297   92.7227  -44.5344 H   0  0  0  0  0  0  0  0  0  0  0  0
   86.3238   96.6059  -45.0229 H   0  0  0  0  0  0  0  0  0  0  0  0
   85.9550  101.4800  -43.6750 H   0  0  0  0  0  0  0  0  0  0  0  0
   90.5556  102.0703  -46.3671 H   0  0  0  0  0  0  0  0  0  0  0  0
   90.3509  103.5444  -45.3725 H   0  0  0  0  0  0  0  0  0  0  0  0
   92.2556  101.2026  -44.9749 H   0  0  0  0  0  0  0  0  0  0  0  0
   92.5999  102.9927  -45.0459 H   0  0  0  0  0  0  0  0  0  0  0  0
  1  2  1  0
  2  3  1  0
  3  4  1  0
  4  5  1  0
  3  6  1  0
  6  7  1  0
  7  8  1  0
  8  9  1  0
  9 10  1  0
 10 11  1  0
 11 12  2  0
 12 13  1  0
 13 14  1  0
 14 15  3  0
 15 16  1  0
 16 17  1  0
 17 18  1  0
 18 19  2  0
 19 20  1  0
 20 21  2  0
 21 22  1  0
 22 23  2  0
 13 24  2  0
 24 25  1  0
 25 26  1  0
 25 27  2  0
 27 28  1  0
  9 29  1  0
 29 30  1  0
 30  6  1  0
 27 11  1  0
 23 18  1  0
  1 31  1  0
  1 32  1  0
  1 33  1  0
  2 34  1  0
  2 35  1  0
  3 36  1  0
  4 37  1  0
  4 38  1  0
  5 39  1  0
  5 40  1  0
  5 41  1  0
  6 42  1  0
  7 43  1  0
  7 44  1  0
  8 45  1  0
  8 46  1  0
 10 47  1  0
 10 48  1  0
 12 49  1  0
 16 50  1  0
 16 51  1  0
 19 52  1  0
 20 53  1  0
 21 54  1  0
 22 55  1  0
 23 56  1  0
 24 57  1  0
 28 58  1  0
 29 59  1  0
 29 60  1  0
 30 61  1  0
 30 62  1  0
M  CHG  1   3   1
M  END
>  <meeko>  (7) 
{"is_sidechain": [false], "free_energy": -6.234, "intermolecular_energy": -8.502, "internal_energy": -1.922}

$$$$
4agp_ligand
     RDKit          3D

 62 64  0  0  0  0  0  0  0  0999 V2000
   83.0320   96.8320  -45.1500 C   0  0  0  0  0  0  0  0  0  0  0  0
   83.1490   98.2150  -44.5320 C   0  0  0  0  0  0  0  0  0  0  0  0
   84.5300   98.8080  -44.7630 N   0  0  0  0  0  0  0  0  0  0  0  0
   85.6790   98.0620  -44.0970 C   0  0  0  0  0  0  0  0  0  0  0  0
   86.7700   97.5940  -45.0400 C   0  0  0  0  0  0  0  0  0  0  0  0
   84.5240  100.3510  -44.6820 C   0  0  0  0  0  0  0  0  0  0  0  0
   85.0310  101.0010  -45.9740 C   0  0  0  0  0  0  0  0  0  0  0  0
   86.5270  101.3270  -46.0040 C   0  0  0  0  0  0  0  0  0  0  0  0
   87.1720  101.1910  -44.6910 N   0  0  0  0  0  0  0  0  0  0  0  0
   88.5320  101.7930  -44.7130 C   0  0  0  0  0  0  0  0  0  0  0  0
   89.5410  100.9540  -43.9560 C   0  0  0  0  0  0  0  0  0  0  0  0
   89.8020   99.6450  -44.3900 C   0  0  0  0  0  0  0  0  0  0  0  0
   90.7750   98.8580  -43.7730 C   0  0  0  0  0  0  0  0  0  0  0  0
   91.0890   97.5860  -44.3410 C   0  0  0  0  0  0  0  0  0  0  0  0
   91.3450   96.5690  -44.9250 C   0  0  0  0  0  0  0  0  0  0  0  0
   91.5810   95.2780  -45.5810 C   0  0  0  0  0  0  0  0  0  0  0  0
   91.1420   94.2010  -44.7430 O   0  0  0  0  0  0  0  0  0  0  0  0
   91.7750   94.0120  -43.5450 C   0  0  0  0  0  0  0  0  0  0  0  0
   93.0320   93.4060  -43.6400 C   0  0  0  0  0  0  0  0  0  0  0  0
   93.7880   93.1510  -42.4950 C   0  0  0  0  0  0  0  0  0  0  0  0
   93.2980   93.5180  -41.2440 C   0  0  0  0  0  0  0  0  0  0  0  0
   92.0530   94.1370  -41.1430 C   0  0  0  0  0  0  0  0  0  0  0  0
   91.2920   94.3860  -42.2910 C   0  0  0  0  0  0  0  0  0  0  0  0
   91.4660   99.3450  -42.6660 C   0  0  0  0  0  0  0  0  0  0  0  0
   91.1860  100.6300  -42.1930 C   0  0  0  0  0  0  0  0  0  0  0  0
   92.2430  101.3300  -40.5300 I   0  0  0  0  0  0  0  0  0  0  0  0
   90.2350  101.4340  -42.8390 C   0  0  0  0  0  0  0  0  0  0  0  0
   89.9670  102.7070  -42.4130 O   0  0  0  0  0  0  0  0  0  0  0  0
   86.3540  101.8010  -43.6470 C   0  0  0  0  0  0  0  0  0  0  0  0
   85.1380  100.9080  -43.3960 C   0  0  0  0  0  0  0  0  0  0  0  0
   82.9682   96.0779  -44.3517 H   0  0  0  0  0  0  0  0  0  0  0  0
   82.1266   96.7841  -45.7729 H   0  0  0  0  0  0  0  0  0  0  0  0
   83.9165   96.6327  -45.7729 H   0  0  0  0  0  0  0  0  0  0  0  0
   82.3951   98.8752  -44.9856 H   0  0  0  0  0  0  0  0  0  0  0  0
   82.9862   98.1258  -43.4478 H   0  0  0  0  0  0  0  0  0  0  0  0
   84.7050   98.6360  -45.7610 H   0  0  0  0  0  0  0  0  0  0  0  0
   86.1350   98.7316  -43.3529 H   0  0  0  0  0  0  0  0  0  0  0  0
   85.2421   97.1535  -43.6568 H   0  0  0  0  0  0  0  0  0  0  0  0
   87.6267   97.2265  -44.4560 H   0  0  0  0  0  0  0  0  0  0  0  0
   86.3834   96.7826  -45.6741 H   0  0  0  0  0  0  0  0  0  0  0  0
   87.0915   98.4334  -45.6741 H   0  0  0  0  0  0  0  0  0  0  0  0
   83.4691  100.6526  -44.6032 H   0  0  0  0  0  0  0  0  0  0  0  0
   84.8170  100.3138  -46.8059 H   0  0  0  0  0  0  0  0  0  0  0  0
   84.5095  101.9664  -46.0516 H   0  0  0  0  0  0  0  0  0  0  0  0
   87.0206  100.6423  -46.7093 H   0  0  0  0  0  0  0  0  0  0  0  0
   86.6280  102.3781  -46.3122 H   0  0  0  0  0  0  0  0  0  0  0  0
   88.8615  101.8859  -45.7584 H   0  0  0  0  0  0  0  0  0  0  0  0
   88.4743  102.7761  -44.2228 H   0  0  0  0  0  0  0  0  0  0  0  0
   89.2285   99.2316  -45.2327 H   0  0  0  0  0  0  0  0  0  0  0  0
   91.0259   95.2475  -46.5302 H   0  0  0  0  0  0  0  0  0  0  0  0
   92.6591   95.1661  -45.7683 H   0  0  0  0  0  0  0  0  0  0  0  0
   93.4288   93.1275  -44.6274 H   0  0  0  0  0  0  0  0  0  0  0  0
   94.7691   92.6610  -42.5804 H   0  0  0  0  0  0  0  0  0  0  0  0
   93.8912   93.3201  -40.3390 H   0  0  0  0  0  0  0  0  0  0  0  0
   91.6667   94.4313  -40.1560 H   0  0  0  0  0  0  0  0  0  0  0  0
   90.3117   94.8773  -42.2042 H   0  0  0  0  0  0  0  0  0  0  0  0
   92.2253   98.7238  -42.1685 H   0  0  0  0  0  0  0  0  0  0  0  0
   89.4170  103.1370  -43.0960 H   0  0  0  0  0  0  0  0  0  0  0  0
   86.9424  101.8944  -42.7223 H   0  0  0  0  0  0  0  0  0  0  0  0
   86.0262  102.8023  -43.9633 H   0  0  0  0  0  0  0  0  0  0  0  0
   85.4488  100.0639  -42.7628 H   0  0  0  0  0  0  0  0  0  0  0  0
   84.3711  101.5288  -42.9096 H   0  0  0  0  0  0  0  0  0  0  0  0
  1  2  1  0
  2  3  1  0
  3  4  1  0
  4  5  1  0
  3  6  1  0
  6  7  1  0
  7  8  1  0
  8  9  1  0
  9 10  1  0
 10 11  1  0
 11 12  2  0
 12 13  1  0
 13 14  1  0
 14 15  3  0
 15 16  1  0
 16 17  1  0
 17 18  1  0
 18 19  2  0
 19 20  1  0
 20 21  2  0
 21 22  1  0
 22 23  2  0
 13 24  2  0
 24 25  1  0
 25 26  1  0
 25 27  2  0
 27 28  1  0
  9 29  1  0
 29 30  1  0
 30  6  1  0
 27 11  1  0
 23 18  1  0
  1 31  1  0
  1 32  1  0
  1 33  1  0
  2 34  1  0
  2 35  1  0
  3 36  1  0
  4 37  1  0
  4 38  1  0
  5 39  1  0
  5 40  1  0
  5 41  1  0
  6 42  1  0
  7 43  1  0
  7 44  1  0
  8 45  1  0
  8 46  1  0
 10 47  1  0
 10 48  1  0
 12 49  1  0
 16 50  1  0
 16 51  1  0
 19 52  1  0
 20 53  1  0
 21 54  1  0
 22 55  1  0
 23 56  1  0
 24 57  1  0
 28 58  1  0
 29 59  1  0
 29 60  1  0
 30 61  1  0
 30 62  1  0
M  CHG  1   3   1
M  END
>  <meeko>  (8) 
{"is_sidechain": [false], "free_energy": -6.188, "intermolecular_energy": -8.668, "internal_energy": -1.687}

$$$$
4agp_ligand
     RDKit          3D

 62 64  0  0  0  0  0  0  0  0999 V2000
   83.5620  101.9690  -42.2010 C   0  0  0  0  0  0  0  0  0  0  0  0
   85.0240  101.6130  -42.4080 C   0  0  0  0  0  0  0  0  0  0  0  0
   85.1710  100.3120  -43.1830 N   0  0  0  0  0  0  0  0  0  0  0  0
   86.5100  100.1180  -43.8820 C   0  0  0  0  0  0  0  0  0  0  0  0
   87.4730   99.1840  -43.1750 C   0  0  0  0  0  0  0  0  0  0  0  0
   83.8870   99.9460  -43.9600 C   0  0  0  0  0  0  0  0  0  0  0  0
   83.3550   98.5600  -43.5810 C   0  0  0  0  0  0  0  0  0  0  0  0
   83.8350   97.4060  -44.4660 C   0  0  0  0  0  0  0  0  0  0  0  0
   84.5260   97.8600  -45.6800 N   0  0  0  0  0  0  0  0  0  0  0  0
   84.7070   96.7310  -46.6310 C   0  0  0  0  0  0  0  0  0  0  0  0
   86.1460   96.5900  -47.0830 C   0  0  0  0  0  0  0  0  0  0  0  0
   87.1730   97.0390  -46.2390 C   0  0  0  0  0  0  0  0  0  0  0  0
   88.5170   96.8640  -46.5760 C   0  0  0  0  0  0  0  0  0  0  0  0
   89.5150   97.2210  -45.6190 C   0  0  0  0  0  0  0  0  0  0  0  0
   90.2830   97.4720  -44.7320 C   0  0  0  0  0  0  0  0  0  0  0  0
   91.2070   97.6790  -43.6110 C   0  0  0  0  0  0  0  0  0  0  0  0
   90.9250   96.7560  -42.5510 O   0  0  0  0  0  0  0  0  0  0  0  0
   91.5650   95.5480  -42.5560 C   0  0  0  0  0  0  0  0  0  0  0  0
   92.2720   95.2580  -41.3840 C   0  0  0  0  0  0  0  0  0  0  0  0
   92.9750   94.0590  -41.2540 C   0  0  0  0  0  0  0  0  0  0  0  0
   92.9610   93.1310  -42.2920 C   0  0  0  0  0  0  0  0  0  0  0  0
   92.2460   93.4060  -43.4570 C   0  0  0  0  0  0  0  0  0  0  0  0
   91.5470   94.6110  -43.5900 C   0  0  0  0  0  0  0  0  0  0  0  0
   88.8580   96.2900  -47.7980 C   0  0  0  0  0  0  0  0  0  0  0  0
   87.8480   95.8780  -48.6700 C   0  0  0  0  0  0  0  0  0  0  0  0
   88.3970   95.0180  -50.4950 I   0  0  0  0  0  0  0  0  0  0  0  0
   86.4990   96.0190  -48.3110 C   0  0  0  0  0  0  0  0  0  0  0  0
   85.4910   95.5950  -49.1360 O   0  0  0  0  0  0  0  0  0  0  0  0
   83.7940   98.9550  -46.3110 C   0  0  0  0  0  0  0  0  0  0  0  0
   83.9740  100.2150  -45.4640 C   0  0  0  0  0  0  0  0  0  0  0  0
   83.3464  102.0215  -41.1236 H   0  0  0  0  0  0  0  0  0  0  0  0
   83.3529  102.9443  -42.6647 H   0  0  0  0  0  0  0  0  0  0  0  0
   82.9279  101.1990  -42.6647 H   0  0  0  0  0  0  0  0  0  0  0  0
   85.5139  102.4221  -42.9696 H   0  0  0  0  0  0  0  0  0  0  0  0
   85.4935  101.4848  -41.4215 H   0  0  0  0  0  0  0  0  0  0  0  0
   85.2010   99.5940  -42.4480 H   0  0  0  0  0  0  0  0  0  0  0  0
   86.3153   99.7116  -44.8855 H   0  0  0  0  0  0  0  0  0  0  0  0
   86.9947  101.1053  -43.8969 H   0  0  0  0  0  0  0  0  0  0  0  0
   87.3588   99.2948  -42.0866 H   0  0  0  0  0  0  0  0  0  0  0  0
   87.2541   98.1451  -43.4628 H   0  0  0  0  0  0  0  0  0  0  0  0
   88.5047   99.4346  -43.4628 H   0  0  0  0  0  0  0  0  0  0  0  0
   83.1115  100.6513  -43.6267 H   0  0  0  0  0  0  0  0  0  0  0  0
   83.6675   98.3477  -42.5479 H   0  0  0  0  0  0  0  0  0  0  0  0
   82.2640   98.6085  -43.7126 H   0  0  0  0  0  0  0  0  0  0  0  0
   84.5270   96.7814  -43.8821 H   0  0  0  0  0  0  0  0  0  0  0  0
   82.9443   96.8453  -44.7857 H   0  0  0  0  0  0  0  0  0  0  0  0
   84.3977   95.7982  -46.1368 H   0  0  0  0  0  0  0  0  0  0  0  0
   84.0919   96.9356  -47.5197 H   0  0  0  0  0  0  0  0  0  0  0  0
   86.9146   97.5385  -45.2936 H   0  0  0  0  0  0  0  0  0  0  0  0
   92.2390   97.5257  -43.9595 H   0  0  0  0  0  0  0  0  0  0  0  0
   91.0830   98.7043  -43.2324 H   0  0  0  0  0  0  0  0  0  0  0  0
   92.2739   95.9825  -40.5563 H   0  0  0  0  0  0  0  0  0  0  0  0
   93.5389   93.8477  -40.3334 H   0  0  0  0  0  0  0  0  0  0  0  0
   93.5121   92.1842  -42.1932 H   0  0  0  0  0  0  0  0  0  0  0  0
   92.2313   92.6718  -44.2760 H   0  0  0  0  0  0  0  0  0  0  0  0
   90.9826   94.8199  -44.5108 H   0  0  0  0  0  0  0  0  0  0  0  0
   89.9150   96.1621  -48.0744 H   0  0  0  0  0  0  0  0  0  0  0  0
   85.3640   96.2770  -49.8220 H   0  0  0  0  0  0  0  0  0  0  0  0
   84.1882   99.1295  -47.3230 H   0  0  0  0  0  0  0  0  0  0  0  0
   82.7263   98.7005  -46.3832 H   0  0  0  0  0  0  0  0  0  0  0  0
   84.9608  100.6475  -45.6856 H   0  0  0  0  0  0  0  0  0  0  0  0
   83.1550  100.9027  -45.7217 H   0  0  0  0  0  0  0  0  0  0  0  0
  1  2  1  0
  2  3  1  0
  3  4  1  0
  4  5  1  0
  3  6  1  0
  6  7  1  0
  7  8  1  0
  8  9  1  0
  9 10  1  0
 10 11  1  0
 11 12  2  0
 12 13  1  0
 13 14  1  0
 14 15  3  0
 15 16  1  0
 16 17  1  0
 17 18  1  0
 18 19  2  0
 19 20  1  0
 20 21  2  0
 21 22  1  0
 22 23  2  0
 13 24  2  0
 24 25  1  0
 25 26  1  0
 25 27  2  0
 27 28  1  0
  9 29  1  0
 29 30  1  0
 30  6  1  0
 27 11  1  0
 23 18  1  0
  1 31  1  0
  1 32  1  0
  1 33  1  0
  2 34  1  0
  2 35  1  0
  3 36  1  0
  4 37  1  0
  4 38  1  0
  5 39  1  0
  5 40  1  0
  5 41  1  0
  6 42  1  0
  7 43  1  0
  7 44  1  0
  8 45  1  0
  8 46  1  0
 10 47  1  0
 10 48  1  0
 12 49  1  0
 16 50  1  0
 16 51  1  0
 19 52  1  0
 20 53  1  0
 21 54  1  0
 22 55  1  0
 23 56  1  0
 24 57  1  0
 28 58  1  0
 29 59  1  0
 29 60  1  0
 30 61  1  0
 30 62  1  0
M  CHG  1   3   1
M  END
>  <meeko>  (9) 
{"is_sidechain": [false], "free_energy": -6.135, "intermolecular_energy": -8.709, "internal_energy": -1.568}

$$$$
