2cbv_ligand
     RDKit          3D

 26 27  0  0  0  0  0  0  0  0999 V2000
   -2.9990    8.7240    8.4680 O   0  0  0  0  0  0  0  0  0  0  0  0
   -2.4620    9.9600    8.9200 C   0  0  2  0  0  0  0  0  0  0  0  0
   -1.4350   10.4860    7.8980 C   0  0  1  0  0  0  0  0  0  0  0  0
   -2.0870   10.9090    6.6970 O   0  0  0  0  0  0  0  0  0  0  0  0
   -0.5780   11.6250    8.4720 C   0  0  2  0  0  0  0  0  0  0  0  0
    0.5610   11.8530    7.6360 O   0  0  0  0  0  0  0  0  0  0  0  0
   -0.1030   11.2990    9.9200 C   0  0  2  0  0  0  0  0  0  0  0  0
    0.6940   12.3320   10.4270 O   0  0  0  0  0  0  0  0  0  0  0  0
    0.5950    9.9380   10.0410 C   0  0  0  0  0  0  0  0  0  0  0  0
   -0.5380    8.9330   10.2930 C   0  0  0  0  0  0  0  0  0  0  0  0
   -1.8210    9.7710   10.3170 C   0  0  1  0  0  0  0  0  0  0  0  0
   -1.2980   11.0990   10.7690 N   0  0  0  0  0  0  0  0  0  0  0  0
   -3.7750    8.5010    9.0240 H   0  0  0  0  0  0  0  0  0  0  0  0
   -3.2664   10.7048    9.0104 H   0  0  0  0  0  0  0  0  0  0  0  0
   -0.7582    9.6517    7.6617 H   0  0  0  0  0  0  0  0  0  0  0  0
   -1.4930   11.4460    6.1410 H   0  0  0  0  0  0  0  0  0  0  0  0
   -1.2002   12.5315    8.5047 H   0  0  0  0  0  0  0  0  0  0  0  0
    0.4320   11.3400    6.8100 H   0  0  0  0  0  0  0  0  0  0  0  0
    0.5840   12.3060   11.4020 H   0  0  0  0  0  0  0  0  0  0  0  0
    1.1295    9.6933    9.1112 H   0  0  0  0  0  0  0  0  0  0  0  0
    1.3442    9.9274   10.8463 H   0  0  0  0  0  0  0  0  0  0  0  0
   -0.5792    8.1877    9.4850 H   0  0  0  0  0  0  0  0  0  0  0  0
   -0.3929    8.3767   11.2308 H   0  0  0  0  0  0  0  0  0  0  0  0
   -2.6001    9.3048   10.9380 H   0  0  0  0  0  0  0  0  0  0  0  0
   -0.9680   11.0720   11.7430 H   0  0  0  0  0  0  0  0  0  0  0  0
   -1.9540   11.8870   10.7200 H   0  0  0  0  0  0  0  0  0  0  0  0
  1  2  1  0
  2  3  1  0
  3  4  1  0
  3  5  1  0
  5  6  1  0
  5  7  1  0
  7  8  1  1
  7  9  1  0
  9 10  1  0
 10 11  1  0
 11 12  1  0
 11  2  1  0
 12  7  1  0
  1 13  1  0
  2 14  1  1
  3 15  1  6
  4 16  1  0
  5 17  1  1
  6 18  1  0
  8 19  1  0
  9 20  1  0
  9 21  1  0
 10 22  1  0
 10 23  1  0
 11 24  1  1
 12 25  1  0
 12 26  1  0
M  CHG  1  12   1
M  END
>  <meeko>  (1) 
{"is_sidechain": [false], "free_energy": -7.069, "intermolecular_energy": -7.895, "internal_energy": 0.0}

$$$$
2cbv_ligand
     RDKit          3D

 26 27  0  0  0  0  0  0  0  0999 V2000
   -0.0270    6.7780   14.7230 O   0  0  0  0  0  0  0  0  0  0  0  0
   -1.0580    7.1570   15.6250 C   0  0  2  0  0  0  0  0  0  0  0  0
   -1.5290    5.9270   16.4240 C   0  0  1  0  0  0  0  0  0  0  0  0
   -0.5190    5.5050   17.3450 O   0  0  0  0  0  0  0  0  0  0  0  0
   -2.8520    6.1870   17.1620 C   0  0  2  0  0  0  0  0  0  0  0  0
   -3.4200    4.9510   17.6050 O   0  0  0  0  0  0  0  0  0  0  0  0
   -3.8720    6.9280   16.2450 C   0  0  2  0  0  0  0  0  0  0  0  0
   -5.0820    7.1420   16.9170 O   0  0  0  0  0  0  0  0  0  0  0  0
   -4.0950    6.2350   14.8940 C   0  0  0  0  0  0  0  0  0  0  0  0
   -3.0060    6.8040   13.9730 C   0  0  0  0  0  0  0  0  0  0  0  0
   -2.2280    7.8010   14.8400 C   0  0  1  0  0  0  0  0  0  0  0  0
   -3.2740    8.2150   15.8270 N   0  0  0  0  0  0  0  0  0  0  0  0
   -0.4380    6.5350   13.8670 H   0  0  0  0  0  0  0  0  0  0  0  0
   -0.6735    7.9009   16.3383 H   0  0  0  0  0  0  0  0  0  0  0  0
   -1.7101    5.1205   15.6982 H   0  0  0  0  0  0  0  0  0  0  0  0
    0.2990    6.0240   17.2370 H   0  0  0  0  0  0  0  0  0  0  0  0
   -2.6338    6.8257   18.0306 H   0  0  0  0  0  0  0  0  0  0  0  0
   -2.9880    4.2270   17.1020 H   0  0  0  0  0  0  0  0  0  0  0  0
   -5.5130    7.8990   16.4650 H   0  0  0  0  0  0  0  0  0  0  0  0
   -3.9854    5.1452   14.9954 H   0  0  0  0  0  0  0  0  0  0  0  0
   -5.1060    6.4137   14.4991 H   0  0  0  0  0  0  0  0  0  0  0  0
   -2.3426    6.0015   13.6182 H   0  0  0  0  0  0  0  0  0  0  0  0
   -3.4320    7.2816   13.0784 H   0  0  0  0  0  0  0  0  0  0  0  0
   -1.7726    8.5978   14.2335 H   0  0  0  0  0  0  0  0  0  0  0  0
   -4.0270    8.7610   15.3860 H   0  0  0  0  0  0  0  0  0  0  0  0
   -2.9520    8.7780   16.6220 H   0  0  0  0  0  0  0  0  0  0  0  0
  1  2  1  0
  2  3  1  0
  3  4  1  0
  3  5  1  0
  5  6  1  0
  5  7  1  0
  7  8  1  1
  7  9  1  0
  9 10  1  0
 10 11  1  0
 11 12  1  0
 11  2  1  0
 12  7  1  0
  1 13  1  0
  2 14  1  1
  3 15  1  6
  4 16  1  0
  5 17  1  1
  6 18  1  0
  8 19  1  0
  9 20  1  0
  9 21  1  0
 10 22  1  0
 10 23  1  0
 11 24  1  6
 12 25  1  0
 12 26  1  0
M  CHG  1  12   1
M  END
>  <meeko>  (2) 
{"is_sidechain": [false], "free_energy": -6.607, "intermolecular_energy": -7.379, "internal_energy": 0.0}

$$$$
2cbv_ligand
     RDKit          3D

 26 27  0  0  0  0  0  0  0  0999 V2000
   -1.0200    5.9980   13.2830 O   0  0  0  0  0  0  0  0  0  0  0  0
   -2.2490    6.5090   13.7830 C   0  0  2  0  0  0  0  0  0  0  0  0
   -1.9780    7.7350   14.6760 C   0  0  1  0  0  0  0  0  0  0  0  0
   -1.5350    8.8460   13.8900 O   0  0  0  0  0  0  0  0  0  0  0  0
   -3.2080    8.1270   15.5110 C   0  0  2  0  0  0  0  0  0  0  0  0
   -2.8280    9.0330   16.5510 O   0  0  0  0  0  0  0  0  0  0  0  0
   -3.8860    6.8720   16.1380 C   0  0  2  0  0  0  0  0  0  0  0  0
   -4.9920    7.2390   16.9140 O   0  0  0  0  0  0  0  0  0  0  0  0
   -2.9150    5.9830   16.9270 C   0  0  0  0  0  0  0  0  0  0  0  0
   -2.3250    5.0210   15.8870 C   0  0  0  0  0  0  0  0  0  0  0  0
   -2.9980    5.3990   14.5630 C   0  0  1  0  0  0  0  0  0  0  0  0
   -4.2970    5.9670   15.0420 N   0  0  0  0  0  0  0  0  0  0  0  0
   -0.8960    6.3290   12.3690 H   0  0  0  0  0  0  0  0  0  0  0  0
   -2.8866    6.8295   12.9459 H   0  0  0  0  0  0  0  0  0  0  0  0
   -1.1794    7.4527   15.3779 H   0  0  0  0  0  0  0  0  0  0  0  0
   -0.9070    9.4030   14.3860 H   0  0  0  0  0  0  0  0  0  0  0  0
   -3.9296    8.6159   14.8400 H   0  0  0  0  0  0  0  0  0  0  0  0
   -2.1940    9.6780   16.1680 H   0  0  0  0  0  0  0  0  0  0  0  0
   -4.6930    7.2010   17.8480 H   0  0  0  0  0  0  0  0  0  0  0  0
   -2.1212    6.5901   17.3866 H   0  0  0  0  0  0  0  0  0  0  0  0
   -3.4168    5.4486   17.7471 H   0  0  0  0  0  0  0  0  0  0  0  0
   -1.2349    5.1504   15.8164 H   0  0  0  0  0  0  0  0  0  0  0  0
   -2.5028    3.9685   16.1529 H   0  0  0  0  0  0  0  0  0  0  0  0
   -3.0529    4.5418   13.8759 H   0  0  0  0  0  0  0  0  0  0  0  0
   -4.9010    5.2480   15.4630 H   0  0  0  0  0  0  0  0  0  0  0  0
   -4.8760    6.4370   14.3370 H   0  0  0  0  0  0  0  0  0  0  0  0
  1  2  1  0
  2  3  1  0
  3  4  1  0
  3  5  1  0
  5  6  1  0
  5  7  1  0
  7  8  1  1
  7  9  1  0
  9 10  1  0
 10 11  1  0
 11 12  1  0
 11  2  1  0
 12  7  1  0
  1 13  1  0
  2 14  1  6
  3 15  1  1
  4 16  1  0
  5 17  1  6
  6 18  1  0
  8 19  1  0
  9 20  1  0
  9 21  1  0
 10 22  1  0
 10 23  1  0
 11 24  1  6
 12 25  1  0
 12 26  1  0
M  CHG  1  12   1
M  END
>  <meeko>  (3) 
{"is_sidechain": [false], "free_energy": -6.183, "intermolecular_energy": -6.906, "internal_energy": 0.0}

$$$$
2cbv_ligand
     RDKit          3D

 26 27  0  0  0  0  0  0  0  0999 V2000
   -2.3470    8.0380   16.6410 O   0  0  0  0  0  0  0  0  0  0  0  0
   -2.5730    6.6740   16.9680 C   0  0  2  0  0  0  0  0  0  0  0  0
   -1.2460    6.0110   17.3830 C   0  0  1  0  0  0  0  0  0  0  0  0
   -0.8030    6.5130   18.6480 O   0  0  0  0  0  0  0  0  0  0  0  0
   -1.3500    4.4780   17.4220 C   0  0  2  0  0  0  0  0  0  0  0  0
   -0.0440    3.8970   17.4770 O   0  0  0  0  0  0  0  0  0  0  0  0
   -2.1070    3.9330   16.1730 C   0  0  2  0  0  0  0  0  0  0  0  0
   -2.1800    2.5360   16.2050 O   0  0  0  0  0  0  0  0  0  0  0  0
   -1.5330    4.4370   14.8430 C   0  0  0  0  0  0  0  0  0  0  0  0
   -2.2540    5.7660   14.5770 C   0  0  0  0  0  0  0  0  0  0  0  0
   -3.2130    5.9450   15.7590 C   0  0  1  0  0  0  0  0  0  0  0  0
   -3.4640    4.5250   16.1560 N   0  0  0  0  0  0  0  0  0  0  0  0
   -1.9530    8.4830   17.4210 H   0  0  0  0  0  0  0  0  0  0  0  0
   -3.2694    6.6060   17.8168 H   0  0  0  0  0  0  0  0  0  0  0  0
   -0.5023    6.2705   16.6151 H   0  0  0  0  0  0  0  0  0  0  0  0
   -0.2570    5.8550   19.1190 H   0  0  0  0  0  0  0  0  0  0  0  0
   -1.9163    4.2016   18.3236 H   0  0  0  0  0  0  0  0  0  0  0  0
   -0.0870    3.1220   18.0790 H   0  0  0  0  0  0  0  0  0  0  0  0
   -2.5990    2.2660   15.3600 H   0  0  0  0  0  0  0  0  0  0  0  0
   -0.4477    4.5958   14.9258 H   0  0  0  0  0  0  0  0  0  0  0  0
   -1.6844    3.7145   14.0275 H   0  0  0  0  0  0  0  0  0  0  0  0
   -1.5324    6.5952   14.5365 H   0  0  0  0  0  0  0  0  0  0  0  0
   -2.7847    5.7607   13.6135 H   0  0  0  0  0  0  0  0  0  0  0  0
   -4.0916    6.5463   15.4824 H   0  0  0  0  0  0  0  0  0  0  0  0
   -4.0000    4.0140   15.4420 H   0  0  0  0  0  0  0  0  0  0  0  0
   -3.9690    4.3810   17.0380 H   0  0  0  0  0  0  0  0  0  0  0  0
  1  2  1  0
  2  3  1  0
  3  4  1  0
  3  5  1  0
  5  6  1  0
  5  7  1  0
  7  8  1  6
  7  9  1  0
  9 10  1  0
 10 11  1  0
 11 12  1  0
 11  2  1  0
 12  7  1  0
  1 13  1  0
  2 14  1  1
  3 15  1  6
  4 16  1  0
  5 17  1  1
  6 18  1  0
  8 19  1  0
  9 20  1  0
  9 21  1  0
 10 22  1  0
 10 23  1  0
 11 24  1  6
 12 25  1  0
 12 26  1  0
M  CHG  1  12   1
M  END
>  <meeko>  (4) 
{"is_sidechain": [false], "free_energy": -6.054, "intermolecular_energy": -6.762, "internal_energy": 0.0}

$$$$
2cbv_ligand
     RDKit          3D

 26 27  0  0  0  0  0  0  0  0999 V2000
   -1.3170    7.2680   17.9410 O   0  0  0  0  0  0  0  0  0  0  0  0
   -1.7040    6.0090   17.4060 C   0  0  2  0  0  0  0  0  0  0  0  0
   -0.8060    5.6550   16.2050 C   0  0  1  0  0  0  0  0  0  0  0  0
    0.5240    5.3560   16.6380 O   0  0  0  0  0  0  0  0  0  0  0  0
   -1.3750    4.4900   15.3800 C   0  0  2  0  0  0  0  0  0  0  0  0
   -0.7120    4.4140   14.1140 O   0  0  0  0  0  0  0  0  0  0  0  0
   -2.9080    4.6570   15.1530 C   0  0  2  0  0  0  0  0  0  0  0  0
   -3.4150    3.6030   14.3830 O   0  0  0  0  0  0  0  0  0  0  0  0
   -3.2940    6.0200   14.5650 C   0  0  0  0  0  0  0  0  0  0  0  0
   -3.4760    6.9390   15.7810 C   0  0  0  0  0  0  0  0  0  0  0  0
   -3.1990    6.0520   17.0000 C   0  0  1  0  0  0  0  0  0  0  0  0
   -3.5730    4.7020   16.4740 N   0  0  0  0  0  0  0  0  0  0  0  0
   -1.6880    7.3490   18.8440 H   0  0  0  0  0  0  0  0  0  0  0  0
   -1.5784    5.2258   18.1681 H   0  0  0  0  0  0  0  0  0  0  0  0
   -0.7782    6.5391   15.5511 H   0  0  0  0  0  0  0  0  0  0  0  0
    0.5620    5.2280   17.6040 H   0  0  0  0  0  0  0  0  0  0  0  0
   -1.2035    3.5614   15.9442 H   0  0  0  0  0  0  0  0  0  0  0  0
   -0.9650    5.2080   13.5960 H   0  0  0  0  0  0  0  0  0  0  0  0
   -2.6860    3.3250   13.7880 H   0  0  0  0  0  0  0  0  0  0  0  0
   -2.4956    6.3988   13.9100 H   0  0  0  0  0  0  0  0  0  0  0  0
   -4.2043    5.9624   13.9502 H   0  0  0  0  0  0  0  0  0  0  0  0
   -2.7627    7.7755   15.7425 H   0  0  0  0  0  0  0  0  0  0  0  0
   -4.4824    7.3817   15.8148 H   0  0  0  0  0  0  0  0  0  0  0  0
   -3.7372    6.4060   17.8917 H   0  0  0  0  0  0  0  0  0  0  0  0
   -4.5840    4.6220   16.3000 H   0  0  0  0  0  0  0  0  0  0  0  0
   -3.3300    3.9000   17.0670 H   0  0  0  0  0  0  0  0  0  0  0  0
  1  2  1  0
  2  3  1  0
  3  4  1  0
  3  5  1  0
  5  6  1  0
  5  7  1  0
  7  8  1  6
  7  9  1  0
  9 10  1  0
 10 11  1  0
 11 12  1  0
 11  2  1  0
 12  7  1  0
  1 13  1  0
  2 14  1  1
  3 15  1  6
  4 16  1  0
  5 17  1  1
  6 18  1  0
  8 19  1  0
  9 20  1  0
  9 21  1  0
 10 22  1  0
 10 23  1  0
 11 24  1  1
 12 25  1  0
 12 26  1  0
M  CHG  1  12   1
M  END
>  <meeko>  (5) 
{"is_sidechain": [false], "free_energy": -6.034, "intermolecular_energy": -6.74, "internal_energy": 0.0}

$$$$
2cbv_ligand
     RDKit          3D

 26 27  0  0  0  0  0  0  0  0999 V2000
   -4.5250    5.5990   14.5760 O   0  0  0  0  0  0  0  0  0  0  0  0
   -3.4220    5.1610   15.3580 C   0  0  2  0  0  0  0  0  0  0  0  0
   -3.1250    6.1920   16.4640 C   0  0  1  0  0  0  0  0  0  0  0  0
   -4.1620    6.1890   17.4500 O   0  0  0  0  0  0  0  0  0  0  0  0
   -1.7570    5.9570   17.1240 C   0  0  2  0  0  0  0  0  0  0  0  0
   -1.3760    7.1040   17.8900 O   0  0  0  0  0  0  0  0  0  0  0  0
   -0.6610    5.6580   16.0570 C   0  0  2  0  0  0  0  0  0  0  0  0
    0.5860    5.4660   16.6640 O   0  0  0  0  0  0  0  0  0  0  0  0
   -0.5880    6.7120   14.9440 C   0  0  0  0  0  0  0  0  0  0  0  0
   -1.6010    6.2440   13.8890 C   0  0  0  0  0  0  0  0  0  0  0  0
   -2.1880    4.9420   14.4460 C   0  0  1  0  0  0  0  0  0  0  0  0
   -1.0630    4.4510   15.3010 N   0  0  0  0  0  0  0  0  0  0  0  0
   -4.1850    5.9280   13.7170 H   0  0  0  0  0  0  0  0  0  0  0  0
   -3.6659    4.2029   15.8403 H   0  0  0  0  0  0  0  0  0  0  0  0
   -3.0922    7.1808   15.9832 H   0  0  0  0  0  0  0  0  0  0  0  0
   -3.9690    5.5540   18.1650 H   0  0  0  0  0  0  0  0  0  0  0  0
   -1.8479    5.0837   17.7867 H   0  0  0  0  0  0  0  0  0  0  0  0
   -2.1660    7.6790   17.9780 H   0  0  0  0  0  0  0  0  0  0  0  0
    0.9220    6.3610   16.8840 H   0  0  0  0  0  0  0  0  0  0  0  0
   -0.8634    7.7039   15.3317 H   0  0  0  0  0  0  0  0  0  0  0  0
    0.4267    6.8072   14.5300 H   0  0  0  0  0  0  0  0  0  0  0  0
   -2.3917    6.9965   13.7528 H   0  0  0  0  0  0  0  0  0  0  0  0
   -1.1316    6.0959   12.9053 H   0  0  0  0  0  0  0  0  0  0  0  0
   -2.5299    4.2735   13.6421 H   0  0  0  0  0  0  0  0  0  0  0  0
   -0.2470    4.1680   14.7400 H   0  0  0  0  0  0  0  0  0  0  0  0
   -1.2700    3.6530   15.9110 H   0  0  0  0  0  0  0  0  0  0  0  0
  1  2  1  0
  2  3  1  0
  3  4  1  0
  3  5  1  0
  5  6  1  0
  5  7  1  0
  7  8  1  1
  7  9  1  0
  9 10  1  0
 10 11  1  0
 11 12  1  0
 11  2  1  0
 12  7  1  0
  1 13  1  0
  2 14  1  1
  3 15  1  6
  4 16  1  0
  5 17  1  1
  6 18  1  0
  8 19  1  0
  9 20  1  0
  9 21  1  0
 10 22  1  0
 10 23  1  0
 11 24  1  6
 12 25  1  0
 12 26  1  0
M  CHG  1  12   1
M  END
>  <meeko>  (6) 
{"is_sidechain": [false], "free_energy": -6.024, "intermolecular_energy": -6.728, "internal_energy": 0.0}

$$$$
2cbv_ligand
     RDKit          3D

 26 27  0  0  0  0  0  0  0  0999 V2000
   -2.8600    7.2460   13.9510 O   0  0  0  0  0  0  0  0  0  0  0  0
   -3.1110    6.6180   15.2010 C   0  0  2  0  0  0  0  0  0  0  0  0
   -2.1030    7.1250   16.2500 C   0  0  1  0  0  0  0  0  0  0  0  0
   -2.3650    8.4910   16.5860 O   0  0  0  0  0  0  0  0  0  0  0  0
   -2.0960    6.2530   17.5160 C   0  0  2  0  0  0  0  0  0  0  0  0
   -0.9390    6.5430   18.3070 O   0  0  0  0  0  0  0  0  0  0  0  0
   -2.1120    4.7370   17.1560 C   0  0  2  0  0  0  0  0  0  0  0  0
   -2.0850    3.9500   18.3130 O   0  0  0  0  0  0  0  0  0  0  0  0
   -1.0070    4.3310   16.1730 C   0  0  0  0  0  0  0  0  0  0  0  0
   -1.6090    4.5660   14.7800 C   0  0  0  0  0  0  0  0  0  0  0  0
   -3.0300    5.0790   15.0390 C   0  0  1  0  0  0  0  0  0  0  0  0
   -3.3320    4.4580   16.3670 N   0  0  0  0  0  0  0  0  0  0  0  0
   -2.9420    8.2150   14.0680 H   0  0  0  0  0  0  0  0  0  0  0  0
   -4.1231    6.8726   15.5484 H   0  0  0  0  0  0  0  0  0  0  0  0
   -1.1031    7.0550   15.7968 H   0  0  0  0  0  0  0  0  0  0  0  0
   -1.6780    9.0830   16.2280 H   0  0  0  0  0  0  0  0  0  0  0  0
   -3.0047    6.4855   18.0907 H   0  0  0  0  0  0  0  0  0  0  0  0
   -0.6930    5.7230   18.7860 H   0  0  0  0  0  0  0  0  0  0  0  0
   -2.9290    3.4510   18.3230 H   0  0  0  0  0  0  0  0  0  0  0  0
   -0.1124    4.9544   16.3178 H   0  0  0  0  0  0  0  0  0  0  0  0
   -0.6898    3.2874   16.3156 H   0  0  0  0  0  0  0  0  0  0  0  0
   -1.0229    5.3152   14.2276 H   0  0  0  0  0  0  0  0  0  0  0  0
   -1.6067    3.6501   14.1707 H   0  0  0  0  0  0  0  0  0  0  0  0
   -3.7089    4.8333   14.2091 H   0  0  0  0  0  0  0  0  0  0  0  0
   -3.4170    3.4350   16.3040 H   0  0  0  0  0  0  0  0  0  0  0  0
   -4.1880    4.7790   16.8350 H   0  0  0  0  0  0  0  0  0  0  0  0
  1  2  1  0
  2  3  1  0
  3  4  1  0
  3  5  1  0
  5  6  1  0
  5  7  1  0
  7  8  1  1
  7  9  1  0
  9 10  1  0
 10 11  1  0
 11 12  1  0
 11  2  1  0
 12  7  1  0
  1 13  1  0
  2 14  1  1
  3 15  1  6
  4 16  1  0
  5 17  1  1
  6 18  1  0
  8 19  1  0
  9 20  1  0
  9 21  1  0
 10 22  1  0
 10 23  1  0
 11 24  1  6
 12 25  1  0
 12 26  1  0
M  CHG  1  12   1
M  END
>  <meeko>  (7) 
{"is_sidechain": [false], "free_energy": -5.849, "intermolecular_energy": -6.533, "internal_energy": 0.0}

$$$$
2cbv_ligand
     RDKit          3D

 26 27  0  0  0  0  0  0  0  0999 V2000
    0.9210    3.2030   15.9920 O   0  0  0  0  0  0  0  0  0  0  0  0
   -0.3140    3.8950   15.8690 C   0  0  2  0  0  0  0  0  0  0  0  0
   -0.1590    5.3350   16.3940 C   0  0  1  0  0  0  0  0  0  0  0  0
    0.6620    6.1090   15.5150 O   0  0  0  0  0  0  0  0  0  0  0  0
   -1.5160    6.0240   16.6060 C   0  0  2  0  0  0  0  0  0  0  0  0
   -1.3500    7.2060   17.3950 O   0  0  0  0  0  0  0  0  0  0  0  0
   -2.5300    5.0700   17.3070 C   0  0  2  0  0  0  0  0  0  0  0  0
   -3.7560    5.7120   17.5140 O   0  0  0  0  0  0  0  0  0  0  0  0
   -1.9910    4.4530   18.6040 C   0  0  0  0  0  0  0  0  0  0  0  0
   -1.2530    3.1820   18.1610 C   0  0  0  0  0  0  0  0  0  0  0  0
   -1.4200    3.1300   16.6380 C   0  0  1  0  0  0  0  0  0  0  0  0
   -2.7070    3.8720   16.4570 N   0  0  0  0  0  0  0  0  0  0  0  0
    0.7670    2.3810   16.5030 H   0  0  0  0  0  0  0  0  0  0  0  0
   -0.6072    3.9478   14.8101 H   0  0  0  0  0  0  0  0  0  0  0  0
    0.3331    5.2692   17.3756 H   0  0  0  0  0  0  0  0  0  0  0  0
    1.3780    5.5690   15.1310 H   0  0  0  0  0  0  0  0  0  0  0  0
   -1.9155    6.2925   15.6169 H   0  0  0  0  0  0  0  0  0  0  0  0
   -2.1970    7.7030   17.3700 H   0  0  0  0  0  0  0  0  0  0  0  0
   -3.5480    6.5600   17.9620 H   0  0  0  0  0  0  0  0  0  0  0  0
   -1.2998    5.1471   19.1045 H   0  0  0  0  0  0  0  0  0  0  0  0
   -2.7940    4.2356   19.3236 H   0  0  0  0  0  0  0  0  0  0  0  0
   -0.1881    3.2406   18.4304 H   0  0  0  0  0  0  0  0  0  0  0  0
   -1.6548    2.2821   18.6495 H   0  0  0  0  0  0  0  0  0  0  0  0
   -1.3826    2.0981   16.2588 H   0  0  0  0  0  0  0  0  0  0  0  0
   -3.5090    3.3540   16.8400 H   0  0  0  0  0  0  0  0  0  0  0  0
   -2.9640    4.1070   15.4910 H   0  0  0  0  0  0  0  0  0  0  0  0
  1  2  1  0
  2  3  1  0
  3  4  1  0
  3  5  1  0
  5  6  1  0
  5  7  1  0
  7  8  1  1
  7  9  1  0
  9 10  1  0
 10 11  1  0
 11 12  1  0
 11  2  1  0
 12  7  1  0
  1 13  1  0
  2 14  1  6
  3 15  1  1
  4 16  1  0
  5 17  1  6
  6 18  1  0
  8 19  1  0
  9 20  1  0
  9 21  1  0
 10 22  1  0
 10 23  1  0
 11 24  1  6
 12 25  1  0
 12 26  1  0
M  CHG  1  12   1
M  END
>  <meeko>  (8) 
{"is_sidechain": [false], "free_energy": -5.826, "intermolecular_energy": -6.507, "internal_energy": 0.0}

$$$$
2cbv_ligand
     RDKit          3D

 26 27  0  0  0  0  0  0  0  0999 V2000
   -0.5890    3.5840   16.2980 O   0  0  0  0  0  0  0  0  0  0  0  0
   -1.9280    4.0600   16.3000 C   0  0  2  0  0  0  0  0  0  0  0  0
   -2.2080    4.8320   14.9960 C   0  0  1  0  0  0  0  0  0  0  0  0
   -2.2490    3.9400   13.8780 O   0  0  0  0  0  0  0  0  0  0  0  0
   -3.5050    5.6530   15.0750 C   0  0  2  0  0  0  0  0  0  0  0  0
   -3.5550    6.5990   14.0020 O   0  0  0  0  0  0  0  0  0  0  0  0
   -3.6140    6.4050   16.4360 C   0  0  2  0  0  0  0  0  0  0  0  0
   -4.7870    7.1660   16.4920 O   0  0  0  0  0  0  0  0  0  0  0  0
   -2.3780    7.2510   16.7660 C   0  0  0  0  0  0  0  0  0  0  0  0
   -1.4210    6.2910   17.4870 C   0  0  0  0  0  0  0  0  0  0  0  0
   -2.1650    4.9510   17.5440 C   0  0  1  0  0  0  0  0  0  0  0  0
   -3.5910    5.4030   17.5250 N   0  0  0  0  0  0  0  0  0  0  0  0
   -0.0190    4.2640   15.8820 H   0  0  0  0  0  0  0  0  0  0  0  0
   -2.6244    3.2100   16.3507 H   0  0  0  0  0  0  0  0  0  0  0  0
   -1.3785    5.5408   14.8564 H   0  0  0  0  0  0  0  0  0  0  0  0
   -1.4210    3.4310   13.8000 H   0  0  0  0  0  0  0  0  0  0  0  0
   -4.3514    4.9553   14.9924 H   0  0  0  0  0  0  0  0  0  0  0  0
   -3.6510    7.4920   14.3970 H   0  0  0  0  0  0  0  0  0  0  0  0
   -5.0800    7.2840   15.5630 H   0  0  0  0  0  0  0  0  0  0  0  0
   -1.9169    7.6376   15.8452 H   0  0  0  0  0  0  0  0  0  0  0  0
   -2.6288    8.1260   17.3837 H   0  0  0  0  0  0  0  0  0  0  0  0
   -0.4817    6.1873   16.9240 H   0  0  0  0  0  0  0  0  0  0  0  0
   -1.1509    6.6548   18.4893 H   0  0  0  0  0  0  0  0  0  0  0  0
   -1.8470    4.3450   18.4052 H   0  0  0  0  0  0  0  0  0  0  0  0
   -3.8510    5.8990   18.3880 H   0  0  0  0  0  0  0  0  0  0  0  0
   -4.2990    4.6700   17.4030 H   0  0  0  0  0  0  0  0  0  0  0  0
  1  2  1  0
  2  3  1  0
  3  4  1  0
  3  5  1  0
  5  6  1  0
  5  7  1  0
  7  8  1  6
  7  9  1  0
  9 10  1  0
 10 11  1  0
 11 12  1  0
 11  2  1  0
 12  7  1  0
  1 13  1  0
  2 14  1  1
  3 15  1  6
  4 16  1  0
  5 17  1  6
  6 18  1  0
  8 19  1  0
  9 20  1  0
  9 21  1  0
 10 22  1  0
 10 23  1  0
 11 24  1  1
 12 25  1  0
 12 26  1  0
M  CHG  1  12   1
M  END
>  <meeko>  (9) 
{"is_sidechain": [false], "free_energy": -5.631, "intermolecular_energy": -6.289, "internal_energy": 0.0}

$$$$
