3utu_ligand
     RDKit          3D

 82 85  0  0  0  0  0  0  0  0999 V2000
   24.0090  -13.2790   24.2480 C   0  0  0  0  0  0  0  0  0  0  0  0
   22.9220  -13.2790   25.1620 O   0  0  0  0  0  0  0  0  0  0  0  0
   21.8730  -14.1240   24.9120 C   0  0  0  0  0  0  0  0  0  0  0  0
   21.8400  -15.0630   23.8730 C   0  0  0  0  0  0  0  0  0  0  0  0
   20.7260  -15.8900   23.6980 C   0  0  0  0  0  0  0  0  0  0  0  0
   19.6400  -15.7780   24.5680 C   0  0  0  0  0  0  0  0  0  0  0  0
   18.2300  -16.8410   24.3900 S   0  0  0  0  0  0  0  0  0  0  0  0
   17.7950  -17.2670   25.7020 O   0  0  0  0  0  0  0  0  0  0  0  0
   18.5330  -17.7890   23.3460 O   0  0  0  0  0  0  0  0  0  0  0  0
   17.0720  -15.7820   23.7640 N   0  0  0  0  0  0  0  0  0  0  0  0
   17.3150  -15.2560   22.3900 C   0  0  1  0  0  0  0  0  0  0  0  0
   16.0030  -15.2170   21.5990 C   0  0  0  0  0  0  0  0  0  0  0  0
   15.9900  -16.3010   20.5420 C   0  0  0  0  0  0  0  0  0  0  0  0
   16.2350  -17.4760   20.7920 O   0  0  0  0  0  0  0  0  0  0  0  0
   15.6600  -15.8450   19.2870 N   0  0  0  0  0  0  0  0  0  0  0  0
   15.4500  -16.7630   18.1860 C   0  0  0  0  0  0  0  0  0  0  0  0
   15.8140  -16.1200   16.8710 C   0  0  0  0  0  0  0  0  0  0  0  0
   16.2730  -16.8950   15.7980 C   0  0  0  0  0  0  0  0  0  0  0  0
   16.6350  -16.2890   14.5910 C   0  0  0  0  0  0  0  0  0  0  0  0
   16.5460  -14.9010   14.4460 C   0  0  0  0  0  0  0  0  0  0  0  0
   16.9220  -14.2810   13.2090 C   0  0  0  0  0  0  0  0  0  0  0  0
   17.2360  -13.7830   12.2090 N   0  0  0  0  0  0  0  0  0  0  0  0
   16.0950  -14.1210   15.5140 C   0  0  0  0  0  0  0  0  0  0  0  0
   15.7340  -14.7280   16.7200 C   0  0  0  0  0  0  0  0  0  0  0  0
   17.9870  -13.8780   22.3510 C   0  0  0  0  0  0  0  0  0  0  0  0
   17.8970  -13.1380   23.3380 O   0  0  0  0  0  0  0  0  0  0  0  0
   18.7060  -13.4900   21.2400 N   0  0  0  0  0  0  0  0  0  0  0  0
   19.8950  -14.1200   20.6810 C   0  0  0  0  0  0  0  0  0  0  0  0
   20.6950  -12.9580   20.1200 C   0  0  0  0  0  0  0  0  0  0  0  0
   19.6160  -12.0200   19.6090 C   0  0  0  0  0  0  0  0  0  0  0  0
   18.4740  -12.1740   20.6220 C   0  0  1  0  0  0  0  0  0  0  0  0
   17.1400  -12.0110   19.8690 C   0  0  0  0  0  0  0  0  0  0  0  0
   16.7390  -12.8760   19.0900 O   0  0  0  0  0  0  0  0  0  0  0  0
   16.3710  -10.9300   20.2420 N   0  0  0  0  0  0  0  0  0  0  0  0
   15.0820  -10.6700   19.6520 C   0  0  0  0  0  0  0  0  0  0  0  0
   13.9770  -10.7110   20.6800 C   0  0  0  0  0  0  0  0  0  0  0  0
   13.4930   -9.5200   21.2370 C   0  0  0  0  0  0  0  0  0  0  0  0
   12.5100   -9.5440   22.2260 C   0  0  0  0  0  0  0  0  0  0  0  0
   11.9910  -10.7650   22.6780 C   0  0  0  0  0  0  0  0  0  0  0  0
   10.9780  -10.7860   23.7380 C   0  0  0  0  0  0  0  0  0  0  0  0
   10.3540  -11.9110   24.0080 N   0  0  0  0  0  0  0  0  0  0  0  0
   10.7190   -9.6760   24.3940 N   0  0  0  0  0  0  0  0  0  0  0  0
   12.4690  -11.9590   22.1170 C   0  0  0  0  0  0  0  0  0  0  0  0
   13.4580  -11.9310   21.1310 C   0  0  0  0  0  0  0  0  0  0  0  0
   19.6420  -14.8300   25.5920 C   0  0  0  0  0  0  0  0  0  0  0  0
   20.7600  -14.0140   25.7660 C   0  0  0  0  0  0  0  0  0  0  0  0
   20.7310  -12.8810   27.0710 Cl  0  0  0  0  0  0  0  0  0  0  0  0
   24.2896  -14.3161   24.0120 H   0  0  0  0  0  0  0  0  0  0  0  0
   23.7116  -12.7605   23.3246 H   0  0  0  0  0  0  0  0  0  0  0  0
   24.8677  -12.7605   24.6994 H   0  0  0  0  0  0  0  0  0  0  0  0
   22.6973  -15.1505   23.1893 H   0  0  0  0  0  0  0  0  0  0  0  0
   20.7056  -16.6246   22.8795 H   0  0  0  0  0  0  0  0  0  0  0  0
   16.1380  -16.1790   23.8990 H   0  0  0  0  0  0  0  0  0  0  0  0
   18.0259  -15.9550   21.9252 H   0  0  0  0  0  0  0  0  0  0  0  0
   15.1599  -15.3729   22.2881 H   0  0  0  0  0  0  0  0  0  0  0  0
   15.9131  -14.2377   21.1061 H   0  0  0  0  0  0  0  0  0  0  0  0
   15.3070  -14.9030   19.1770 H   0  0  0  0  0  0  0  0  0  0  0  0
   16.0764  -17.6547   18.3363 H   0  0  0  0  0  0  0  0  0  0  0  0
   14.3860  -17.0406   18.1584 H   0  0  0  0  0  0  0  0  0  0  0  0
   16.3491  -17.9871   15.9057 H   0  0  0  0  0  0  0  0  0  0  0  0
   16.9909  -16.9061   13.7528 H   0  0  0  0  0  0  0  0  0  0  0  0
   16.0241  -13.0287   15.4055 H   0  0  0  0  0  0  0  0  0  0  0  0
   15.3839  -14.1082   17.5586 H   0  0  0  0  0  0  0  0  0  0  0  0
   20.4636  -14.6454   21.4625 H   0  0  0  0  0  0  0  0  0  0  0  0
   19.6556  -14.8768   19.9195 H   0  0  0  0  0  0  0  0  0  0  0  0
   21.2984  -12.4775   20.9042 H   0  0  0  0  0  0  0  0  0  0  0  0
   21.4129  -13.2593   19.3429 H   0  0  0  0  0  0  0  0  0  0  0  0
   19.9799  -10.9822   19.5859 H   0  0  0  0  0  0  0  0  0  0  0  0
   19.3031  -12.2572   18.5815 H   0  0  0  0  0  0  0  0  0  0  0  0
   18.4346  -11.4198   21.4218 H   0  0  0  0  0  0  0  0  0  0  0  0
   16.8340  -10.1550   20.7100 H   0  0  0  0  0  0  0  0  0  0  0  0
   15.0981   -9.6738   19.1859 H   0  0  0  0  0  0  0  0  0  0  0  0
   14.8835  -11.4526   18.9049 H   0  0  0  0  0  0  0  0  0  0  0  0
   13.8927   -8.5555   20.8905 H   0  0  0  0  0  0  0  0  0  0  0  0
   12.1403   -8.6002   22.6533 H   0  0  0  0  0  0  0  0  0  0  0  0
   10.5570  -12.7400   23.4570 H   0  0  0  0  0  0  0  0  0  0  0  0
    9.6420  -11.9820   24.7210 H   0  0  0  0  0  0  0  0  0  0  0  0
   11.2390   -8.8310   24.1680 H   0  0  0  0  0  0  0  0  0  0  0  0
   10.0330   -9.6210   25.1320 H   0  0  0  0  0  0  0  0  0  0  0  0
   12.0623  -12.9232   22.4558 H   0  0  0  0  0  0  0  0  0  0  0  0
   13.8319  -12.8740   20.7057 H   0  0  0  0  0  0  0  0  0  0  0  0
   18.7706  -14.7272   26.2554 H   0  0  0  0  0  0  0  0  0  0  0  0
  1  2  1  0
  2  3  1  0
  3  4  2  0
  4  5  1  0
  5  6  2  0
  6  7  1  0
  7  8  2  0
  7  9  2  0
  7 10  1  0
 10 11  1  0
 11 12  1  0
 12 13  1  0
 13 14  2  0
 13 15  1  0
 15 16  1  0
 16 17  1  0
 17 18  2  0
 18 19  1  0
 19 20  2  0
 20 21  1  0
 21 22  3  0
 20 23  1  0
 23 24  2  0
 11 25  1  0
 25 26  2  0
 25 27  1  0
 27 28  1  0
 28 29  1  0
 29 30  1  0
 30 31  1  0
 31 32  1  0
 32 33  2  0
 32 34  1  0
 34 35  1  0
 35 36  1  0
 36 37  2  0
 37 38  1  0
 38 39  2  0
 39 40  1  0
 40 41  1  0
 40 42  2  0
 39 43  1  0
 43 44  2  0
  6 45  1  0
 45 46  2  0
 46 47  1  0
 46  3  1  0
 24 17  1  0
 31 27  1  0
 44 36  1  0
  1 48  1  0
  1 49  1  0
  1 50  1  0
  4 51  1  0
  5 52  1  0
 10 53  1  0
 11 54  1  6
 12 55  1  0
 12 56  1  0
 15 57  1  0
 16 58  1  0
 16 59  1  0
 18 60  1  0
 19 61  1  0
 23 62  1  0
 24 63  1  0
 28 64  1  0
 28 65  1  0
 29 66  1  0
 29 67  1  0
 30 68  1  0
 30 69  1  0
 31 70  1  1
 34 71  1  0
 35 72  1  0
 35 73  1  0
 37 74  1  0
 38 75  1  0
 41 76  1  0
 41 77  1  0
 42 78  1  0
 42 79  1  0
 43 80  1  0
 44 81  1  0
 45 82  1  0
M  CHG  1  42   1
M  END
>  <meeko>  (1) 
{"is_sidechain": [false], "free_energy": -9.831, "intermolecular_energy": -17.878, "internal_energy": -2.969}

$$$$
3utu_ligand
     RDKit          3D

 82 85  0  0  0  0  0  0  0  0999 V2000
   23.8520  -13.4010   24.1650 C   0  0  0  0  0  0  0  0  0  0  0  0
   22.9130  -13.4690   25.2290 O   0  0  0  0  0  0  0  0  0  0  0  0
   21.8490  -14.3210   25.0930 C   0  0  0  0  0  0  0  0  0  0  0  0
   21.8040  -15.3970   24.1970 C   0  0  0  0  0  0  0  0  0  0  0  0
   20.6740  -16.2200   24.1310 C   0  0  0  0  0  0  0  0  0  0  0  0
   19.5860  -15.9660   24.9680 C   0  0  0  0  0  0  0  0  0  0  0  0
   18.1580  -17.0170   24.9320 S   0  0  0  0  0  0  0  0  0  0  0  0
   17.6590  -17.1790   26.2800 O   0  0  0  0  0  0  0  0  0  0  0  0
   18.4770  -18.1520   24.1000 O   0  0  0  0  0  0  0  0  0  0  0  0
   17.0540  -16.0750   24.0650 N   0  0  0  0  0  0  0  0  0  0  0  0
   17.4640  -15.6460   22.6970 C   0  0  1  0  0  0  0  0  0  0  0  0
   16.3320  -15.9090   21.6990 C   0  0  0  0  0  0  0  0  0  0  0  0
   15.4420  -17.0300   22.1910 C   0  0  0  0  0  0  0  0  0  0  0  0
   14.2750  -16.8540   22.5260 O   0  0  0  0  0  0  0  0  0  0  0  0
   16.0590  -18.2590   22.2070 N   0  0  0  0  0  0  0  0  0  0  0  0
   15.3170  -19.4670   22.5020 C   0  0  0  0  0  0  0  0  0  0  0  0
   15.5610  -19.9170   23.9210 C   0  0  0  0  0  0  0  0  0  0  0  0
   14.8590  -19.3370   24.9870 C   0  0  0  0  0  0  0  0  0  0  0  0
   15.1110  -19.7390   26.3020 C   0  0  0  0  0  0  0  0  0  0  0  0
   16.0710  -20.7210   26.5660 C   0  0  0  0  0  0  0  0  0  0  0  0
   16.3300  -21.1280   27.9160 C   0  0  0  0  0  0  0  0  0  0  0  0
   16.5440  -21.4470   29.0110 N   0  0  0  0  0  0  0  0  0  0  0  0
   16.7790  -21.2990   25.5090 C   0  0  0  0  0  0  0  0  0  0  0  0
   16.5260  -20.8960   24.1950 C   0  0  0  0  0  0  0  0  0  0  0  0
   17.9120  -14.1830   22.6030 C   0  0  0  0  0  0  0  0  0  0  0  0
   17.6040  -13.4000   23.5100 O   0  0  0  0  0  0  0  0  0  0  0  0
   18.6750  -13.7600   21.5340 N   0  0  0  0  0  0  0  0  0  0  0  0
   19.8810  -14.3760   20.9990 C   0  0  0  0  0  0  0  0  0  0  0  0
   20.7070  -13.2000   20.5100 C   0  0  0  0  0  0  0  0  0  0  0  0
   19.6520  -12.2380   19.9920 C   0  0  0  0  0  0  0  0  0  0  0  0
   18.4720  -12.4210   20.9550 C   0  0  1  0  0  0  0  0  0  0  0  0
   17.1680  -12.2240   20.1590 C   0  0  0  0  0  0  0  0  0  0  0  0
   16.7370  -13.1060   19.4160 O   0  0  0  0  0  0  0  0  0  0  0  0
   16.4540  -11.0830   20.4530 N   0  0  0  0  0  0  0  0  0  0  0  0
   15.1970  -10.7830   19.8160 C   0  0  0  0  0  0  0  0  0  0  0  0
   14.0520  -10.7960   20.8010 C   0  0  0  0  0  0  0  0  0  0  0  0
   13.5690   -9.5910   21.3290 C   0  0  0  0  0  0  0  0  0  0  0  0
   12.5480   -9.5900   22.2790 C   0  0  0  0  0  0  0  0  0  0  0  0
   11.9900  -10.7970   22.7210 C   0  0  0  0  0  0  0  0  0  0  0  0
   10.9370  -10.7900   23.7410 C   0  0  0  0  0  0  0  0  0  0  0  0
   10.6750   -9.6750   24.3870 N   0  0  0  0  0  0  0  0  0  0  0  0
   10.2790  -11.9020   23.9840 N   0  0  0  0  0  0  0  0  0  0  0  0
   12.4680  -12.0040   22.1880 C   0  0  0  0  0  0  0  0  0  0  0  0
   13.4950  -12.0020   21.2410 C   0  0  0  0  0  0  0  0  0  0  0  0
   19.6010  -14.8820   25.8480 C   0  0  0  0  0  0  0  0  0  0  0  0
   20.7340  -14.0710   25.9130 C   0  0  0  0  0  0  0  0  0  0  0  0
   20.7200  -12.7650   27.0450 Cl  0  0  0  0  0  0  0  0  0  0  0  0
   24.8690  -13.3274   24.5776 H   0  0  0  0  0  0  0  0  0  0  0  0
   23.7719  -14.3073   23.5468 H   0  0  0  0  0  0  0  0  0  0  0  0
   23.6421  -12.5157   23.5468 H   0  0  0  0  0  0  0  0  0  0  0  0
   22.6636  -15.5965   23.5402 H   0  0  0  0  0  0  0  0  0  0  0  0
   20.6433  -17.0620   23.4238 H   0  0  0  0  0  0  0  0  0  0  0  0
   16.1290  -16.5110   24.1050 H   0  0  0  0  0  0  0  0  0  0  0  0
   18.3473  -16.2519   22.4466 H   0  0  0  0  0  0  0  0  0  0  0  0
   15.7318  -14.9945   21.5830 H   0  0  0  0  0  0  0  0  0  0  0  0
   16.7698  -16.2000   20.7328 H   0  0  0  0  0  0  0  0  0  0  0  0
   16.9610  -18.3690   21.7630 H   0  0  0  0  0  0  0  0  0  0  0  0
   14.2430  -19.2720   22.3659 H   0  0  0  0  0  0  0  0  0  0  0  0
   15.6535  -20.2611   21.8192 H   0  0  0  0  0  0  0  0  0  0  0  0
   14.1054  -18.5609   24.7875 H   0  0  0  0  0  0  0  0  0  0  0  0
   14.5523  -19.2814   27.1318 H   0  0  0  0  0  0  0  0  0  0  0  0
   17.5356  -22.0714   25.7112 H   0  0  0  0  0  0  0  0  0  0  0  0
   17.0897  -21.3516   23.3676 H   0  0  0  0  0  0  0  0  0  0  0  0
   20.4171  -14.9316   21.7825 H   0  0  0  0  0  0  0  0  0  0  0  0
   19.6674  -15.1041   20.2026 H   0  0  0  0  0  0  0  0  0  0  0  0
   21.2825  -12.7509   21.3329 H   0  0  0  0  0  0  0  0  0  0  0  0
   21.4525  -13.4781   19.7504 H   0  0  0  0  0  0  0  0  0  0  0  0
   20.0212  -11.2022   20.0195 H   0  0  0  0  0  0  0  0  0  0  0  0
   19.3772  -12.4370   18.9456 H   0  0  0  0  0  0  0  0  0  0  0  0
   18.4057  -11.6952   21.7789 H   0  0  0  0  0  0  0  0  0  0  0  0
   16.9500  -10.3110   20.8930 H   0  0  0  0  0  0  0  0  0  0  0  0
   15.2599   -9.7857   19.3562 H   0  0  0  0  0  0  0  0  0  0  0  0
   15.0047  -11.5564   19.0578 H   0  0  0  0  0  0  0  0  0  0  0  0
   13.9993   -8.6368   20.9909 H   0  0  0  0  0  0  0  0  0  0  0  0
   12.1786   -8.6362   22.6837 H   0  0  0  0  0  0  0  0  0  0  0  0
   11.2280   -8.8450   24.1950 H   0  0  0  0  0  0  0  0  0  0  0  0
    9.9680   -9.6150   25.1050 H   0  0  0  0  0  0  0  0  0  0  0  0
   10.4980  -12.7380   23.4480 H   0  0  0  0  0  0  0  0  0  0  0  0
    9.5450  -11.9670   24.6740 H   0  0  0  0  0  0  0  0  0  0  0  0
   12.0311  -12.9580   22.5181 H   0  0  0  0  0  0  0  0  0  0  0  0
   13.8685  -12.9551   20.8384 H   0  0  0  0  0  0  0  0  0  0  0  0
   18.7285  -14.6698   26.4833 H   0  0  0  0  0  0  0  0  0  0  0  0
  1  2  1  0
  2  3  1  0
  3  4  2  0
  4  5  1  0
  5  6  2  0
  6  7  1  0
  7  8  2  0
  7  9  2  0
  7 10  1  0
 10 11  1  0
 11 12  1  0
 12 13  1  0
 13 14  2  0
 13 15  1  0
 15 16  1  0
 16 17  1  0
 17 18  2  0
 18 19  1  0
 19 20  2  0
 20 21  1  0
 21 22  3  0
 20 23  1  0
 23 24  2  0
 11 25  1  0
 25 26  2  0
 25 27  1  0
 27 28  1  0
 28 29  1  0
 29 30  1  0
 30 31  1  0
 31 32  1  0
 32 33  2  0
 32 34  1  0
 34 35  1  0
 35 36  1  0
 36 37  2  0
 37 38  1  0
 38 39  2  0
 39 40  1  0
 40 41  1  0
 40 42  2  0
 39 43  1  0
 43 44  2  0
  6 45  1  0
 45 46  2  0
 46 47  1  0
 46  3  1  0
 24 17  1  0
 31 27  1  0
 44 36  1  0
  1 48  1  0
  1 49  1  0
  1 50  1  0
  4 51  1  0
  5 52  1  0
 10 53  1  0
 11 54  1  6
 12 55  1  0
 12 56  1  0
 15 57  1  0
 16 58  1  0
 16 59  1  0
 18 60  1  0
 19 61  1  0
 23 62  1  0
 24 63  1  0
 28 64  1  0
 28 65  1  0
 29 66  1  0
 29 67  1  0
 30 68  1  0
 30 69  1  0
 31 70  1  1
 34 71  1  0
 35 72  1  0
 35 73  1  0
 37 74  1  0
 38 75  1  0
 41 76  1  0
 41 77  1  0
 42 78  1  0
 42 79  1  0
 43 80  1  0
 44 81  1  0
 45 82  1  0
M  CHG  1  42   1
M  END
>  <meeko>  (2) 
{"is_sidechain": [false], "free_energy": -9.797, "intermolecular_energy": -17.114, "internal_energy": -3.67}

$$$$
3utu_ligand
     RDKit          3D

 82 85  0  0  0  0  0  0  0  0999 V2000
   24.1230  -13.2440   24.1200 C   0  0  0  0  0  0  0  0  0  0  0  0
   23.0340  -13.1180   25.0240 O   0  0  0  0  0  0  0  0  0  0  0  0
   22.0400  -14.0590   24.9680 C   0  0  0  0  0  0  0  0  0  0  0  0
   22.0570  -15.1820   24.1290 C   0  0  0  0  0  0  0  0  0  0  0  0
   20.9980  -16.0950   24.1440 C   0  0  0  0  0  0  0  0  0  0  0  0
   19.9180  -15.8860   25.0050 C   0  0  0  0  0  0  0  0  0  0  0  0
   18.5810  -17.0500   25.0720 S   0  0  0  0  0  0  0  0  0  0  0  0
   18.0060  -17.0300   26.3990 O   0  0  0  0  0  0  0  0  0  0  0  0
   19.0430  -18.2750   24.4630 O   0  0  0  0  0  0  0  0  0  0  0  0
   17.4690  -16.3650   24.0000 N   0  0  0  0  0  0  0  0  0  0  0  0
   18.0040  -15.8790   22.6950 C   0  0  1  0  0  0  0  0  0  0  0  0
   17.1920  -16.4700   21.5380 C   0  0  0  0  0  0  0  0  0  0  0  0
   17.8050  -17.7720   21.0710 C   0  0  0  0  0  0  0  0  0  0  0  0
   17.1940  -18.5890   20.3890 O   0  0  0  0  0  0  0  0  0  0  0  0
   19.1120  -17.9410   21.4660 N   0  0  0  0  0  0  0  0  0  0  0  0
   19.9040  -19.0530   20.9830 C   0  0  0  0  0  0  0  0  0  0  0  0
   21.3700  -18.8320   21.2630 C   0  0  0  0  0  0  0  0  0  0  0  0
   22.2270  -18.3590   20.2600 C   0  0  0  0  0  0  0  0  0  0  0  0
   23.5900  -18.1830   20.5190 C   0  0  0  0  0  0  0  0  0  0  0  0
   24.1110  -18.4830   21.7810 C   0  0  0  0  0  0  0  0  0  0  0  0
   25.5100  -18.3070   22.0420 C   0  0  0  0  0  0  0  0  0  0  0  0
   26.6440  -18.1710   22.2460 N   0  0  0  0  0  0  0  0  0  0  0  0
   23.2640  -18.9620   22.7840 C   0  0  0  0  0  0  0  0  0  0  0  0
   21.9020  -19.1370   22.5240 C   0  0  0  0  0  0  0  0  0  0  0  0
   18.0610  -14.3530   22.5660 C   0  0  0  0  0  0  0  0  0  0  0  0
   17.5040  -13.6560   23.4230 O   0  0  0  0  0  0  0  0  0  0  0  0
   18.7520  -13.7720   21.5220 N   0  0  0  0  0  0  0  0  0  0  0  0
   20.0090  -14.2090   20.9320 C   0  0  0  0  0  0  0  0  0  0  0  0
   20.6890  -12.9150   20.5200 C   0  0  0  0  0  0  0  0  0  0  0  0
   19.5240  -12.0450   20.0830 C   0  0  0  0  0  0  0  0  0  0  0  0
   18.3900  -12.4270   21.0430 C   0  0  1  0  0  0  0  0  0  0  0  0
   17.0570  -12.3240   20.2760 C   0  0  0  0  0  0  0  0  0  0  0  0
   16.5660  -13.3060   19.7190 O   0  0  0  0  0  0  0  0  0  0  0  0
   16.3930  -11.1220   20.3910 N   0  0  0  0  0  0  0  0  0  0  0  0
   15.1180  -10.8910   19.7590 C   0  0  0  0  0  0  0  0  0  0  0  0
   13.9890  -10.8860   20.7630 C   0  0  0  0  0  0  0  0  0  0  0  0
   13.5060   -9.6720   21.2680 C   0  0  0  0  0  0  0  0  0  0  0  0
   12.5010   -9.6530   22.2350 C   0  0  0  0  0  0  0  0  0  0  0  0
   11.9580  -10.8520   22.7150 C   0  0  0  0  0  0  0  0  0  0  0  0
   10.9210  -10.8260   23.7510 C   0  0  0  0  0  0  0  0  0  0  0  0
   10.6640   -9.6980   24.3750 N   0  0  0  0  0  0  0  0  0  0  0  0
   10.2730  -11.9350   24.0310 N   0  0  0  0  0  0  0  0  0  0  0  0
   12.4360  -12.0690   22.2050 C   0  0  0  0  0  0  0  0  0  0  0  0
   13.4470  -12.0840   21.2420 C   0  0  0  0  0  0  0  0  0  0  0  0
   19.8710  -14.7600   25.8290 C   0  0  0  0  0  0  0  0  0  0  0  0
   20.9340  -13.8580   25.8140 C   0  0  0  0  0  0  0  0  0  0  0  0
   20.8470  -12.4990   26.8780 Cl  0  0  0  0  0  0  0  0  0  0  0  0
   25.0594  -13.3523   24.6869 H   0  0  0  0  0  0  0  0  0  0  0  0
   23.9731  -14.1308   23.4867 H   0  0  0  0  0  0  0  0  0  0  0  0
   24.1795  -12.3464   23.4867 H   0  0  0  0  0  0  0  0  0  0  0  0
   22.9098  -15.3462   23.4538 H   0  0  0  0  0  0  0  0  0  0  0  0
   21.0153  -16.9729   23.4815 H   0  0  0  0  0  0  0  0  0  0  0  0
   16.6550  -16.9800   23.9140 H   0  0  0  0  0  0  0  0  0  0  0  0
   19.0466  -16.2270   22.6516 H   0  0  0  0  0  0  0  0  0  0  0  0
   16.1620  -16.6557   21.8765 H   0  0  0  0  0  0  0  0  0  0  0  0
   17.1934  -15.7559   20.7013 H   0  0  0  0  0  0  0  0  0  0  0  0
   19.6100  -17.1640   21.8800 H   0  0  0  0  0  0  0  0  0  0  0  0
   19.5761  -19.9743   21.4867 H   0  0  0  0  0  0  0  0  0  0  0  0
   19.7630  -19.1385   19.8954 H   0  0  0  0  0  0  0  0  0  0  0  0
   21.8252  -18.1248   19.2632 H   0  0  0  0  0  0  0  0  0  0  0  0
   24.2544  -17.8072   19.7269 H   0  0  0  0  0  0  0  0  0  0  0  0
   23.6693  -19.2013   23.7782 H   0  0  0  0  0  0  0  0  0  0  0  0
   21.2408  -19.5178   23.3164 H   0  0  0  0  0  0  0  0  0  0  0  0
   20.6182  -14.7540   21.6681 H   0  0  0  0  0  0  0  0  0  0  0  0
   19.8639  -14.8992   20.0879 H   0  0  0  0  0  0  0  0  0  0  0  0
   21.2252  -12.4624   21.3671 H   0  0  0  0  0  0  0  0  0  0  0  0
   21.4470  -13.0530   19.7349 H   0  0  0  0  0  0  0  0  0  0  0  0
   19.7752  -10.9785   20.1803 H   0  0  0  0  0  0  0  0  0  0  0  0
   19.2540  -12.2003   19.0280 H   0  0  0  0  0  0  0  0  0  0  0  0
   18.2584  -11.7727   21.9174 H   0  0  0  0  0  0  0  0  0  0  0  0
   16.9320  -10.3040   20.6660 H   0  0  0  0  0  0  0  0  0  0  0  0
   15.1448   -9.9173   19.2479 H   0  0  0  0  0  0  0  0  0  0  0  0
   14.9371  -11.7070   19.0438 H   0  0  0  0  0  0  0  0  0  0  0  0
   13.9236   -8.7239   20.8982 H   0  0  0  0  0  0  0  0  0  0  0  0
   12.1329   -8.6917   22.6227 H   0  0  0  0  0  0  0  0  0  0  0  0
   11.2090   -8.8690   24.1550 H   0  0  0  0  0  0  0  0  0  0  0  0
    9.9680   -9.6230   25.1030 H   0  0  0  0  0  0  0  0  0  0  0  0
   10.4880  -12.7820   23.5110 H   0  0  0  0  0  0  0  0  0  0  0  0
    9.5500  -11.9870   24.7340 H   0  0  0  0  0  0  0  0  0  0  0  0
   12.0114  -13.0173   22.5663 H   0  0  0  0  0  0  0  0  0  0  0  0
   13.8201  -13.0445   20.8571 H   0  0  0  0  0  0  0  0  0  0  0  0
   19.0041  -14.5862   26.4834 H   0  0  0  0  0  0  0  0  0  0  0  0
  1  2  1  0
  2  3  1  0
  3  4  2  0
  4  5  1  0
  5  6  2  0
  6  7  1  0
  7  8  2  0
  7  9  2  0
  7 10  1  0
 10 11  1  0
 11 12  1  0
 12 13  1  0
 13 14  2  0
 13 15  1  0
 15 16  1  0
 16 17  1  0
 17 18  2  0
 18 19  1  0
 19 20  2  0
 20 21  1  0
 21 22  3  0
 20 23  1  0
 23 24  2  0
 11 25  1  0
 25 26  2  0
 25 27  1  0
 27 28  1  0
 28 29  1  0
 29 30  1  0
 30 31  1  0
 31 32  1  0
 32 33  2  0
 32 34  1  0
 34 35  1  0
 35 36  1  0
 36 37  2  0
 37 38  1  0
 38 39  2  0
 39 40  1  0
 40 41  1  0
 40 42  2  0
 39 43  1  0
 43 44  2  0
  6 45  1  0
 45 46  2  0
 46 47  1  0
 46  3  1  0
 24 17  1  0
 31 27  1  0
 44 36  1  0
  1 48  1  0
  1 49  1  0
  1 50  1  0
  4 51  1  0
  5 52  1  0
 10 53  1  0
 11 54  1  6
 12 55  1  0
 12 56  1  0
 15 57  1  0
 16 58  1  0
 16 59  1  0
 18 60  1  0
 19 61  1  0
 23 62  1  0
 24 63  1  0
 28 64  1  0
 28 65  1  0
 29 66  1  0
 29 67  1  0
 30 68  1  0
 30 69  1  0
 31 70  1  1
 34 71  1  0
 35 72  1  0
 35 73  1  0
 37 74  1  0
 38 75  1  0
 41 76  1  0
 41 77  1  0
 42 78  1  0
 42 79  1  0
 43 80  1  0
 44 81  1  0
 45 82  1  0
M  CHG  1  42   1
M  END
>  <meeko>  (3) 
{"is_sidechain": [false], "free_energy": -9.795, "intermolecular_energy": -17.136, "internal_energy": -3.644}

$$$$
3utu_ligand
     RDKit          3D

 82 85  0  0  0  0  0  0  0  0999 V2000
   22.2780  -14.8740    8.5420 C   0  0  0  0  0  0  0  0  0  0  0  0
   21.7550  -14.8090    9.8610 O   0  0  0  0  0  0  0  0  0  0  0  0
   20.8420  -13.8270   10.1430 C   0  0  0  0  0  0  0  0  0  0  0  0
   20.7080  -12.6370    9.4170 C   0  0  0  0  0  0  0  0  0  0  0  0
   19.7410  -11.6910    9.7760 C   0  0  0  0  0  0  0  0  0  0  0  0
   18.9040  -11.9400   10.8640 C   0  0  0  0  0  0  0  0  0  0  0  0
   17.6440  -10.7750   11.3160 S   0  0  0  0  0  0  0  0  0  0  0  0
   16.7430  -10.6000   10.1980 O   0  0  0  0  0  0  0  0  0  0  0  0
   18.2990   -9.6540   11.9460 O   0  0  0  0  0  0  0  0  0  0  0  0
   16.8220  -11.6060   12.5370 N   0  0  0  0  0  0  0  0  0  0  0  0
   16.0020  -10.7860   13.4740 C   0  0  1  0  0  0  0  0  0  0  0  0
   14.5100  -11.0170   13.2130 C   0  0  0  0  0  0  0  0  0  0  0  0
   14.3170  -12.1060   12.1790 C   0  0  0  0  0  0  0  0  0  0  0  0
   14.4390  -13.2980   12.4390 O   0  0  0  0  0  0  0  0  0  0  0  0
   13.9750  -11.6320   10.9340 N   0  0  0  0  0  0  0  0  0  0  0  0
   13.6020  -12.5340    9.8640 C   0  0  0  0  0  0  0  0  0  0  0  0
   12.1970  -13.0470   10.0580 C   0  0  0  0  0  0  0  0  0  0  0  0
   11.9340  -14.4240   10.0830 C   0  0  0  0  0  0  0  0  0  0  0  0
   10.6260  -14.8930   10.2350 C   0  0  0  0  0  0  0  0  0  0  0  0
    9.5650  -13.9900   10.3570 C   0  0  0  0  0  0  0  0  0  0  0  0
    8.2240  -14.4730   10.5080 C   0  0  0  0  0  0  0  0  0  0  0  0
    7.1390  -14.8680   10.6200 N   0  0  0  0  0  0  0  0  0  0  0  0
    9.8180  -12.6160   10.3260 C   0  0  0  0  0  0  0  0  0  0  0  0
   11.1260  -12.1490   10.1740 C   0  0  0  0  0  0  0  0  0  0  0  0
   16.3140  -11.0210   14.9560 C   0  0  0  0  0  0  0  0  0  0  0  0
   16.4400  -10.0450   15.7060 O   0  0  0  0  0  0  0  0  0  0  0  0
   16.4200  -12.3060   15.4460 N   0  0  0  0  0  0  0  0  0  0  0  0
   17.0220  -13.4620   14.7950 C   0  0  0  0  0  0  0  0  0  0  0  0
   16.1830  -14.6320   15.2770 C   0  0  0  0  0  0  0  0  0  0  0  0
   15.8430  -14.2390   16.7040 C   0  0  0  0  0  0  0  0  0  0  0  0
   15.6640  -12.7160   16.6410 C   0  0  1  0  0  0  0  0  0  0  0  0
   16.1450  -12.1210   17.9780 C   0  0  0  0  0  0  0  0  0  0  0  0
   17.3450  -12.0380   18.2420 O   0  0  0  0  0  0  0  0  0  0  0  0
   15.1680  -11.5550   18.7670 N   0  0  0  0  0  0  0  0  0  0  0  0
   15.4730  -10.9270   20.0280 C   0  0  0  0  0  0  0  0  0  0  0  0
   14.2760  -10.9100   20.9490 C   0  0  0  0  0  0  0  0  0  0  0  0
   13.7700   -9.6910   21.4180 C   0  0  0  0  0  0  0  0  0  0  0  0
   12.6990   -9.6610   22.3110 C   0  0  0  0  0  0  0  0  0  0  0  0
   12.1120  -10.8540   22.7520 C   0  0  0  0  0  0  0  0  0  0  0  0
   11.0050  -10.8180   23.7120 C   0  0  0  0  0  0  0  0  0  0  0  0
   10.7210   -9.6890   24.3240 N   0  0  0  0  0  0  0  0  0  0  0  0
   10.3210  -11.9180   23.9380 N   0  0  0  0  0  0  0  0  0  0  0  0
   12.6130  -12.0770   22.2780 C   0  0  0  0  0  0  0  0  0  0  0  0
   13.6900  -12.1020   21.3880 C   0  0  0  0  0  0  0  0  0  0  0  0
   19.0400  -13.1080   11.6170 C   0  0  0  0  0  0  0  0  0  0  0  0
   20.0010  -14.0490   11.2480 C   0  0  0  0  0  0  0  0  0  0  0  0
   20.1070  -15.4960   12.1880 Cl  0  0  0  0  0  0  0  0  0  0  0  0
   23.3687  -15.0096    8.5863 H   0  0  0  0  0  0  0  0  0  0  0  0
   21.8244  -15.7227    8.0091 H   0  0  0  0  0  0  0  0  0  0  0  0
   22.0459  -13.9401    8.0091 H   0  0  0  0  0  0  0  0  0  0  0  0
   21.3677  -12.4443    8.5581 H   0  0  0  0  0  0  0  0  0  0  0  0
   19.6416  -10.7568    9.2038 H   0  0  0  0  0  0  0  0  0  0  0  0
   16.3210  -12.4000   12.1300 H   0  0  0  0  0  0  0  0  0  0  0  0
   16.2718   -9.7397   13.2680 H   0  0  0  0  0  0  0  0  0  0  0  0
   14.0202  -11.3171   14.1511 H   0  0  0  0  0  0  0  0  0  0  0  0
   14.0654  -10.0843   12.8358 H   0  0  0  0  0  0  0  0  0  0  0  0
   13.7260  -10.6570   10.8240 H   0  0  0  0  0  0  0  0  0  0  0  0
   13.6608  -11.9988    8.9048 H   0  0  0  0  0  0  0  0  0  0  0  0
   14.2927  -13.3901    9.8691 H   0  0  0  0  0  0  0  0  0  0  0  0
   12.7628  -15.1402    9.9823 H   0  0  0  0  0  0  0  0  0  0  0  0
   10.4306  -15.9753   10.2587 H   0  0  0  0  0  0  0  0  0  0  0  0
    8.9869  -11.9017   10.4213 H   0  0  0  0  0  0  0  0  0  0  0  0
   11.3177  -11.0662   10.1450 H   0  0  0  0  0  0  0  0  0  0  0  0
   16.9681  -13.3667   13.7005 H   0  0  0  0  0  0  0  0  0  0  0  0
   18.0887  -13.5771   15.0375 H   0  0  0  0  0  0  0  0  0  0  0  0
   15.2728  -14.7434   14.6694 H   0  0  0  0  0  0  0  0  0  0  0  0
   16.7025  -15.5988   15.2043 H   0  0  0  0  0  0  0  0  0  0  0  0
   14.9141  -14.7280   17.0328 H   0  0  0  0  0  0  0  0  0  0  0  0
   16.6191  -14.5433   17.4217 H   0  0  0  0  0  0  0  0  0  0  0  0
   14.6299  -12.3565   16.5342 H   0  0  0  0  0  0  0  0  0  0  0  0
   14.2040  -11.8400   18.6100 H   0  0  0  0  0  0  0  0  0  0  0  0
   16.2888  -11.4820   20.5143 H   0  0  0  0  0  0  0  0  0  0  0  0
   15.7672   -9.8858   19.8296 H   0  0  0  0  0  0  0  0  0  0  0  0
   14.2220   -8.7474   21.0785 H   0  0  0  0  0  0  0  0  0  0  0  0
   12.3134   -8.6957   22.6708 H   0  0  0  0  0  0  0  0  0  0  0  0
   11.2940   -8.8680   24.1490 H   0  0  0  0  0  0  0  0  0  0  0  0
    9.9760   -9.6080   25.0000 H   0  0  0  0  0  0  0  0  0  0  0  0
   10.5590  -12.7660   23.4290 H   0  0  0  0  0  0  0  0  0  0  0  0
    9.5500  -11.9620   24.5880 H   0  0  0  0  0  0  0  0  0  0  0  0
   12.1551  -13.0208   22.6091 H   0  0  0  0  0  0  0  0  0  0  0  0
   14.0799  -13.0662   21.0299 H   0  0  0  0  0  0  0  0  0  0  0  0
   18.3964  -13.2840   12.4915 H   0  0  0  0  0  0  0  0  0  0  0  0
  1  2  1  0
  2  3  1  0
  3  4  2  0
  4  5  1  0
  5  6  2  0
  6  7  1  0
  7  8  2  0
  7  9  2  0
  7 10  1  0
 10 11  1  0
 11 12  1  0
 12 13  1  0
 13 14  2  0
 13 15  1  0
 15 16  1  0
 16 17  1  0
 17 18  2  0
 18 19  1  0
 19 20  2  0
 20 21  1  0
 21 22  3  0
 20 23  1  0
 23 24  2  0
 11 25  1  0
 25 26  2  0
 25 27  1  0
 27 28  1  0
 28 29  1  0
 29 30  1  0
 30 31  1  0
 31 32  1  0
 32 33  2  0
 32 34  1  0
 34 35  1  0
 35 36  1  0
 36 37  2  0
 37 38  1  0
 38 39  2  0
 39 40  1  0
 40 41  1  0
 40 42  2  0
 39 43  1  0
 43 44  2  0
  6 45  1  0
 45 46  2  0
 46 47  1  0
 46  3  1  0
 24 17  1  0
 31 27  1  0
 44 36  1  0
  1 48  1  0
  1 49  1  0
  1 50  1  0
  4 51  1  0
  5 52  1  0
 10 53  1  0
 11 54  1  6
 12 55  1  0
 12 56  1  0
 15 57  1  0
 16 58  1  0
 16 59  1  0
 18 60  1  0
 19 61  1  0
 23 62  1  0
 24 63  1  0
 28 64  1  0
 28 65  1  0
 29 66  1  0
 29 67  1  0
 30 68  1  0
 30 69  1  0
 31 70  1  6
 34 71  1  0
 35 72  1  0
 35 73  1  0
 37 74  1  0
 38 75  1  0
 41 76  1  0
 41 77  1  0
 42 78  1  0
 42 79  1  0
 43 80  1  0
 44 81  1  0
 45 82  1  0
M  CHG  1  42   1
M  END
>  <meeko>  (4) 
{"is_sidechain": [false], "free_energy": -9.397, "intermolecular_energy": -17.788, "internal_energy": -2.269}

$$$$
3utu_ligand
     RDKit          3D

 82 85  0  0  0  0  0  0  0  0999 V2000
   24.3130  -13.3320   24.3350 C   0  0  0  0  0  0  0  0  0  0  0  0
   23.0890  -13.1080   25.0210 O   0  0  0  0  0  0  0  0  0  0  0  0
   22.0980  -14.0440   24.8890 C   0  0  0  0  0  0  0  0  0  0  0  0
   22.1230  -15.1020   23.9700 C   0  0  0  0  0  0  0  0  0  0  0  0
   21.0650  -16.0150   23.9100 C   0  0  0  0  0  0  0  0  0  0  0  0
   19.9790  -15.8710   24.7750 C   0  0  0  0  0  0  0  0  0  0  0  0
   18.6430  -17.0390   24.7460 S   0  0  0  0  0  0  0  0  0  0  0  0
   18.0290  -17.0840   26.0550 O   0  0  0  0  0  0  0  0  0  0  0  0
   19.1260  -18.2320   24.0930 O   0  0  0  0  0  0  0  0  0  0  0  0
   17.5620  -16.3040   23.6750 N   0  0  0  0  0  0  0  0  0  0  0  0
   18.1310  -15.7730   22.4040 C   0  0  1  0  0  0  0  0  0  0  0  0
   17.3070  -16.2660   21.2090 C   0  0  0  0  0  0  0  0  0  0  0  0
   15.8410  -16.3460   21.5740 C   0  0  0  0  0  0  0  0  0  0  0  0
   15.1340  -15.3530   21.7110 O   0  0  0  0  0  0  0  0  0  0  0  0
   15.3760  -17.6330   21.7180 N   0  0  0  0  0  0  0  0  0  0  0  0
   13.9670  -17.9040   21.9150 C   0  0  0  0  0  0  0  0  0  0  0  0
   13.3140  -18.3250   20.6220 C   0  0  0  0  0  0  0  0  0  0  0  0
   12.0230  -18.8730   20.6170 C   0  0  0  0  0  0  0  0  0  0  0  0
   11.4350  -19.2870   19.4180 C   0  0  0  0  0  0  0  0  0  0  0  0
   12.1330  -19.1610   18.2120 C   0  0  0  0  0  0  0  0  0  0  0  0
   11.5290  -19.5910   16.9840 C   0  0  0  0  0  0  0  0  0  0  0  0
   11.0400  -19.9480   15.9950 N   0  0  0  0  0  0  0  0  0  0  0  0
   13.4210  -18.6220   18.2100 C   0  0  0  0  0  0  0  0  0  0  0  0
   14.0080  -18.2090   19.4090 C   0  0  0  0  0  0  0  0  0  0  0  0
   18.2530  -14.2450   22.3560 C   0  0  0  0  0  0  0  0  0  0  0  0
   17.8290  -13.5790   23.3080 O   0  0  0  0  0  0  0  0  0  0  0  0
   18.8570  -13.6320   21.2780 N   0  0  0  0  0  0  0  0  0  0  0  0
   20.0840  -14.0260   20.6000 C   0  0  0  0  0  0  0  0  0  0  0  0
   20.7000  -12.7090   20.1630 C   0  0  0  0  0  0  0  0  0  0  0  0
   19.4850  -11.8660   19.8160 C   0  0  0  0  0  0  0  0  0  0  0  0
   18.4270  -12.2920   20.8430 C   0  0  1  0  0  0  0  0  0  0  0  0
   17.0450  -12.2160   20.1670 C   0  0  0  0  0  0  0  0  0  0  0  0
   16.5160  -13.2190   19.6870 O   0  0  0  0  0  0  0  0  0  0  0  0
   16.3900  -11.0090   20.2780 N   0  0  0  0  0  0  0  0  0  0  0  0
   15.0740  -10.8000   19.7290 C   0  0  0  0  0  0  0  0  0  0  0  0
   14.0150  -10.7760   20.8060 C   0  0  0  0  0  0  0  0  0  0  0  0
   13.4470  -11.9740   21.2560 C   0  0  0  0  0  0  0  0  0  0  0  0
   12.4310  -11.9650   22.2120 C   0  0  0  0  0  0  0  0  0  0  0  0
   11.9640  -10.7530   22.7370 C   0  0  0  0  0  0  0  0  0  0  0  0
   10.8770  -10.7480   23.7200 C   0  0  0  0  0  0  0  0  0  0  0  0
   10.2290  -11.8650   23.9680 N   0  0  0  0  0  0  0  0  0  0  0  0
   10.5760   -9.6240   24.3310 N   0  0  0  0  0  0  0  0  0  0  0  0
   12.5370   -9.5520   22.2920 C   0  0  0  0  0  0  0  0  0  0  0  0
   13.5500   -9.5650   21.3300 C   0  0  0  0  0  0  0  0  0  0  0  0
   19.9230  -14.8090   25.6790 C   0  0  0  0  0  0  0  0  0  0  0  0
   20.9850  -13.9060   25.7380 C   0  0  0  0  0  0  0  0  0  0  0  0
   20.8870  -12.6290   26.8990 Cl  0  0  0  0  0  0  0  0  0  0  0  0
   25.1214  -13.4799   25.0662 H   0  0  0  0  0  0  0  0  0  0  0  0
   24.2209  -14.2282   23.7039 H   0  0  0  0  0  0  0  0  0  0  0  0
   24.5443  -12.4613   23.7039 H   0  0  0  0  0  0  0  0  0  0  0  0
   22.9810  -15.2152   23.2910 H   0  0  0  0  0  0  0  0  0  0  0  0
   21.0887  -16.8420   23.1851 H   0  0  0  0  0  0  0  0  0  0  0  0
   16.7460  -16.9080   23.5470 H   0  0  0  0  0  0  0  0  0  0  0  0
   19.1584  -16.1626   22.3526 H   0  0  0  0  0  0  0  0  0  0  0  0
   17.4334  -15.5671   20.3690 H   0  0  0  0  0  0  0  0  0  0  0  0
   17.6581  -17.2687   20.9238 H   0  0  0  0  0  0  0  0  0  0  0  0
   15.9590  -18.4070   21.4300 H   0  0  0  0  0  0  0  0  0  0  0  0
   13.8553  -18.7108   22.6543 H   0  0  0  0  0  0  0  0  0  0  0  0
   13.4790  -16.9853   22.2724 H   0  0  0  0  0  0  0  0  0  0  0  0
   11.4698  -18.9777   21.5620 H   0  0  0  0  0  0  0  0  0  0  0  0
   10.4208  -19.7130   19.4228 H   0  0  0  0  0  0  0  0  0  0  0  0
   13.9739  -18.5224   17.2643 H   0  0  0  0  0  0  0  0  0  0  0  0
   15.0245  -17.7887   19.4012 H   0  0  0  0  0  0  0  0  0  0  0  0
   20.7551  -14.5631   21.2864 H   0  0  0  0  0  0  0  0  0  0  0  0
   19.9019  -14.7090   19.7572 H   0  0  0  0  0  0  0  0  0  0  0  0
   21.2787  -12.2523   20.9794 H   0  0  0  0  0  0  0  0  0  0  0  0
   21.4079  -12.8159   19.3279 H   0  0  0  0  0  0  0  0  0  0  0  0
   19.7131  -10.7942   19.9123 H   0  0  0  0  0  0  0  0  0  0  0  0
   19.1503  -12.0153   18.7789 H   0  0  0  0  0  0  0  0  0  0  0  0
   18.3349  -11.6532   21.7338 H   0  0  0  0  0  0  0  0  0  0  0  0
   16.9470  -10.1820   20.4820 H   0  0  0  0  0  0  0  0  0  0  0  0
   15.0598   -9.8390   19.1940 H   0  0  0  0  0  0  0  0  0  0  0  0
   14.8508  -11.6345   19.0480 H   0  0  0  0  0  0  0  0  0  0  0  0
   13.8055  -12.9321   20.8516 H   0  0  0  0  0  0  0  0  0  0  0  0
   11.9943  -12.9144   22.5553 H   0  0  0  0  0  0  0  0  0  0  0  0
   10.4680  -12.7070   23.4510 H   0  0  0  0  0  0  0  0  0  0  0  0
    9.4670  -11.9190   24.6280 H   0  0  0  0  0  0  0  0  0  0  0  0
   11.1140   -8.7850   24.1260 H   0  0  0  0  0  0  0  0  0  0  0  0
    9.8380   -9.5500   25.0160 H   0  0  0  0  0  0  0  0  0  0  0  0
   12.1863   -8.5939   22.7033 H   0  0  0  0  0  0  0  0  0  0  0  0
   13.9850   -8.6165   20.9821 H   0  0  0  0  0  0  0  0  0  0  0  0
   19.0509  -14.6853   26.3379 H   0  0  0  0  0  0  0  0  0  0  0  0
  1  2  1  0
  2  3  1  0
  3  4  2  0
  4  5  1  0
  5  6  2  0
  6  7  1  0
  7  8  2  0
  7  9  2  0
  7 10  1  0
 10 11  1  0
 11 12  1  0
 12 13  1  0
 13 14  2  0
 13 15  1  0
 15 16  1  0
 16 17  1  0
 17 18  2  0
 18 19  1  0
 19 20  2  0
 20 21  1  0
 21 22  3  0
 20 23  1  0
 23 24  2  0
 11 25  1  0
 25 26  2  0
 25 27  1  0
 27 28  1  0
 28 29  1  0
 29 30  1  0
 30 31  1  0
 31 32  1  0
 32 33  2  0
 32 34  1  0
 34 35  1  0
 35 36  1  0
 36 37  2  0
 37 38  1  0
 38 39  2  0
 39 40  1  0
 40 41  1  0
 40 42  2  0
 39 43  1  0
 43 44  2  0
  6 45  1  0
 45 46  2  0
 46 47  1  0
 46  3  1  0
 24 17  1  0
 31 27  1  0
 44 36  1  0
  1 48  1  0
  1 49  1  0
  1 50  1  0
  4 51  1  0
  5 52  1  0
 10 53  1  0
 11 54  1  6
 12 55  1  0
 12 56  1  0
 15 57  1  0
 16 58  1  0
 16 59  1  0
 18 60  1  0
 19 61  1  0
 23 62  1  0
 24 63  1  0
 28 64  1  0
 28 65  1  0
 29 66  1  0
 29 67  1  0
 30 68  1  0
 30 69  1  0
 31 70  1  1
 34 71  1  0
 35 72  1  0
 35 73  1  0
 37 74  1  0
 38 75  1  0
 41 76  1  0
 41 77  1  0
 42 78  1  0
 42 79  1  0
 43 80  1  0
 44 81  1  0
 45 82  1  0
M  CHG  1  42   1
M  END
>  <meeko>  (5) 
{"is_sidechain": [false], "free_energy": -9.347, "intermolecular_energy": -17.252, "internal_energy": -2.715}

$$$$
3utu_ligand
     RDKit          3D

 82 85  0  0  0  0  0  0  0  0999 V2000
   21.9700  -15.2310    8.8940 C   0  0  0  0  0  0  0  0  0  0  0  0
   21.5280  -14.9710   10.2190 O   0  0  0  0  0  0  0  0  0  0  0  0
   20.6380  -13.9470   10.4100 C   0  0  0  0  0  0  0  0  0  0  0  0
   20.6100  -12.7680    9.6540 C   0  0  0  0  0  0  0  0  0  0  0  0
   19.6590  -11.7770    9.9180 C   0  0  0  0  0  0  0  0  0  0  0  0
   18.7290  -11.9690   10.9410 C   0  0  0  0  0  0  0  0  0  0  0  0
   17.4880  -10.7450   11.2710 S   0  0  0  0  0  0  0  0  0  0  0  0
   16.6280  -10.6230   10.1130 O   0  0  0  0  0  0  0  0  0  0  0  0
   18.1520   -9.5990   11.8460 O   0  0  0  0  0  0  0  0  0  0  0  0
   16.6050  -11.4700   12.5160 N   0  0  0  0  0  0  0  0  0  0  0  0
   16.2390  -10.6030   13.6730 C   0  0  1  0  0  0  0  0  0  0  0  0
   14.7180  -10.5710   13.8500 C   0  0  0  0  0  0  0  0  0  0  0  0
   14.0450  -11.4310   12.8020 C   0  0  0  0  0  0  0  0  0  0  0  0
   13.6750  -10.9910   11.7180 O   0  0  0  0  0  0  0  0  0  0  0  0
   13.9050  -12.7480   13.1740 N   0  0  0  0  0  0  0  0  0  0  0  0
   13.4240  -13.7440   12.2390 C   0  0  0  0  0  0  0  0  0  0  0  0
   14.1890  -15.0350   12.3870 C   0  0  0  0  0  0  0  0  0  0  0  0
   15.3860  -15.2430   11.6860 C   0  0  0  0  0  0  0  0  0  0  0  0
   16.0760  -16.4530   11.8060 C   0  0  0  0  0  0  0  0  0  0  0  0
   15.5740  -17.4710   12.6230 C   0  0  0  0  0  0  0  0  0  0  0  0
   16.2810  -18.7130   12.7400 C   0  0  0  0  0  0  0  0  0  0  0  0
   16.8510  -19.7200   12.8240 N   0  0  0  0  0  0  0  0  0  0  0  0
   14.3790  -17.2740   13.3180 C   0  0  0  0  0  0  0  0  0  0  0  0
   13.6900  -16.0640   13.1980 C   0  0  0  0  0  0  0  0  0  0  0  0
   16.9080  -11.0010   14.9950 C   0  0  0  0  0  0  0  0  0  0  0  0
   17.5390  -10.1470   15.6300 O   0  0  0  0  0  0  0  0  0  0  0  0
   16.7780  -12.2870   15.4770 N   0  0  0  0  0  0  0  0  0  0  0  0
   17.2500  -13.5220   14.8650 C   0  0  0  0  0  0  0  0  0  0  0  0
   16.2070  -14.5500   15.2650 C   0  0  0  0  0  0  0  0  0  0  0  0
   15.8130  -14.1070   16.6630 C   0  0  0  0  0  0  0  0  0  0  0  0
   15.8720  -12.5750   16.6020 C   0  0  1  0  0  0  0  0  0  0  0  0
   16.3270  -12.0570   17.9800 C   0  0  0  0  0  0  0  0  0  0  0  0
   17.5190  -12.0190   18.2840 O   0  0  0  0  0  0  0  0  0  0  0  0
   15.3400  -11.5040   18.7670 N   0  0  0  0  0  0  0  0  0  0  0  0
   15.6210  -10.9450   20.0650 C   0  0  0  0  0  0  0  0  0  0  0  0
   14.3920  -10.9260   20.9440 C   0  0  0  0  0  0  0  0  0  0  0  0
   13.8780   -9.7060   21.4020 C   0  0  0  0  0  0  0  0  0  0  0  0
   12.7770   -9.6730   22.2560 C   0  0  0  0  0  0  0  0  0  0  0  0
   12.1660  -10.8650   22.6700 C   0  0  0  0  0  0  0  0  0  0  0  0
   11.0260  -10.8260   23.5900 C   0  0  0  0  0  0  0  0  0  0  0  0
   10.7380   -9.7020   24.2090 N   0  0  0  0  0  0  0  0  0  0  0  0
   10.3180  -11.9180   23.7730 N   0  0  0  0  0  0  0  0  0  0  0  0
   12.6750  -12.0880   22.2060 C   0  0  0  0  0  0  0  0  0  0  0  0
   13.7820  -12.1160   21.3550 C   0  0  0  0  0  0  0  0  0  0  0  0
   18.7570  -13.1250   11.7240 C   0  0  0  0  0  0  0  0  0  0  0  0
   19.7040  -14.1120   11.4490 C   0  0  0  0  0  0  0  0  0  0  0  0
   19.6760  -15.5410   12.4210 Cl  0  0  0  0  0  0  0  0  0  0  0  0
   22.9177  -15.7885    8.9264 H   0  0  0  0  0  0  0  0  0  0  0  0
   21.2119  -15.8271    8.3649 H   0  0  0  0  0  0  0  0  0  0  0  0
   22.1226  -14.2788    8.3649 H   0  0  0  0  0  0  0  0  0  0  0  0
   21.3419  -12.6204    8.8462 H   0  0  0  0  0  0  0  0  0  0  0  0
   19.6441  -10.8519    9.3230 H   0  0  0  0  0  0  0  0  0  0  0  0
   15.8170  -11.9870   12.1180 H   0  0  0  0  0  0  0  0  0  0  0  0
   16.6199   -9.6009   13.4267 H   0  0  0  0  0  0  0  0  0  0  0  0
   14.4617  -10.9514   14.8498 H   0  0  0  0  0  0  0  0  0  0  0  0
   14.3682   -9.5341   13.7381 H   0  0  0  0  0  0  0  0  0  0  0  0
   14.3770  -13.0830   14.0030 H   0  0  0  0  0  0  0  0  0  0  0  0
   12.3576  -13.9332   12.4313 H   0  0  0  0  0  0  0  0  0  0  0  0
   13.5687  -13.3650   11.2165 H   0  0  0  0  0  0  0  0  0  0  0  0
   15.7845  -14.4488   11.0375 H   0  0  0  0  0  0  0  0  0  0  0  0
   17.0166  -16.6048   11.2562 H   0  0  0  0  0  0  0  0  0  0  0  0
   13.9794  -18.0722   13.9608 H   0  0  0  0  0  0  0  0  0  0  0  0
   12.7470  -15.9176   13.7452 H   0  0  0  0  0  0  0  0  0  0  0  0
   17.3011  -13.4218   13.7708 H   0  0  0  0  0  0  0  0  0  0  0  0
   18.2636  -13.7969   15.1920 H   0  0  0  0  0  0  0  0  0  0  0  0
   15.3439  -14.5239   14.5836 H   0  0  0  0  0  0  0  0  0  0  0  0
   16.5791  -15.5844   15.2257 H   0  0  0  0  0  0  0  0  0  0  0  0
   14.7968  -14.4490   16.9089 H   0  0  0  0  0  0  0  0  0  0  0  0
   16.4720  -14.5238   17.4389 H   0  0  0  0  0  0  0  0  0  0  0  0
   14.9163  -12.0634   16.4154 H   0  0  0  0  0  0  0  0  0  0  0  0
   14.3740  -11.7570   18.5670 H   0  0  0  0  0  0  0  0  0  0  0  0
   16.3988  -11.5506   20.5530 H   0  0  0  0  0  0  0  0  0  0  0  0
   15.9585   -9.9074   19.9254 H   0  0  0  0  0  0  0  0  0  0  0  0
   14.3484   -8.7638   21.0842 H   0  0  0  0  0  0  0  0  0  0  0  0
   12.3855   -8.7068   22.6070 H   0  0  0  0  0  0  0  0  0  0  0  0
   11.3290   -8.8880   24.0680 H   0  0  0  0  0  0  0  0  0  0  0  0
    9.9710   -9.6200   24.8600 H   0  0  0  0  0  0  0  0  0  0  0  0
   10.5610  -12.7620   23.2600 H   0  0  0  0  0  0  0  0  0  0  0  0
    9.5230  -11.9600   24.3940 H   0  0  0  0  0  0  0  0  0  0  0  0
   12.1990  -13.0304   22.5146 H   0  0  0  0  0  0  0  0  0  0  0  0
   14.1773  -13.0811   21.0052 H   0  0  0  0  0  0  0  0  0  0  0  0
   18.0405  -13.2559   12.5483 H   0  0  0  0  0  0  0  0  0  0  0  0
  1  2  1  0
  2  3  1  0
  3  4  2  0
  4  5  1  0
  5  6  2  0
  6  7  1  0
  7  8  2  0
  7  9  2  0
  7 10  1  0
 10 11  1  0
 11 12  1  0
 12 13  1  0
 13 14  2  0
 13 15  1  0
 15 16  1  0
 16 17  1  0
 17 18  2  0
 18 19  1  0
 19 20  2  0
 20 21  1  0
 21 22  3  0
 20 23  1  0
 23 24  2  0
 11 25  1  0
 25 26  2  0
 25 27  1  0
 27 28  1  0
 28 29  1  0
 29 30  1  0
 30 31  1  0
 31 32  1  0
 32 33  2  0
 32 34  1  0
 34 35  1  0
 35 36  1  0
 36 37  2  0
 37 38  1  0
 38 39  2  0
 39 40  1  0
 40 41  1  0
 40 42  2  0
 39 43  1  0
 43 44  2  0
  6 45  1  0
 45 46  2  0
 46 47  1  0
 46  3  1  0
 24 17  1  0
 31 27  1  0
 44 36  1  0
  1 48  1  0
  1 49  1  0
  1 50  1  0
  4 51  1  0
  5 52  1  0
 10 53  1  0
 11 54  1  6
 12 55  1  0
 12 56  1  0
 15 57  1  0
 16 58  1  0
 16 59  1  0
 18 60  1  0
 19 61  1  0
 23 62  1  0
 24 63  1  0
 28 64  1  0
 28 65  1  0
 29 66  1  0
 29 67  1  0
 30 68  1  0
 30 69  1  0
 31 70  1  6
 34 71  1  0
 35 72  1  0
 35 73  1  0
 37 74  1  0
 38 75  1  0
 41 76  1  0
 41 77  1  0
 42 78  1  0
 42 79  1  0
 43 80  1  0
 44 81  1  0
 45 82  1  0
M  CHG  1  42   1
M  END
>  <meeko>  (6) 
{"is_sidechain": [false], "free_energy": -9.216, "intermolecular_energy": -16.141, "internal_energy": -3.586}

$$$$
3utu_ligand
     RDKit          3D

 82 85  0  0  0  0  0  0  0  0999 V2000
   24.4460  -19.9930   25.9600 C   0  0  0  0  0  0  0  0  0  0  0  0
   24.4730  -19.7660   24.5590 O   0  0  0  0  0  0  0  0  0  0  0  0
   23.3730  -19.1880   23.9800 C   0  0  0  0  0  0  0  0  0  0  0  0
   22.0830  -19.2160   24.5250 C   0  0  0  0  0  0  0  0  0  0  0  0
   21.0190  -18.5930   23.8650 C   0  0  0  0  0  0  0  0  0  0  0  0
   21.2480  -17.9360   22.6540 C   0  0  0  0  0  0  0  0  0  0  0  0
   19.9240  -17.1050   21.8160 S   0  0  0  0  0  0  0  0  0  0  0  0
   19.2690  -18.0400   20.9280 O   0  0  0  0  0  0  0  0  0  0  0  0
   20.4380  -15.8420   21.3430 O   0  0  0  0  0  0  0  0  0  0  0  0
   18.8710  -16.7540   23.0900 N   0  0  0  0  0  0  0  0  0  0  0  0
   17.4110  -16.8370   22.7980 C   0  0  1  0  0  0  0  0  0  0  0  0
   16.6350  -17.1770   24.0740 C   0  0  0  0  0  0  0  0  0  0  0  0
   17.5200  -17.0160   25.2910 C   0  0  0  0  0  0  0  0  0  0  0  0
   18.0810  -17.9620   25.8350 O   0  0  0  0  0  0  0  0  0  0  0  0
   17.6490  -15.7130   25.7130 N   0  0  0  0  0  0  0  0  0  0  0  0
   18.5760  -15.3540   26.7660 C   0  0  0  0  0  0  0  0  0  0  0  0
   19.8500  -14.7860   26.1920 C   0  0  0  0  0  0  0  0  0  0  0  0
   20.8830  -15.6310   25.7640 C   0  0  0  0  0  0  0  0  0  0  0  0
   22.0720  -15.0970   25.2580 C   0  0  0  0  0  0  0  0  0  0  0  0
   22.2430  -13.7110   25.1800 C   0  0  0  0  0  0  0  0  0  0  0  0
   23.4650  -13.1660   24.6650 C   0  0  0  0  0  0  0  0  0  0  0  0
   24.4590  -12.7290   24.2570 N   0  0  0  0  0  0  0  0  0  0  0  0
   21.2200  -12.8620   25.6100 C   0  0  0  0  0  0  0  0  0  0  0  0
   20.0330  -13.3970   26.1150 C   0  0  0  0  0  0  0  0  0  0  0  0
   16.8240  -15.5770   22.1510 C   0  0  0  0  0  0  0  0  0  0  0  0
   16.9580  -14.4890   22.7250 O   0  0  0  0  0  0  0  0  0  0  0  0
   16.1850  -15.6580   20.9310 N   0  0  0  0  0  0  0  0  0  0  0  0
   15.2610  -16.6870   20.4750 C   0  0  0  0  0  0  0  0  0  0  0  0
   15.5350  -16.7910   18.9850 C   0  0  0  0  0  0  0  0  0  0  0  0
   15.8470  -15.3560   18.5980 C   0  0  0  0  0  0  0  0  0  0  0  0
   16.5980  -14.7940   19.8120 C   0  0  1  0  0  0  0  0  0  0  0  0
   16.2410  -13.3010   19.9490 C   0  0  0  0  0  0  0  0  0  0  0  0
   17.0660  -12.4850   20.3610 O   0  0  0  0  0  0  0  0  0  0  0  0
   15.0170  -12.9300   19.4380 N   0  0  0  0  0  0  0  0  0  0  0  0
   14.5630  -11.5630   19.4600 C   0  0  0  0  0  0  0  0  0  0  0  0
   13.6940  -11.2810   20.6630 C   0  0  0  0  0  0  0  0  0  0  0  0
   13.0340  -12.3330   21.3120 C   0  0  0  0  0  0  0  0  0  0  0  0
   12.1870  -12.0840   22.3910 C   0  0  0  0  0  0  0  0  0  0  0  0
   11.9830  -10.7730   22.8430 C   0  0  0  0  0  0  0  0  0  0  0  0
   11.0690  -10.5140   23.9600 C   0  0  0  0  0  0  0  0  0  0  0  0
   10.4770  -11.5270   24.5530 N   0  0  0  0  0  0  0  0  0  0  0  0
   10.8660   -9.2730   24.3420 N   0  0  0  0  0  0  0  0  0  0  0  0
   12.6480   -9.7190   22.1990 C   0  0  0  0  0  0  0  0  0  0  0  0
   13.4910   -9.9720   21.1140 C   0  0  0  0  0  0  0  0  0  0  0  0
   22.5210  -17.9210   22.0810 C   0  0  0  0  0  0  0  0  0  0  0  0
   23.5790  -18.5380   22.7500 C   0  0  0  0  0  0  0  0  0  0  0  0
   25.1430  -18.4600   22.0190 Cl  0  0  0  0  0  0  0  0  0  0  0  0
   24.5599  -19.0352   26.4889 H   0  0  0  0  0  0  0  0  0  0  0  0
   23.4867  -20.4537   26.2384 H   0  0  0  0  0  0  0  0  0  0  0  0
   25.2704  -20.6659   26.2384 H   0  0  0  0  0  0  0  0  0  0  0  0
   21.9054  -19.7322   25.4800 H   0  0  0  0  0  0  0  0  0  0  0  0
   20.0078  -18.6203   24.2971 H   0  0  0  0  0  0  0  0  0  0  0  0
   19.1590  -17.2730   23.9230 H   0  0  0  0  0  0  0  0  0  0  0  0
   17.3013  -17.6401   22.0544 H   0  0  0  0  0  0  0  0  0  0  0  0
   15.7709  -16.5021   24.1629 H   0  0  0  0  0  0  0  0  0  0  0  0
   16.2957  -18.2218   24.0164 H   0  0  0  0  0  0  0  0  0  0  0  0
   17.3020  -14.9650   25.1280 H   0  0  0  0  0  0  0  0  0  0  0  0
   18.1074  -14.6012   27.4170 H   0  0  0  0  0  0  0  0  0  0  0  0
   18.8226  -16.2591   27.3404 H   0  0  0  0  0  0  0  0  0  0  0  0
   20.7574  -16.7220   25.8266 H   0  0  0  0  0  0  0  0  0  0  0  0
   22.8750  -15.7687   24.9204 H   0  0  0  0  0  0  0  0  0  0  0  0
   21.3497  -11.7713   25.5507 H   0  0  0  0  0  0  0  0  0  0  0  0
   19.2335  -12.7227   26.4558 H   0  0  0  0  0  0  0  0  0  0  0  0
   15.4627  -17.6444   20.9776 H   0  0  0  0  0  0  0  0  0  0  0  0
   14.2116  -16.4429   20.6969 H   0  0  0  0  0  0  0  0  0  0  0  0
   16.3924  -17.4504   18.7851 H   0  0  0  0  0  0  0  0  0  0  0  0
   14.6970  -17.2222   18.4177 H   0  0  0  0  0  0  0  0  0  0  0  0
   16.4793  -15.3231   17.6985 H   0  0  0  0  0  0  0  0  0  0  0  0
   14.9424  -14.7782   18.3574 H   0  0  0  0  0  0  0  0  0  0  0  0
   17.6961  -14.8113   19.7491 H   0  0  0  0  0  0  0  0  0  0  0  0
   14.3120  -13.6540   19.3180 H   0  0  0  0  0  0  0  0  0  0  0  0
   15.4382  -10.8973   19.4888 H   0  0  0  0  0  0  0  0  0  0  0  0
   13.9628  -11.3869   18.5552 H   0  0  0  0  0  0  0  0  0  0  0  0
   13.1858  -13.3662   20.9665 H   0  0  0  0  0  0  0  0  0  0  0  0
   11.6762  -12.9206   22.8902 H   0  0  0  0  0  0  0  0  0  0  0  0
   10.6330  -12.4700   24.2080 H   0  0  0  0  0  0  0  0  0  0  0  0
    9.8320  -11.4080   25.3210 H   0  0  0  0  0  0  0  0  0  0  0  0
   11.3590   -8.5200   23.8700 H   0  0  0  0  0  0  0  0  0  0  0  0
   10.2480   -9.0260   25.1010 H   0  0  0  0  0  0  0  0  0  0  0  0
   12.5048   -8.6866   22.5506 H   0  0  0  0  0  0  0  0  0  0  0  0
   13.9988   -9.1361   20.6106 H   0  0  0  0  0  0  0  0  0  0  0  0
   22.6884  -17.4279   21.1121 H   0  0  0  0  0  0  0  0  0  0  0  0
  1  2  1  0
  2  3  1  0
  3  4  2  0
  4  5  1  0
  5  6  2  0
  6  7  1  0
  7  8  2  0
  7  9  2  0
  7 10  1  0
 10 11  1  0
 11 12  1  0
 12 13  1  0
 13 14  2  0
 13 15  1  0
 15 16  1  0
 16 17  1  0
 17 18  2  0
 18 19  1  0
 19 20  2  0
 20 21  1  0
 21 22  3  0
 20 23  1  0
 23 24  2  0
 11 25  1  0
 25 26  2  0
 25 27  1  0
 27 28  1  0
 28 29  1  0
 29 30  1  0
 30 31  1  0
 31 32  1  0
 32 33  2  0
 32 34  1  0
 34 35  1  0
 35 36  1  0
 36 37  2  0
 37 38  1  0
 38 39  2  0
 39 40  1  0
 40 41  1  0
 40 42  2  0
 39 43  1  0
 43 44  2  0
  6 45  1  0
 45 46  2  0
 46 47  1  0
 46  3  1  0
 24 17  1  0
 31 27  1  0
 44 36  1  0
  1 48  1  0
  1 49  1  0
  1 50  1  0
  4 51  1  0
  5 52  1  0
 10 53  1  0
 11 54  1  6
 12 55  1  0
 12 56  1  0
 15 57  1  0
 16 58  1  0
 16 59  1  0
 18 60  1  0
 19 61  1  0
 23 62  1  0
 24 63  1  0
 28 64  1  0
 28 65  1  0
 29 66  1  0
 29 67  1  0
 30 68  1  0
 30 69  1  0
 31 70  1  6
 34 71  1  0
 35 72  1  0
 35 73  1  0
 37 74  1  0
 38 75  1  0
 41 76  1  0
 41 77  1  0
 42 78  1  0
 42 79  1  0
 43 80  1  0
 44 81  1  0
 45 82  1  0
M  CHG  1  42   1
M  END
>  <meeko>  (7) 
{"is_sidechain": [false], "free_energy": -9.157, "intermolecular_energy": -16.154, "internal_energy": -3.466}

$$$$
3utu_ligand
     RDKit          3D

 82 85  0  0  0  0  0  0  0  0999 V2000
   24.1110  -13.6570   24.2330 C   0  0  0  0  0  0  0  0  0  0  0  0
   22.8940  -13.5010   24.9480 O   0  0  0  0  0  0  0  0  0  0  0  0
   21.7270  -13.4670   24.2320 C   0  0  0  0  0  0  0  0  0  0  0  0
   21.6550  -13.4590   22.8330 C   0  0  0  0  0  0  0  0  0  0  0  0
   20.4160  -13.4300   22.1850 C   0  0  0  0  0  0  0  0  0  0  0  0
   19.2420  -13.4110   22.9420 C   0  0  0  0  0  0  0  0  0  0  0  0
   17.6570  -13.4130   22.1450 S   0  0  0  0  0  0  0  0  0  0  0  0
   17.4790  -12.1550   21.4520 O   0  0  0  0  0  0  0  0  0  0  0  0
   16.6920  -13.8940   23.1040 O   0  0  0  0  0  0  0  0  0  0  0  0
   17.8470  -14.6340   20.9930 N   0  0  0  0  0  0  0  0  0  0  0  0
   16.6870  -15.5460   20.7830 C   0  0  1  0  0  0  0  0  0  0  0  0
   16.1370  -15.3840   19.3620 C   0  0  0  0  0  0  0  0  0  0  0  0
   15.9720  -13.9190   19.0220 C   0  0  0  0  0  0  0  0  0  0  0  0
   16.6570  -13.3510   18.1760 O   0  0  0  0  0  0  0  0  0  0  0  0
   14.9760  -13.2940   19.7350 N   0  0  0  0  0  0  0  0  0  0  0  0
   14.5760  -11.9350   19.4330 C   0  0  0  0  0  0  0  0  0  0  0  0
   13.7720  -11.3460   20.5650 C   0  0  0  0  0  0  0  0  0  0  0  0
   13.0030  -12.1680   21.4010 C   0  0  0  0  0  0  0  0  0  0  0  0
   12.2380  -11.6120   22.4310 C   0  0  0  0  0  0  0  0  0  0  0  0
   12.2280  -10.2280   22.6320 C   0  0  0  0  0  0  0  0  0  0  0  0
   11.4390   -9.6600   23.6850 C   0  0  0  0  0  0  0  0  0  0  0  0
   10.7910   -9.2040   24.5330 N   0  0  0  0  0  0  0  0  0  0  0  0
   12.9860   -9.4020   21.7980 C   0  0  0  0  0  0  0  0  0  0  0  0
   13.7500   -9.9590   20.7700 C   0  0  0  0  0  0  0  0  0  0  0  0
   16.9890  -17.0240   21.0590 C   0  0  0  0  0  0  0  0  0  0  0  0
   17.3090  -17.7580   20.1170 O   0  0  0  0  0  0  0  0  0  0  0  0
   16.9310  -17.5130   22.3480 N   0  0  0  0  0  0  0  0  0  0  0  0
   15.7440  -17.8440   23.1250 C   0  0  0  0  0  0  0  0  0  0  0  0
   16.1350  -17.5040   24.5520 C   0  0  0  0  0  0  0  0  0  0  0  0
   17.6060  -17.8760   24.5980 C   0  0  0  0  0  0  0  0  0  0  0  0
   18.1300  -17.5080   23.2030 C   0  0  1  0  0  0  0  0  0  0  0  0
   19.2300  -18.5170   22.8230 C   0  0  0  0  0  0  0  0  0  0  0  0
   19.2330  -19.6590   23.2840 O   0  0  0  0  0  0  0  0  0  0  0  0
   20.0980  -18.1120   21.8320 N   0  0  0  0  0  0  0  0  0  0  0  0
   21.1550  -18.9630   21.3460 C   0  0  0  0  0  0  0  0  0  0  0  0
   22.5150  -18.4630   21.7710 C   0  0  0  0  0  0  0  0  0  0  0  0
   22.6770  -17.8450   23.0180 C   0  0  0  0  0  0  0  0  0  0  0  0
   23.9150  -17.3310   23.4030 C   0  0  0  0  0  0  0  0  0  0  0  0
   25.0180  -17.4270   22.5450 C   0  0  0  0  0  0  0  0  0  0  0  0
   26.3100  -16.8600   22.9420 C   0  0  0  0  0  0  0  0  0  0  0  0
   27.0690  -17.5210   23.7890 N   0  0  0  0  0  0  0  0  0  0  0  0
   26.6800  -15.7020   22.4410 N   0  0  0  0  0  0  0  0  0  0  0  0
   24.8600  -18.0510   21.2980 C   0  0  0  0  0  0  0  0  0  0  0  0
   23.6170  -18.5600   20.9140 C   0  0  0  0  0  0  0  0  0  0  0  0
   19.2940  -13.3910   24.3370 C   0  0  0  0  0  0  0  0  0  0  0  0
   20.5340  -13.4290   24.9750 C   0  0  0  0  0  0  0  0  0  0  0  0
   20.5450  -13.4400   26.7030 Cl  0  0  0  0  0  0  0  0  0  0  0  0
   24.9432  -13.7637   24.9444 H   0  0  0  0  0  0  0  0  0  0  0  0
   24.0521  -14.5549   23.6004 H   0  0  0  0  0  0  0  0  0  0  0  0
   24.2805  -12.7732   23.6004 H   0  0  0  0  0  0  0  0  0  0  0  0
   22.5808  -13.4757   22.2392 H   0  0  0  0  0  0  0  0  0  0  0  0
   20.3662  -13.4222   21.0862 H   0  0  0  0  0  0  0  0  0  0  0  0
   18.2230  -14.2320   20.1300 H   0  0  0  0  0  0  0  0  0  0  0  0
   15.9329  -15.2448   21.5251 H   0  0  0  0  0  0  0  0  0  0  0  0
   16.8360  -15.8448   18.6485 H   0  0  0  0  0  0  0  0  0  0  0  0
   15.1550  -15.8761   19.3021 H   0  0  0  0  0  0  0  0  0  0  0  0
   14.3390  -13.8500   20.2910 H   0  0  0  0  0  0  0  0  0  0  0  0
   15.4753  -11.3221   19.2731 H   0  0  0  0  0  0  0  0  0  0  0  0
   13.9519  -11.9456   18.5272 H   0  0  0  0  0  0  0  0  0  0  0  0
   13.0015  -13.2570   21.2456 H   0  0  0  0  0  0  0  0  0  0  0  0
   11.6421  -12.2653   23.0853 H   0  0  0  0  0  0  0  0  0  0  0  0
   12.9810   -8.3127   21.9511 H   0  0  0  0  0  0  0  0  0  0  0  0
   14.3408   -9.3026   20.1142 H   0  0  0  0  0  0  0  0  0  0  0  0
   14.8832  -17.2407   22.8008 H   0  0  0  0  0  0  0  0  0  0  0  0
   15.4394  -18.8944   23.0075 H   0  0  0  0  0  0  0  0  0  0  0  0
   15.9910  -16.4330   24.7574 H   0  0  0  0  0  0  0  0  0  0  0  0
   15.5300  -18.0298   25.3053 H   0  0  0  0  0  0  0  0  0  0  0  0
   18.1299  -17.3011   25.3759 H   0  0  0  0  0  0  0  0  0  0  0  0
   17.7654  -18.9366   24.8422 H   0  0  0  0  0  0  0  0  0  0  0  0
   18.6136  -16.5240   23.1137 H   0  0  0  0  0  0  0  0  0  0  0  0
   20.1840  -17.1130   21.6540 H   0  0  0  0  0  0  0  0  0  0  0  0
   21.0076  -19.9775   21.7448 H   0  0  0  0  0  0  0  0  0  0  0  0
   21.1176  -18.9621   20.2466 H   0  0  0  0  0  0  0  0  0  0  0  0
   21.8184  -17.7643   23.7008 H   0  0  0  0  0  0  0  0  0  0  0  0
   24.0258  -16.8480   24.3850 H   0  0  0  0  0  0  0  0  0  0  0  0
   26.7350  -18.3970   24.1810 H   0  0  0  0  0  0  0  0  0  0  0  0
   27.9640  -17.1760   24.1040 H   0  0  0  0  0  0  0  0  0  0  0  0
   26.0740  -15.2320   21.7730 H   0  0  0  0  0  0  0  0  0  0  0  0
   27.5550  -15.2560   22.6750 H   0  0  0  0  0  0  0  0  0  0  0  0
   25.7205  -18.1399   20.6185 H   0  0  0  0  0  0  0  0  0  0  0  0
   23.5037  -19.0405   19.9310 H   0  0  0  0  0  0  0  0  0  0  0  0
   18.3667  -13.3457   24.9270 H   0  0  0  0  0  0  0  0  0  0  0  0
  1  2  1  0
  2  3  1  0
  3  4  2  0
  4  5  1  0
  5  6  2  0
  6  7  1  0
  7  8  2  0
  7  9  2  0
  7 10  1  0
 10 11  1  0
 11 12  1  0
 12 13  1  0
 13 14  2  0
 13 15  1  0
 15 16  1  0
 16 17  1  0
 17 18  2  0
 18 19  1  0
 19 20  2  0
 20 21  1  0
 21 22  3  0
 20 23  1  0
 23 24  2  0
 11 25  1  0
 25 26  2  0
 25 27  1  0
 27 28  1  0
 28 29  1  0
 29 30  1  0
 30 31  1  0
 31 32  1  0
 32 33  2  0
 32 34  1  0
 34 35  1  0
 35 36  1  0
 36 37  2  0
 37 38  1  0
 38 39  2  0
 39 40  1  0
 40 41  1  0
 40 42  2  0
 39 43  1  0
 43 44  2  0
  6 45  1  0
 45 46  2  0
 46 47  1  0
 46  3  1  0
 24 17  1  0
 31 27  1  0
 44 36  1  0
  1 48  1  0
  1 49  1  0
  1 50  1  0
  4 51  1  0
  5 52  1  0
 10 53  1  0
 11 54  1  1
 12 55  1  0
 12 56  1  0
 15 57  1  0
 16 58  1  0
 16 59  1  0
 18 60  1  0
 19 61  1  0
 23 62  1  0
 24 63  1  0
 28 64  1  0
 28 65  1  0
 29 66  1  0
 29 67  1  0
 30 68  1  0
 30 69  1  0
 31 70  1  1
 34 71  1  0
 35 72  1  0
 35 73  1  0
 37 74  1  0
 38 75  1  0
 41 76  1  0
 41 77  1  0
 42 78  1  0
 42 79  1  0
 43 80  1  0
 44 81  1  0
 45 82  1  0
M  CHG  1  42   1
M  END
>  <meeko>  (8) 
{"is_sidechain": [false], "free_energy": -9.037, "intermolecular_energy": -16.029, "internal_energy": -3.374}

$$$$
3utu_ligand
     RDKit          3D

 82 85  0  0  0  0  0  0  0  0999 V2000
   18.3670  -19.1340   29.4900 C   0  0  0  0  0  0  0  0  0  0  0  0
   17.4660  -18.9750   28.4040 O   0  0  0  0  0  0  0  0  0  0  0  0
   17.9770  -18.5750   27.1980 C   0  0  0  0  0  0  0  0  0  0  0  0
   19.2350  -17.9830   27.0260 C   0  0  0  0  0  0  0  0  0  0  0  0
   19.6780  -17.6110   25.7520 C   0  0  0  0  0  0  0  0  0  0  0  0
   18.8590  -17.8360   24.6450 C   0  0  0  0  0  0  0  0  0  0  0  0
   19.4120  -17.4100   23.0140 S   0  0  0  0  0  0  0  0  0  0  0  0
   18.5160  -18.0010   22.0440 O   0  0  0  0  0  0  0  0  0  0  0  0
   20.8370  -17.6370   22.9680 O   0  0  0  0  0  0  0  0  0  0  0  0
   19.1870  -15.7350   22.9960 N   0  0  0  0  0  0  0  0  0  0  0  0
   17.8250  -15.2360   23.3410 C   0  0  1  0  0  0  0  0  0  0  0  0
   17.8940  -14.3120   24.5610 C   0  0  0  0  0  0  0  0  0  0  0  0
   19.2880  -13.7430   24.7170 C   0  0  0  0  0  0  0  0  0  0  0  0
   19.8130  -13.0280   23.8690 O   0  0  0  0  0  0  0  0  0  0  0  0
   19.8970  -14.0890   25.9010 N   0  0  0  0  0  0  0  0  0  0  0  0
   21.1690  -13.5120   26.2860 C   0  0  0  0  0  0  0  0  0  0  0  0
   22.3010  -14.1350   25.5080 C   0  0  0  0  0  0  0  0  0  0  0  0
   22.5220  -15.5190   25.5490 C   0  0  0  0  0  0  0  0  0  0  0  0
   23.5900  -16.0860   24.8480 C   0  0  0  0  0  0  0  0  0  0  0  0
   24.4520  -15.2750   24.1020 C   0  0  0  0  0  0  0  0  0  0  0  0
   25.5500  -15.8580   23.3880 C   0  0  0  0  0  0  0  0  0  0  0  0
   26.4420  -16.3340   22.8190 N   0  0  0  0  0  0  0  0  0  0  0  0
   24.2420  -13.8950   24.0620 C   0  0  0  0  0  0  0  0  0  0  0  0
   23.1740  -13.3290   24.7640 C   0  0  0  0  0  0  0  0  0  0  0  0
   17.1020  -14.5260   22.1900 C   0  0  0  0  0  0  0  0  0  0  0  0
   17.2090  -13.2990   22.0800 O   0  0  0  0  0  0  0  0  0  0  0  0
   16.3710  -15.2570   21.2770 N   0  0  0  0  0  0  0  0  0  0  0  0
   15.5730  -16.4510   21.5230 C   0  0  0  0  0  0  0  0  0  0  0  0
   15.7180  -17.2570   20.2450 C   0  0  0  0  0  0  0  0  0  0  0  0
   15.7710  -16.1840   19.1720 C   0  0  0  0  0  0  0  0  0  0  0  0
   16.5410  -15.0310   19.8320 C   0  0  1  0  0  0  0  0  0  0  0  0
   15.9760  -13.7050   19.2880 C   0  0  0  0  0  0  0  0  0  0  0  0
   16.3740  -13.2340   18.2220 O   0  0  0  0  0  0  0  0  0  0  0  0
   14.9080  -13.1800   19.9820 N   0  0  0  0  0  0  0  0  0  0  0  0
   14.2530  -11.9640   19.5700 C   0  0  0  0  0  0  0  0  0  0  0  0
   13.5840  -11.2680   20.7310 C   0  0  0  0  0  0  0  0  0  0  0  0
   12.6320  -11.9480   21.5020 C   0  0  0  0  0  0  0  0  0  0  0  0
   11.9660  -11.3030   22.5440 C   0  0  0  0  0  0  0  0  0  0  0  0
   12.2430   -9.9610   22.8370 C   0  0  0  0  0  0  0  0  0  0  0  0
   11.5210   -9.2800   23.9150 C   0  0  0  0  0  0  0  0  0  0  0  0
   10.4500   -9.8450   24.4290 N   0  0  0  0  0  0  0  0  0  0  0  0
   11.9630   -8.1190   24.3440 N   0  0  0  0  0  0  0  0  0  0  0  0
   13.2020   -9.2800   22.0710 C   0  0  0  0  0  0  0  0  0  0  0  0
   13.8610   -9.9280   21.0240 C   0  0  0  0  0  0  0  0  0  0  0  0
   17.5910  -18.4000   24.7980 C   0  0  0  0  0  0  0  0  0  0  0  0
   17.1600  -18.7750   26.0700 C   0  0  0  0  0  0  0  0  0  0  0  0
   15.5980  -19.5030   26.2050 Cl  0  0  0  0  0  0  0  0  0  0  0  0
   17.8186  -19.0372   30.4386 H   0  0  0  0  0  0  0  0  0  0  0  0
   18.8341  -20.1285   29.4363 H   0  0  0  0  0  0  0  0  0  0  0  0
   19.1463  -18.3595   29.4363 H   0  0  0  0  0  0  0  0  0  0  0  0
   19.8800  -17.8091   27.8999 H   0  0  0  0  0  0  0  0  0  0  0  0
   20.6657  -17.1441   25.6239 H   0  0  0  0  0  0  0  0  0  0  0  0
   19.9410  -15.2840   23.5200 H   0  0  0  0  0  0  0  0  0  0  0  0
   17.2285  -16.1318   23.5683 H   0  0  0  0  0  0  0  0  0  0  0  0
   17.1786  -13.4866   24.4309 H   0  0  0  0  0  0  0  0  0  0  0  0
   17.6438  -14.8923   25.4614 H   0  0  0  0  0  0  0  0  0  0  0  0
   19.3540  -14.5380   26.6270 H   0  0  0  0  0  0  0  0  0  0  0  0
   21.1484  -12.4302   26.0876 H   0  0  0  0  0  0  0  0  0  0  0  0
   21.3317  -13.7036   27.3569 H   0  0  0  0  0  0  0  0  0  0  0  0
   21.8507  -16.1625   26.1365 H   0  0  0  0  0  0  0  0  0  0  0  0
   23.7533  -17.1733   24.8830 H   0  0  0  0  0  0  0  0  0  0  0  0
   24.9175  -13.2530   23.4777 H   0  0  0  0  0  0  0  0  0  0  0  0
   23.0170  -12.2407   24.7324 H   0  0  0  0  0  0  0  0  0  0  0  0
   15.9629  -17.0114   22.3855 H   0  0  0  0  0  0  0  0  0  0  0  0
   14.5245  -16.2187   21.7613 H   0  0  0  0  0  0  0  0  0  0  0  0
   16.6428  -17.8525   20.2553 H   0  0  0  0  0  0  0  0  0  0  0  0
   14.9051  -17.9826   20.0942 H   0  0  0  0  0  0  0  0  0  0  0  0
   16.3028  -16.5489   18.2809 H   0  0  0  0  0  0  0  0  0  0  0  0
   14.7709  -15.8812   18.8284 H   0  0  0  0  0  0  0  0  0  0  0  0
   17.6183  -14.9832   19.6147 H   0  0  0  0  0  0  0  0  0  0  0  0
   14.7720  -13.4800   20.9450 H   0  0  0  0  0  0  0  0  0  0  0  0
   15.0012  -11.2871   19.1319 H   0  0  0  0  0  0  0  0  0  0  0  0
   13.4780  -12.2248   18.8343 H   0  0  0  0  0  0  0  0  0  0  0  0
   12.4073  -13.0023   21.2831 H   0  0  0  0  0  0  0  0  0  0  0  0
   11.2198  -11.8504   23.1386 H   0  0  0  0  0  0  0  0  0  0  0  0
   10.1190  -10.7270   24.0490 H   0  0  0  0  0  0  0  0  0  0  0  0
    9.9090   -9.4180   25.1670 H   0  0  0  0  0  0  0  0  0  0  0  0
   12.8070   -7.7250   23.9340 H   0  0  0  0  0  0  0  0  0  0  0  0
   11.5120   -7.5960   25.0810 H   0  0  0  0  0  0  0  0  0  0  0  0
   13.4360   -8.2292   22.2968 H   0  0  0  0  0  0  0  0  0  0  0  0
   14.6037   -9.3807   20.4249 H   0  0  0  0  0  0  0  0  0  0  0  0
   16.9389  -18.5470   23.9244 H   0  0  0  0  0  0  0  0  0  0  0  0
  1  2  1  0
  2  3  1  0
  3  4  2  0
  4  5  1  0
  5  6  2  0
  6  7  1  0
  7  8  2  0
  7  9  2  0
  7 10  1  0
 10 11  1  0
 11 12  1  0
 12 13  1  0
 13 14  2  0
 13 15  1  0
 15 16  1  0
 16 17  1  0
 17 18  2  0
 18 19  1  0
 19 20  2  0
 20 21  1  0
 21 22  3  0
 20 23  1  0
 23 24  2  0
 11 25  1  0
 25 26  2  0
 25 27  1  0
 27 28  1  0
 28 29  1  0
 29 30  1  0
 30 31  1  0
 31 32  1  0
 32 33  2  0
 32 34  1  0
 34 35  1  0
 35 36  1  0
 36 37  2  0
 37 38  1  0
 38 39  2  0
 39 40  1  0
 40 41  1  0
 40 42  2  0
 39 43  1  0
 43 44  2  0
  6 45  1  0
 45 46  2  0
 46 47  1  0
 46  3  1  0
 24 17  1  0
 31 27  1  0
 44 36  1  0
  1 48  1  0
  1 49  1  0
  1 50  1  0
  4 51  1  0
  5 52  1  0
 10 53  1  0
 11 54  1  1
 12 55  1  0
 12 56  1  0
 15 57  1  0
 16 58  1  0
 16 59  1  0
 18 60  1  0
 19 61  1  0
 23 62  1  0
 24 63  1  0
 28 64  1  0
 28 65  1  0
 29 66  1  0
 29 67  1  0
 30 68  1  0
 30 69  1  0
 31 70  1  1
 34 71  1  0
 35 72  1  0
 35 73  1  0
 37 74  1  0
 38 75  1  0
 41 76  1  0
 41 77  1  0
 42 78  1  0
 42 79  1  0
 43 80  1  0
 44 81  1  0
 45 82  1  0
M  CHG  1  42   1
M  END
>  <meeko>  (9) 
{"is_sidechain": [false], "free_energy": -8.961, "intermolecular_energy": -16.334, "internal_energy": -2.93}

$$$$
