2vkm_ligand
     RDKit          3D

 90 93  0  0  0  0  0  0  0  0999 V2000
  -10.7600    2.2820   29.5490 C   0  0  0  0  0  0  0  0  0  0  0  0
   -9.5820    2.9640   29.9670 O   0  0  0  0  0  0  0  0  0  0  0  0
   -8.5940    2.2070   30.5310 C   0  0  0  0  0  0  0  0  0  0  0  0
   -7.2290    2.4820   30.5040 C   0  0  0  0  0  0  0  0  0  0  0  0
   -6.3280    1.6100   31.1190 C   0  0  0  0  0  0  0  0  0  0  0  0
   -6.7850    0.4580   31.7620 C   0  0  0  0  0  0  0  0  0  0  0  0
   -8.1550    0.1730   31.8050 C   0  0  0  0  0  0  0  0  0  0  0  0
   -8.6610   -1.0820   32.4500 C   0  0  0  0  0  0  0  0  0  0  0  0
   -7.6990   -2.1930   32.2580 N   0  0  0  0  0  0  0  0  0  0  0  0
   -7.0550   -2.7270   33.5040 C   0  0  0  0  0  0  0  0  0  0  0  0
   -5.5360   -2.6480   33.2910 C   0  0  1  0  0  0  0  0  0  0  0  0
   -4.9290   -2.4860   34.5880 O   0  0  0  0  0  0  0  0  0  0  0  0
   -4.9620   -3.8770   32.5320 C   0  0  2  0  0  0  0  0  0  0  0  0
   -4.8800   -5.1320   33.4360 C   0  0  0  0  0  0  0  0  0  0  0  0
   -3.9220   -6.1800   32.9160 C   0  0  0  0  0  0  0  0  0  0  0  0
   -4.1720   -6.8210   31.6940 C   0  0  0  0  0  0  0  0  0  0  0  0
   -3.3020   -7.8030   31.2190 C   0  0  0  0  0  0  0  0  0  0  0  0
   -2.1730   -8.1510   31.9560 C   0  0  0  0  0  0  0  0  0  0  0  0
   -1.9090   -7.5150   33.1670 C   0  0  0  0  0  0  0  0  0  0  0  0
   -2.7770   -6.5320   33.6460 C   0  0  0  0  0  0  0  0  0  0  0  0
   -3.6370   -3.5540   31.9760 N   0  0  0  0  0  0  0  0  0  0  0  0
   -3.4700   -3.4890   30.6030 C   0  0  0  0  0  0  0  0  0  0  0  0
   -4.4280   -3.5460   29.8370 O   0  0  0  0  0  0  0  0  0  0  0  0
   -2.0790   -3.3660   30.0800 C   0  0  0  0  0  0  0  0  0  0  0  0
   -1.0460   -4.2190   30.4840 C   0  0  0  0  0  0  0  0  0  0  0  0
    0.2500   -4.0590   29.9700 C   0  0  0  0  0  0  0  0  0  0  0  0
    1.3030   -4.9990   30.4440 C   0  0  0  0  0  0  0  0  0  0  0  0
    2.0990   -5.4620   29.6330 O   0  0  0  0  0  0  0  0  0  0  0  0
    1.3380   -5.2670   31.7920 N   0  0  0  0  0  0  0  0  0  0  0  0
    2.3660   -6.1170   32.3780 C   0  0  2  0  0  0  0  0  0  0  0  0
    1.7530   -7.2540   33.1990 C   0  0  0  0  0  0  0  0  0  0  0  0
    3.3180   -5.2590   33.1940 C   0  0  0  0  0  0  0  0  0  0  0  0
    2.8690   -4.4770   34.2710 C   0  0  0  0  0  0  0  0  0  0  0  0
    3.7590   -3.6760   34.9910 C   0  0  0  0  0  0  0  0  0  0  0  0
    5.1060   -3.6390   34.6380 C   0  0  0  0  0  0  0  0  0  0  0  0
    5.5640   -4.4010   33.5670 C   0  0  0  0  0  0  0  0  0  0  0  0
    4.6760   -5.2030   32.8470 C   0  0  0  0  0  0  0  0  0  0  0  0
    0.5210   -3.0190   29.0770 C   0  0  0  0  0  0  0  0  0  0  0  0
   -0.5030   -2.1520   28.6900 C   0  0  0  0  0  0  0  0  0  0  0  0
   -0.1690   -1.0860   27.7810 N   0  0  0  0  0  0  0  0  0  0  0  0
    1.2690   -0.7100   27.7610 C   0  0  0  0  0  0  0  0  0  0  0  0
   -0.8530   -1.2050   26.2060 S   0  0  0  0  0  0  0  0  0  0  0  0
    0.4190   -0.4560   25.2120 C   0  0  0  0  0  0  0  0  0  0  0  0
   -0.9000   -2.6090   25.8550 O   0  0  0  0  0  0  0  0  0  0  0  0
   -2.0440   -0.3850   26.1410 O   0  0  0  0  0  0  0  0  0  0  0  0
   -1.7990   -2.3300   29.1800 C   0  0  0  0  0  0  0  0  0  0  0  0
   -9.0500    1.0540   31.1780 C   0  0  0  0  0  0  0  0  0  0  0  0
  -11.3268    1.9538   30.4328 H   0  0  0  0  0  0  0  0  0  0  0  0
  -11.3816    2.9599   28.9457 H   0  0  0  0  0  0  0  0  0  0  0  0
  -10.4816    1.4054   28.9457 H   0  0  0  0  0  0  0  0  0  0  0  0
   -6.8604    3.3865   29.9980 H   0  0  0  0  0  0  0  0  0  0  0  0
   -5.2509    1.8323   31.0967 H   0  0  0  0  0  0  0  0  0  0  0  0
   -6.0669   -0.2273   32.2359 H   0  0  0  0  0  0  0  0  0  0  0  0
   -8.7980   -0.9048   33.5270 H   0  0  0  0  0  0  0  0  0  0  0  0
   -9.6185   -1.3582   31.9844 H   0  0  0  0  0  0  0  0  0  0  0  0
   -6.9260   -1.8860   31.6430 H   0  0  0  0  0  0  0  0  0  0  0  0
   -8.1510   -2.9560   31.7370 H   0  0  0  0  0  0  0  0  0  0  0  0
   -7.3474   -2.1175   34.3718 H   0  0  0  0  0  0  0  0  0  0  0  0
   -7.3718   -3.7624   33.6979 H   0  0  0  0  0  0  0  0  0  0  0  0
   -5.3025   -1.7898   32.6437 H   0  0  0  0  0  0  0  0  0  0  0  0
   -4.0770   -2.9700   34.5460 H   0  0  0  0  0  0  0  0  0  0  0  0
   -5.6529   -4.1136   31.7094 H   0  0  0  0  0  0  0  0  0  0  0  0
   -4.5473   -4.8204   34.4371 H   0  0  0  0  0  0  0  0  0  0  0  0
   -5.8816   -5.5862   33.4558 H   0  0  0  0  0  0  0  0  0  0  0  0
   -5.0604   -6.5476   31.1057 H   0  0  0  0  0  0  0  0  0  0  0  0
   -3.5083   -8.3029   30.2611 H   0  0  0  0  0  0  0  0  0  0  0  0
   -1.4898   -8.9278   31.5821 H   0  0  0  0  0  0  0  0  0  0  0  0
   -1.0150   -7.7878   33.7469 H   0  0  0  0  0  0  0  0  0  0  0  0
   -2.5618   -6.0307   34.6012 H   0  0  0  0  0  0  0  0  0  0  0  0
   -2.8360   -3.8900   32.5020 H   0  0  0  0  0  0  0  0  0  0  0  0
   -1.2511   -5.0202   31.2092 H   0  0  0  0  0  0  0  0  0  0  0  0
    0.8040   -4.7000   32.4360 H   0  0  0  0  0  0  0  0  0  0  0  0
    2.9399   -6.6020   31.5746 H   0  0  0  0  0  0  0  0  0  0  0  0
    1.8701   -7.0367   34.2709 H   0  0  0  0  0  0  0  0  0  0  0  0
    0.6836   -7.3450   32.9581 H   0  0  0  0  0  0  0  0  0  0  0  0
    2.2647   -8.1974   32.9581 H   0  0  0  0  0  0  0  0  0  0  0  0
    1.8053   -4.4954   34.5506 H   0  0  0  0  0  0  0  0  0  0  0  0
    3.3958   -3.0742   35.8371 H   0  0  0  0  0  0  0  0  0  0  0  0
    5.8068   -3.0085   35.2048 H   0  0  0  0  0  0  0  0  0  0  0  0
    6.6274   -4.3714   33.2872 H   0  0  0  0  0  0  0  0  0  0  0  0
    5.0455   -5.7974   31.9984 H   0  0  0  0  0  0  0  0  0  0  0  0
    1.5379   -2.8836   28.6800 H   0  0  0  0  0  0  0  0  0  0  0  0
    1.6372   -0.6137   28.7931 H   0  0  0  0  0  0  0  0  0  0  0  0
    1.8442   -1.4879   27.2376 H   0  0  0  0  0  0  0  0  0  0  0  0
    1.3898    0.2499   27.2376 H   0  0  0  0  0  0  0  0  0  0  0  0
    1.1802   -0.0078   25.8674 H   0  0  0  0  0  0  0  0  0  0  0  0
    0.8872   -1.2226   24.5771 H   0  0  0  0  0  0  0  0  0  0  0  0
   -0.0242    0.3253   24.5771 H   0  0  0  0  0  0  0  0  0  0  0  0
   -2.6038   -1.6530   28.8574 H   0  0  0  0  0  0  0  0  0  0  0  0
  -10.1276    0.8339   31.1958 H   0  0  0  0  0  0  0  0  0  0  0  0
  1  2  1  0
  2  3  1  0
  3  4  2  0
  4  5  1  0
  5  6  2  0
  6  7  1  0
  7  8  1  0
  8  9  1  0
  9 10  1  0
 10 11  1  0
 11 12  1  0
 11 13  1  0
 13 14  1  0
 14 15  1  0
 15 16  2  0
 16 17  1  0
 17 18  2  0
 18 19  1  0
 19 20  2  0
 13 21  1  0
 21 22  1  0
 22 23  2  0
 22 24  1  0
 24 25  2  0
 25 26  1  0
 26 27  1  0
 27 28  2  0
 27 29  1  0
 29 30  1  0
 30 31  1  0
 30 32  1  0
 32 33  2  0
 33 34  1  0
 34 35  2  0
 35 36  1  0
 36 37  2  0
 26 38  2  0
 38 39  1  0
 39 40  1  0
 40 41  1  0
 40 42  1  0
 42 43  1  0
 42 44  2  0
 42 45  2  0
 39 46  2  0
  7 47  2  0
 47  3  1  0
 20 15  1  0
 46 24  1  0
 37 32  1  0
  1 48  1  0
  1 49  1  0
  1 50  1  0
  4 51  1  0
  5 52  1  0
  6 53  1  0
  8 54  1  0
  8 55  1  0
  9 56  1  0
  9 57  1  0
 10 58  1  0
 10 59  1  0
 11 60  1  6
 12 61  1  0
 13 62  1  6
 14 63  1  0
 14 64  1  0
 16 65  1  0
 17 66  1  0
 18 67  1  0
 19 68  1  0
 20 69  1  0
 21 70  1  0
 25 71  1  0
 29 72  1  0
 30 73  1  6
 31 74  1  0
 31 75  1  0
 31 76  1  0
 33 77  1  0
 34 78  1  0
 35 79  1  0
 36 80  1  0
 37 81  1  0
 38 82  1  0
 41 83  1  0
 41 84  1  0
 41 85  1  0
 43 86  1  0
 43 87  1  0
 43 88  1  0
 46 89  1  0
 47 90  1  0
M  CHG  1   9   1
M  END
>  <meeko>  (1) 
{"is_sidechain": [false], "free_energy": -12.019, "intermolecular_energy": -22.909, "internal_energy": -2.705}

$$$$
2vkm_ligand
     RDKit          3D

 90 93  0  0  0  0  0  0  0  0999 V2000
  -14.4050   -0.6900   31.4160 C   0  0  0  0  0  0  0  0  0  0  0  0
  -13.5840   -1.8500   31.3380 O   0  0  0  0  0  0  0  0  0  0  0  0
  -12.5750   -1.9580   32.2540 C   0  0  0  0  0  0  0  0  0  0  0  0
  -12.7200   -1.9880   33.6390 C   0  0  0  0  0  0  0  0  0  0  0  0
  -11.5940   -2.0930   34.4570 C   0  0  0  0  0  0  0  0  0  0  0  0
  -10.3170   -2.1670   33.8980 C   0  0  0  0  0  0  0  0  0  0  0  0
  -10.1570   -2.1470   32.5070 C   0  0  0  0  0  0  0  0  0  0  0  0
   -8.7910   -2.1780   31.8890 C   0  0  0  0  0  0  0  0  0  0  0  0
   -7.7780   -1.6460   32.8300 N   0  0  0  0  0  0  0  0  0  0  0  0
   -6.3570   -1.6710   32.3510 C   0  0  0  0  0  0  0  0  0  0  0  0
   -5.5850   -2.6120   33.2860 C   0  0  1  0  0  0  0  0  0  0  0  0
   -6.4800   -2.9880   34.3510 O   0  0  0  0  0  0  0  0  0  0  0  0
   -5.0010   -3.8540   32.5560 C   0  0  2  0  0  0  0  0  0  0  0  0
   -4.9200   -5.0900   33.4850 C   0  0  0  0  0  0  0  0  0  0  0  0
   -3.9760   -6.1570   32.9790 C   0  0  0  0  0  0  0  0  0  0  0  0
   -2.8340   -6.4980   33.7170 C   0  0  0  0  0  0  0  0  0  0  0  0
   -1.9480   -7.4670   33.2450 C   0  0  0  0  0  0  0  0  0  0  0  0
   -2.1970   -8.1090   32.0340 C   0  0  0  0  0  0  0  0  0  0  0  0
   -3.3330   -7.7850   31.2960 C   0  0  0  0  0  0  0  0  0  0  0  0
   -4.2210   -6.8160   31.7650 C   0  0  0  0  0  0  0  0  0  0  0  0
   -3.6740   -3.5370   32.0020 N   0  0  0  0  0  0  0  0  0  0  0  0
   -3.5080   -3.4570   30.6290 C   0  0  0  0  0  0  0  0  0  0  0  0
   -4.4670   -3.4960   29.8640 O   0  0  0  0  0  0  0  0  0  0  0  0
   -2.1160   -3.3410   30.1070 C   0  0  0  0  0  0  0  0  0  0  0  0
   -1.0890   -4.2020   30.5070 C   0  0  0  0  0  0  0  0  0  0  0  0
    0.2080   -4.0480   29.9940 C   0  0  0  0  0  0  0  0  0  0  0  0
    1.2560   -4.9950   30.4650 C   0  0  0  0  0  0  0  0  0  0  0  0
    2.0650   -5.4400   29.6570 O   0  0  0  0  0  0  0  0  0  0  0  0
    1.2710   -5.2890   31.8080 N   0  0  0  0  0  0  0  0  0  0  0  0
    2.2920   -6.1490   32.3920 C   0  0  2  0  0  0  0  0  0  0  0  0
    1.6700   -7.2640   33.2380 C   0  0  0  0  0  0  0  0  0  0  0  0
    3.2690   -5.2970   33.1830 C   0  0  0  0  0  0  0  0  0  0  0  0
    2.8510   -4.5070   34.2670 C   0  0  0  0  0  0  0  0  0  0  0  0
    3.7640   -3.7110   34.9630 C   0  0  0  0  0  0  0  0  0  0  0  0
    5.1030   -3.6870   34.5810 C   0  0  0  0  0  0  0  0  0  0  0  0
    5.5310   -4.4570   33.5020 C   0  0  0  0  0  0  0  0  0  0  0  0
    4.6200   -5.2540   32.8050 C   0  0  0  0  0  0  0  0  0  0  0  0
    0.4850   -3.0070   29.1030 C   0  0  0  0  0  0  0  0  0  0  0  0
   -0.5340   -2.1330   28.7180 C   0  0  0  0  0  0  0  0  0  0  0  0
   -0.1940   -1.0670   27.8120 N   0  0  0  0  0  0  0  0  0  0  0  0
    1.2410   -0.6810   27.8130 C   0  0  0  0  0  0  0  0  0  0  0  0
   -0.8540   -1.1950   26.2270 S   0  0  0  0  0  0  0  0  0  0  0  0
    0.4300   -0.4450   25.2500 C   0  0  0  0  0  0  0  0  0  0  0  0
   -0.8910   -2.6010   25.8810 O   0  0  0  0  0  0  0  0  0  0  0  0
   -2.0470   -0.3790   26.1410 O   0  0  0  0  0  0  0  0  0  0  0  0
   -1.8310   -2.3040   29.2090 C   0  0  0  0  0  0  0  0  0  0  0  0
  -11.2960   -2.0340   31.6960 C   0  0  0  0  0  0  0  0  0  0  0  0
  -14.5837   -0.4376   32.4716 H   0  0  0  0  0  0  0  0  0  0  0  0
  -13.8998    0.1509   30.9183 H   0  0  0  0  0  0  0  0  0  0  0  0
  -15.3660   -0.8868   30.9183 H   0  0  0  0  0  0  0  0  0  0  0  0
  -13.7223   -1.9289   34.0883 H   0  0  0  0  0  0  0  0  0  0  0  0
  -11.7137   -2.1176   35.5502 H   0  0  0  0  0  0  0  0  0  0  0  0
   -9.4351   -2.2411   34.5512 H   0  0  0  0  0  0  0  0  0  0  0  0
   -8.5346   -3.2163   31.6317 H   0  0  0  0  0  0  0  0  0  0  0  0
   -8.7976   -1.5511   30.9851 H   0  0  0  0  0  0  0  0  0  0  0  0
   -7.7950   -2.1910   33.7100 H   0  0  0  0  0  0  0  0  0  0  0  0
   -8.0400   -0.6940   33.1180 H   0  0  0  0  0  0  0  0  0  0  0  0
   -6.3132   -2.0456   31.3177 H   0  0  0  0  0  0  0  0  0  0  0  0
   -5.9209   -0.6612   32.3627 H   0  0  0  0  0  0  0  0  0  0  0  0
   -4.7050   -2.0866   33.6855 H   0  0  0  0  0  0  0  0  0  0  0  0
   -6.6720   -2.1610   34.8430 H   0  0  0  0  0  0  0  0  0  0  0  0
   -5.6859   -4.1100   31.7341 H   0  0  0  0  0  0  0  0  0  0  0  0
   -4.5751   -4.7600   34.4760 H   0  0  0  0  0  0  0  0  0  0  0  0
   -5.9250   -5.5354   33.5233 H   0  0  0  0  0  0  0  0  0  0  0  0
   -2.6348   -5.9975   34.6761 H   0  0  0  0  0  0  0  0  0  0  0  0
   -1.0523   -7.7242   33.8295 H   0  0  0  0  0  0  0  0  0  0  0  0
   -1.4971   -8.8712   31.6609 H   0  0  0  0  0  0  0  0  0  0  0  0
   -3.5307   -8.2942   30.3412 H   0  0  0  0  0  0  0  0  0  0  0  0
   -5.1183   -6.5675   31.1793 H   0  0  0  0  0  0  0  0  0  0  0  0
   -2.8750   -3.8880   32.5230 H   0  0  0  0  0  0  0  0  0  0  0  0
   -1.2994   -5.0052   31.2285 H   0  0  0  0  0  0  0  0  0  0  0  0
    0.7260   -4.7370   32.4540 H   0  0  0  0  0  0  0  0  0  0  0  0
    2.8462   -6.6552   31.5879 H   0  0  0  0  0  0  0  0  0  0  0  0
    1.8002   -7.0307   34.3051 H   0  0  0  0  0  0  0  0  0  0  0  0
    0.5972   -7.3435   33.0083 H   0  0  0  0  0  0  0  0  0  0  0  0
    2.1659   -8.2186   33.0083 H   0  0  0  0  0  0  0  0  0  0  0  0
    1.7938   -4.5153   34.5708 H   0  0  0  0  0  0  0  0  0  0  0  0
    3.4247   -3.1022   35.8141 H   0  0  0  0  0  0  0  0  0  0  0  0
    5.8215   -3.0610   35.1305 H   0  0  0  0  0  0  0  0  0  0  0  0
    6.5881   -4.4374   33.1984 H   0  0  0  0  0  0  0  0  0  0  0  0
    4.9652   -5.8545   31.9505 H   0  0  0  0  0  0  0  0  0  0  0  0
    1.5027   -2.8766   28.7063 H   0  0  0  0  0  0  0  0  0  0  0  0
    1.5944   -0.5859   28.8503 H   0  0  0  0  0  0  0  0  0  0  0  0
    1.8287   -1.4530   27.2947 H   0  0  0  0  0  0  0  0  0  0  0  0
    1.3621    0.2817   27.2947 H   0  0  0  0  0  0  0  0  0  0  0  0
    1.1863   -0.0032   25.9154 H   0  0  0  0  0  0  0  0  0  0  0  0
    0.9017   -1.2096   24.6153 H   0  0  0  0  0  0  0  0  0  0  0  0
   -0.0043    0.3415   24.6153 H   0  0  0  0  0  0  0  0  0  0  0  0
   -2.6320   -1.6213   28.8890 H   0  0  0  0  0  0  0  0  0  0  0  0
  -11.1805   -2.0047   30.6025 H   0  0  0  0  0  0  0  0  0  0  0  0
  1  2  1  0
  2  3  1  0
  3  4  2  0
  4  5  1  0
  5  6  2  0
  6  7  1  0
  7  8  1  0
  8  9  1  0
  9 10  1  0
 10 11  1  0
 11 12  1  0
 11 13  1  0
 13 14  1  0
 14 15  1  0
 15 16  2  0
 16 17  1  0
 17 18  2  0
 18 19  1  0
 19 20  2  0
 13 21  1  0
 21 22  1  0
 22 23  2  0
 22 24  1  0
 24 25  2  0
 25 26  1  0
 26 27  1  0
 27 28  2  0
 27 29  1  0
 29 30  1  0
 30 31  1  0
 30 32  1  0
 32 33  2  0
 33 34  1  0
 34 35  2  0
 35 36  1  0
 36 37  2  0
 26 38  2  0
 38 39  1  0
 39 40  1  0
 40 41  1  0
 40 42  1  0
 42 43  1  0
 42 44  2  0
 42 45  2  0
 39 46  2  0
  7 47  2  0
 47  3  1  0
 20 15  1  0
 46 24  1  0
 37 32  1  0
  1 48  1  0
  1 49  1  0
  1 50  1  0
  4 51  1  0
  5 52  1  0
  6 53  1  0
  8 54  1  0
  8 55  1  0
  9 56  1  0
  9 57  1  0
 10 58  1  0
 10 59  1  0
 11 60  1  1
 12 61  1  0
 13 62  1  6
 14 63  1  0
 14 64  1  0
 16 65  1  0
 17 66  1  0
 18 67  1  0
 19 68  1  0
 20 69  1  0
 21 70  1  0
 25 71  1  0
 29 72  1  0
 30 73  1  6
 31 74  1  0
 31 75  1  0
 31 76  1  0
 33 77  1  0
 34 78  1  0
 35 79  1  0
 36 80  1  0
 37 81  1  0
 38 82  1  0
 41 83  1  0
 41 84  1  0
 41 85  1  0
 43 86  1  0
 43 87  1  0
 43 88  1  0
 46 89  1  0
 47 90  1  0
M  CHG  1   9   1
M  END
>  <meeko>  (2) 
{"is_sidechain": [false], "free_energy": -11.971, "intermolecular_energy": -22.859, "internal_energy": -2.664}

$$$$
2vkm_ligand
     RDKit          3D

 90 93  0  0  0  0  0  0  0  0999 V2000
  -10.7370   -1.9550   27.6540 C   0  0  0  0  0  0  0  0  0  0  0  0
   -9.9010   -1.0860   28.4110 O   0  0  0  0  0  0  0  0  0  0  0  0
   -9.9380   -1.2180   29.7700 C   0  0  0  0  0  0  0  0  0  0  0  0
  -10.8590   -1.9670   30.5000 C   0  0  0  0  0  0  0  0  0  0  0  0
  -10.7810   -2.0040   31.8940 C   0  0  0  0  0  0  0  0  0  0  0  0
   -9.7850   -1.2940   32.5660 C   0  0  0  0  0  0  0  0  0  0  0  0
   -8.8480   -0.5440   31.8450 C   0  0  0  0  0  0  0  0  0  0  0  0
   -7.8000    0.2630   32.5520 C   0  0  0  0  0  0  0  0  0  0  0  0
   -6.8470   -0.6230   33.2610 N   0  0  0  0  0  0  0  0  0  0  0  0
   -6.0830   -1.5870   32.4030 C   0  0  0  0  0  0  0  0  0  0  0  0
   -5.4760   -2.6390   33.3420 C   0  0  1  0  0  0  0  0  0  0  0  0
   -6.4980   -3.0110   34.2870 O   0  0  0  0  0  0  0  0  0  0  0  0
   -4.9070   -3.8740   32.5880 C   0  0  2  0  0  0  0  0  0  0  0  0
   -4.8160   -5.1210   33.5020 C   0  0  0  0  0  0  0  0  0  0  0  0
   -3.9150   -6.2020   32.9470 C   0  0  0  0  0  0  0  0  0  0  0  0
   -2.8180   -6.6570   33.6920 C   0  0  0  0  0  0  0  0  0  0  0  0
   -1.9700   -7.6390   33.1780 C   0  0  0  0  0  0  0  0  0  0  0  0
   -2.2150   -8.1810   31.9180 C   0  0  0  0  0  0  0  0  0  0  0  0
   -3.3070   -7.7430   31.1720 C   0  0  0  0  0  0  0  0  0  0  0  0
   -4.1560   -6.7600   31.6830 C   0  0  0  0  0  0  0  0  0  0  0  0
   -3.5880   -3.5540   32.0180 N   0  0  0  0  0  0  0  0  0  0  0  0
   -3.4450   -3.4410   30.6450 C   0  0  0  0  0  0  0  0  0  0  0  0
   -4.4180   -3.4540   29.8970 O   0  0  0  0  0  0  0  0  0  0  0  0
   -2.0620   -3.3240   30.1000 C   0  0  0  0  0  0  0  0  0  0  0  0
   -1.0250   -4.1780   30.4910 C   0  0  0  0  0  0  0  0  0  0  0  0
    0.2630   -4.0230   29.9560 C   0  0  0  0  0  0  0  0  0  0  0  0
    1.3220   -4.9620   30.4180 C   0  0  0  0  0  0  0  0  0  0  0  0
    2.1250   -5.4030   29.6020 O   0  0  0  0  0  0  0  0  0  0  0  0
    1.3530   -5.2540   31.7610 N   0  0  0  0  0  0  0  0  0  0  0  0
    2.3850   -6.1060   32.3360 C   0  0  2  0  0  0  0  0  0  0  0  0
    1.7800   -7.2190   33.1960 C   0  0  0  0  0  0  0  0  0  0  0  0
    3.3700   -5.2450   33.1090 C   0  0  0  0  0  0  0  0  0  0  0  0
    4.7380   -5.2230   32.7930 C   0  0  0  0  0  0  0  0  0  0  0  0
    5.6290   -4.4440   33.5350 C   0  0  0  0  0  0  0  0  0  0  0  0
    5.1660   -3.6840   34.6070 C   0  0  0  0  0  0  0  0  0  0  0  0
    3.8130   -3.7040   34.9390 C   0  0  0  0  0  0  0  0  0  0  0  0
    2.9210   -4.4820   34.1980 C   0  0  0  0  0  0  0  0  0  0  0  0
    0.5220   -2.9860   29.0540 C   0  0  0  0  0  0  0  0  0  0  0  0
   -0.5060   -2.1190   28.6790 C   0  0  0  0  0  0  0  0  0  0  0  0
   -0.1850   -1.0590   27.7600 N   0  0  0  0  0  0  0  0  0  0  0  0
    1.2480   -0.6640   27.7390 C   0  0  0  0  0  0  0  0  0  0  0  0
   -0.8650   -1.2030   26.1860 S   0  0  0  0  0  0  0  0  0  0  0  0
    0.4140   -0.4760   25.1830 C   0  0  0  0  0  0  0  0  0  0  0  0
   -0.9160   -2.6130   25.8590 O   0  0  0  0  0  0  0  0  0  0  0  0
   -2.0520   -0.3790   26.1020 O   0  0  0  0  0  0  0  0  0  0  0  0
   -1.7950   -2.2930   29.1910 C   0  0  0  0  0  0  0  0  0  0  0  0
   -8.9400   -0.5090   30.4450 C   0  0  0  0  0  0  0  0  0  0  0  0
  -11.3346   -2.5762   28.3374 H   0  0  0  0  0  0  0  0  0  0  0  0
  -11.4084   -1.3574   27.0199 H   0  0  0  0  0  0  0  0  0  0  0  0
  -10.1139   -2.6028   27.0199 H   0  0  0  0  0  0  0  0  0  0  0  0
  -11.6475   -2.5291   29.9782 H   0  0  0  0  0  0  0  0  0  0  0  0
  -11.5097   -2.5969   32.4662 H   0  0  0  0  0  0  0  0  0  0  0  0
   -9.7360   -1.3237   33.6645 H   0  0  0  0  0  0  0  0  0  0  0  0
   -7.2512    0.8674   31.8148 H   0  0  0  0  0  0  0  0  0  0  0  0
   -8.2925    0.9146   33.2888 H   0  0  0  0  0  0  0  0  0  0  0  0
   -7.3530   -1.1960   33.9590 H   0  0  0  0  0  0  0  0  0  0  0  0
   -6.1990   -0.0550   33.8220 H   0  0  0  0  0  0  0  0  0  0  0  0
   -6.7595   -2.0694   31.6821 H   0  0  0  0  0  0  0  0  0  0  0  0
   -5.2974   -1.0687   31.8336 H   0  0  0  0  0  0  0  0  0  0  0  0
   -4.6072   -2.2071   33.8603 H   0  0  0  0  0  0  0  0  0  0  0  0
   -6.0320   -3.1780   35.1340 H   0  0  0  0  0  0  0  0  0  0  0  0
   -5.6044   -4.1186   31.7733 H   0  0  0  0  0  0  0  0  0  0  0  0
   -4.4250   -4.8087   34.4816 H   0  0  0  0  0  0  0  0  0  0  0  0
   -5.8279   -5.5456   33.5774 H   0  0  0  0  0  0  0  0  0  0  0  0
   -2.6241   -6.2366   34.6898 H   0  0  0  0  0  0  0  0  0  0  0  0
   -1.1082   -7.9851   33.7676 H   0  0  0  0  0  0  0  0  0  0  0  0
   -1.5463   -8.9546   31.5124 H   0  0  0  0  0  0  0  0  0  0  0  0
   -3.5006   -8.1728   30.1781 H   0  0  0  0  0  0  0  0  0  0  0  0
   -5.0190   -6.4210   31.0910 H   0  0  0  0  0  0  0  0  0  0  0  0
   -2.7820   -3.9230   32.5160 H   0  0  0  0  0  0  0  0  0  0  0  0
   -1.2206   -4.9760   31.2224 H   0  0  0  0  0  0  0  0  0  0  0  0
    0.8110   -4.7040   32.4120 H   0  0  0  0  0  0  0  0  0  0  0  0
    2.9303   -6.6144   31.5272 H   0  0  0  0  0  0  0  0  0  0  0  0
    1.9133   -6.9737   34.2600 H   0  0  0  0  0  0  0  0  0  0  0  0
    0.7069   -7.3125   32.9729 H   0  0  0  0  0  0  0  0  0  0  0  0
    2.2851   -8.1704   32.9729 H   0  0  0  0  0  0  0  0  0  0  0  0
    5.1120   -5.8256   31.9522 H   0  0  0  0  0  0  0  0  0  0  0  0
    6.6972   -4.4306   33.2727 H   0  0  0  0  0  0  0  0  0  0  0  0
    5.8674   -3.0693   35.1902 H   0  0  0  0  0  0  0  0  0  0  0  0
    3.4468   -3.1058   35.7864 H   0  0  0  0  0  0  0  0  0  0  0  0
    1.8554   -4.4970   34.4707 H   0  0  0  0  0  0  0  0  0  0  0  0
    1.5330   -2.8539   28.6411 H   0  0  0  0  0  0  0  0  0  0  0  0
    1.6156   -0.5627   28.7708 H   0  0  0  0  0  0  0  0  0  0  0  0
    1.8331   -1.4344   27.2153 H   0  0  0  0  0  0  0  0  0  0  0  0
    1.3557    0.2973   27.2153 H   0  0  0  0  0  0  0  0  0  0  0  0
    1.1853   -0.0376   25.8334 H   0  0  0  0  0  0  0  0  0  0  0  0
    0.8673   -1.2515   24.5480 H   0  0  0  0  0  0  0  0  0  0  0  0
   -0.0204    0.3102   24.5480 H   0  0  0  0  0  0  0  0  0  0  0  0
   -2.6039   -1.6164   28.8781 H   0  0  0  0  0  0  0  0  0  0  0  0
   -8.2153    0.0858   29.8697 H   0  0  0  0  0  0  0  0  0  0  0  0
  1  2  1  0
  2  3  1  0
  3  4  2  0
  4  5  1  0
  5  6  2  0
  6  7  1  0
  7  8  1  0
  8  9  1  0
  9 10  1  0
 10 11  1  0
 11 12  1  0
 11 13  1  0
 13 14  1  0
 14 15  1  0
 15 16  2  0
 16 17  1  0
 17 18  2  0
 18 19  1  0
 19 20  2  0
 13 21  1  0
 21 22  1  0
 22 23  2  0
 22 24  1  0
 24 25  2  0
 25 26  1  0
 26 27  1  0
 27 28  2  0
 27 29  1  0
 29 30  1  0
 30 31  1  0
 30 32  1  0
 32 33  2  0
 33 34  1  0
 34 35  2  0
 35 36  1  0
 36 37  2  0
 26 38  2  0
 38 39  1  0
 39 40  1  0
 40 41  1  0
 40 42  1  0
 42 43  1  0
 42 44  2  0
 42 45  2  0
 39 46  2  0
  7 47  2  0
 47  3  1  0
 20 15  1  0
 46 24  1  0
 37 32  1  0
  1 48  1  0
  1 49  1  0
  1 50  1  0
  4 51  1  0
  5 52  1  0
  6 53  1  0
  8 54  1  0
  8 55  1  0
  9 56  1  0
  9 57  1  0
 10 58  1  0
 10 59  1  0
 11 60  1  1
 12 61  1  0
 13 62  1  6
 14 63  1  0
 14 64  1  0
 16 65  1  0
 17 66  1  0
 18 67  1  0
 19 68  1  0
 20 69  1  0
 21 70  1  0
 25 71  1  0
 29 72  1  0
 30 73  1  6
 31 74  1  0
 31 75  1  0
 31 76  1  0
 33 77  1  0
 34 78  1  0
 35 79  1  0
 36 80  1  0
 37 81  1  0
 38 82  1  0
 41 83  1  0
 41 84  1  0
 41 85  1  0
 43 86  1  0
 43 87  1  0
 43 88  1  0
 46 89  1  0
 47 90  1  0
M  CHG  1   9   1
M  END
>  <meeko>  (3) 
{"is_sidechain": [false], "free_energy": -11.769, "intermolecular_energy": -22.44, "internal_energy": -2.698}

$$$$
2vkm_ligand
     RDKit          3D

 90 93  0  0  0  0  0  0  0  0999 V2000
    1.0640    0.1030   24.6160 C   0  0  0  0  0  0  0  0  0  0  0  0
    1.1920    0.4300   25.9960 O   0  0  0  0  0  0  0  0  0  0  0  0
    0.8880   -0.5500   26.8970 C   0  0  0  0  0  0  0  0  0  0  0  0
    1.7970   -1.3810   27.5470 C   0  0  0  0  0  0  0  0  0  0  0  0
    1.3410   -2.3520   28.4430 C   0  0  0  0  0  0  0  0  0  0  0  0
   -0.0250   -2.4990   28.6900 C   0  0  0  0  0  0  0  0  0  0  0  0
   -0.9500   -1.6650   28.0500 C   0  0  0  0  0  0  0  0  0  0  0  0
   -2.4240   -1.8390   28.2680 C   0  0  0  0  0  0  0  0  0  0  0  0
   -2.6990   -2.2670   29.6590 N   0  0  0  0  0  0  0  0  0  0  0  0
   -3.8360   -3.2310   29.8370 C   0  0  0  0  0  0  0  0  0  0  0  0
   -3.4130   -4.2260   30.9260 C   0  0  1  0  0  0  0  0  0  0  0  0
   -2.0090   -4.0210   31.1730 O   0  0  0  0  0  0  0  0  0  0  0  0
   -4.2540   -4.0990   32.2280 C   0  0  2  0  0  0  0  0  0  0  0  0
   -4.5570   -5.4790   32.8610 C   0  0  0  0  0  0  0  0  0  0  0  0
   -3.5450   -6.5400   32.4910 C   0  0  0  0  0  0  0  0  0  0  0  0
   -2.4150   -6.7480   33.2940 C   0  0  0  0  0  0  0  0  0  0  0  0
   -1.4660   -7.7110   32.9480 C   0  0  0  0  0  0  0  0  0  0  0  0
   -1.6410   -8.4800   31.7990 C   0  0  0  0  0  0  0  0  0  0  0  0
   -2.7640   -8.2890   30.9980 C   0  0  0  0  0  0  0  0  0  0  0  0
   -3.7140   -7.3260   31.3420 C   0  0  0  0  0  0  0  0  0  0  0  0
   -5.5050   -3.3720   31.9510 N   0  0  0  0  0  0  0  0  0  0  0  0
   -6.1570   -2.7180   32.9840 C   0  0  0  0  0  0  0  0  0  0  0  0
   -5.6450   -2.6010   34.0930 O   0  0  0  0  0  0  0  0  0  0  0  0
   -7.5180   -2.1750   32.7080 C   0  0  0  0  0  0  0  0  0  0  0  0
   -7.7490   -1.1710   31.7610 C   0  0  0  0  0  0  0  0  0  0  0  0
   -9.0480   -0.6860   31.5420 C   0  0  0  0  0  0  0  0  0  0  0  0
   -9.2240    0.3850   30.5230 C   0  0  0  0  0  0  0  0  0  0  0  0
   -8.2470    1.0390   30.1710 O   0  0  0  0  0  0  0  0  0  0  0  0
  -10.4870    0.5540   30.0080 N   0  0  0  0  0  0  0  0  0  0  0  0
  -10.7620    1.5250   28.9570 C   0  0  2  0  0  0  0  0  0  0  0  0
  -11.9540    2.4180   29.3150 C   0  0  0  0  0  0  0  0  0  0  0  0
  -10.9600    0.7930   27.6400 C   0  0  0  0  0  0  0  0  0  0  0  0
  -12.2400    0.5330   27.1250 C   0  0  0  0  0  0  0  0  0  0  0  0
  -12.3980   -0.1650   25.9260 C   0  0  0  0  0  0  0  0  0  0  0  0
  -11.2790   -0.6190   25.2300 C   0  0  0  0  0  0  0  0  0  0  0  0
  -10.0040   -0.3770   25.7330 C   0  0  0  0  0  0  0  0  0  0  0  0
   -9.8440    0.3210   26.9320 C   0  0  0  0  0  0  0  0  0  0  0  0
  -10.1140   -1.1820   32.2990 C   0  0  0  0  0  0  0  0  0  0  0  0
   -9.8820   -2.1680   33.2600 C   0  0  0  0  0  0  0  0  0  0  0  0
  -11.0090   -2.6340   34.0250 N   0  0  0  0  0  0  0  0  0  0  0  0
  -12.0610   -1.6140   34.2700 C   0  0  0  0  0  0  0  0  0  0  0  0
  -11.6500   -4.1610   33.5560 S   0  0  0  0  0  0  0  0  0  0  0  0
  -13.3320   -3.7290   33.1620 C   0  0  0  0  0  0  0  0  0  0  0  0
  -11.0050   -4.5440   32.3180 O   0  0  0  0  0  0  0  0  0  0  0  0
  -11.6500   -5.0490   34.6980 O   0  0  0  0  0  0  0  0  0  0  0  0
   -8.5930   -2.6700   33.4570 C   0  0  0  0  0  0  0  0  0  0  0  0
   -0.4790   -0.6980   27.1480 C   0  0  0  0  0  0  0  0  0  0  0  0
    0.6647   -0.9171   24.5164 H   0  0  0  0  0  0  0  0  0  0  0  0
    0.3779    0.8141   24.1328 H   0  0  0  0  0  0  0  0  0  0  0  0
    2.0506    0.1594   24.1328 H   0  0  0  0  0  0  0  0  0  0  0  0
    2.8748   -1.2731   27.3551 H   0  0  0  0  0  0  0  0  0  0  0  0
    2.0628   -3.0042   28.9565 H   0  0  0  0  0  0  0  0  0  0  0  0
   -0.3758   -3.2722   29.3894 H   0  0  0  0  0  0  0  0  0  0  0  0
   -2.9329   -0.8827   28.0768 H   0  0  0  0  0  0  0  0  0  0  0  0
   -2.7952   -2.6123   27.5794 H   0  0  0  0  0  0  0  0  0  0  0  0
   -2.9270   -1.4430   30.2420 H   0  0  0  0  0  0  0  0  0  0  0  0
   -1.8420   -2.6480   30.0800 H   0  0  0  0  0  0  0  0  0  0  0  0
   -4.7429   -2.6923   30.1489 H   0  0  0  0  0  0  0  0  0  0  0  0
   -4.0607   -3.7519   28.8946 H   0  0  0  0  0  0  0  0  0  0  0  0
   -3.5992   -5.2515   30.5745 H   0  0  0  0  0  0  0  0  0  0  0  0
   -1.9490   -3.2100   31.7210 H   0  0  0  0  0  0  0  0  0  0  0  0
   -3.6574   -3.5315   32.9574 H   0  0  0  0  0  0  0  0  0  0  0  0
   -4.5626   -5.3679   33.9554 H   0  0  0  0  0  0  0  0  0  0  0  0
   -5.5324   -5.8088   32.4738 H   0  0  0  0  0  0  0  0  0  0  0  0
   -2.2751   -6.1470   34.2046 H   0  0  0  0  0  0  0  0  0  0  0  0
   -0.5801   -7.8630   33.5821 H   0  0  0  0  0  0  0  0  0  0  0  0
   -0.8922   -9.2377   31.5249 H   0  0  0  0  0  0  0  0  0  0  0  0
   -2.9026   -8.8981   30.0926 H   0  0  0  0  0  0  0  0  0  0  0  0
   -4.6011   -7.1827   30.7076 H   0  0  0  0  0  0  0  0  0  0  0  0
   -6.1040   -3.7680   31.2320 H   0  0  0  0  0  0  0  0  0  0  0  0
   -6.9074   -0.7593   31.1846 H   0  0  0  0  0  0  0  0  0  0  0  0
  -11.1980   -0.1430   30.1720 H   0  0  0  0  0  0  0  0  0  0  0  0
   -9.9008    2.2012   28.8512 H   0  0  0  0  0  0  0  0  0  0  0  0
  -12.0453    2.4864   30.4091 H   0  0  0  0  0  0  0  0  0  0  0  0
  -11.7978    3.4232   28.8965 H   0  0  0  0  0  0  0  0  0  0  0  0
  -12.8748    1.9856   28.8965 H   0  0  0  0  0  0  0  0  0  0  0  0
  -13.1279    0.8829   27.6719 H   0  0  0  0  0  0  0  0  0  0  0  0
  -13.4064   -0.3567   25.5304 H   0  0  0  0  0  0  0  0  0  0  0  0
  -11.4033   -1.1677   24.2847 H   0  0  0  0  0  0  0  0  0  0  0  0
   -9.1205   -0.7363   25.1850 H   0  0  0  0  0  0  0  0  0  0  0  0
   -8.8330    0.5027   27.3254 H   0  0  0  0  0  0  0  0  0  0  0  0
  -11.1317   -0.7968   32.1380 H   0  0  0  0  0  0  0  0  0  0  0  0
  -12.1978   -1.4813   35.3534 H   0  0  0  0  0  0  0  0  0  0  0  0
  -11.7568   -0.6579   33.8190 H   0  0  0  0  0  0  0  0  0  0  0  0
  -13.0072   -1.9475   33.8190 H   0  0  0  0  0  0  0  0  0  0  0  0
  -13.9006   -3.5830   34.0923 H   0  0  0  0  0  0  0  0  0  0  0  0
  -13.3438   -2.7987   32.5752 H   0  0  0  0  0  0  0  0  0  0  0  0
  -13.7906   -4.5385   32.5752 H   0  0  0  0  0  0  0  0  0  0  0  0
   -8.4215   -3.4585   34.2046 H   0  0  0  0  0  0  0  0  0  0  0  0
   -1.1977   -0.0459   26.6301 H   0  0  0  0  0  0  0  0  0  0  0  0
  1  2  1  0
  2  3  1  0
  3  4  2  0
  4  5  1  0
  5  6  2  0
  6  7  1  0
  7  8  1  0
  8  9  1  0
  9 10  1  0
 10 11  1  0
 11 12  1  0
 11 13  1  0
 13 14  1  0
 14 15  1  0
 15 16  2  0
 16 17  1  0
 17 18  2  0
 18 19  1  0
 19 20  2  0
 13 21  1  0
 21 22  1  0
 22 23  2  0
 22 24  1  0
 24 25  2  0
 25 26  1  0
 26 27  1  0
 27 28  2  0
 27 29  1  0
 29 30  1  0
 30 31  1  0
 30 32  1  0
 32 33  2  0
 33 34  1  0
 34 35  2  0
 35 36  1  0
 36 37  2  0
 26 38  2  0
 38 39  1  0
 39 40  1  0
 40 41  1  0
 40 42  1  0
 42 43  1  0
 42 44  2  0
 42 45  2  0
 39 46  2  0
  7 47  2  0
 47  3  1  0
 20 15  1  0
 46 24  1  0
 37 32  1  0
  1 48  1  0
  1 49  1  0
  1 50  1  0
  4 51  1  0
  5 52  1  0
  6 53  1  0
  8 54  1  0
  8 55  1  0
  9 56  1  0
  9 57  1  0
 10 58  1  0
 10 59  1  0
 11 60  1  6
 12 61  1  0
 13 62  1  1
 14 63  1  0
 14 64  1  0
 16 65  1  0
 17 66  1  0
 18 67  1  0
 19 68  1  0
 20 69  1  0
 21 70  1  0
 25 71  1  0
 29 72  1  0
 30 73  1  6
 31 74  1  0
 31 75  1  0
 31 76  1  0
 33 77  1  0
 34 78  1  0
 35 79  1  0
 36 80  1  0
 37 81  1  0
 38 82  1  0
 41 83  1  0
 41 84  1  0
 41 85  1  0
 43 86  1  0
 43 87  1  0
 43 88  1  0
 46 89  1  0
 47 90  1  0
M  CHG  1   9   1
M  END
>  <meeko>  (4) 
{"is_sidechain": [false], "free_energy": -9.606, "intermolecular_energy": -19.448, "internal_energy": -1.568}

$$$$
2vkm_ligand
     RDKit          3D

 90 93  0  0  0  0  0  0  0  0999 V2000
  -13.5340   -1.0700   30.2260 C   0  0  0  0  0  0  0  0  0  0  0  0
  -13.2850   -2.2860   30.9230 O   0  0  0  0  0  0  0  0  0  0  0  0
  -12.3980   -2.2350   31.9610 C   0  0  0  0  0  0  0  0  0  0  0  0
  -12.7090   -2.3360   33.3150 C   0  0  0  0  0  0  0  0  0  0  0  0
  -11.6950   -2.2580   34.2720 C   0  0  0  0  0  0  0  0  0  0  0  0
  -10.3670   -2.0760   33.8830 C   0  0  0  0  0  0  0  0  0  0  0  0
  -10.0390   -1.9810   32.5250 C   0  0  0  0  0  0  0  0  0  0  0  0
   -8.6240   -1.7380   32.0900 C   0  0  0  0  0  0  0  0  0  0  0  0
   -7.8190   -1.1920   33.2080 N   0  0  0  0  0  0  0  0  0  0  0  0
   -6.4840   -1.8380   33.4330 C   0  0  0  0  0  0  0  0  0  0  0  0
   -5.8430   -2.0340   32.0520 C   0  0  1  0  0  0  0  0  0  0  0  0
   -4.9060   -0.9570   31.8560 O   0  0  0  0  0  0  0  0  0  0  0  0
   -5.1680   -3.4250   31.8850 C   0  0  2  0  0  0  0  0  0  0  0  0
   -5.2740   -4.2800   33.1720 C   0  0  0  0  0  0  0  0  0  0  0  0
   -4.3870   -5.5040   33.1500 C   0  0  0  0  0  0  0  0  0  0  0  0
   -3.5060   -5.7570   34.2100 C   0  0  0  0  0  0  0  0  0  0  0  0
   -2.6700   -6.8740   34.1860 C   0  0  0  0  0  0  0  0  0  0  0  0
   -2.7100   -7.7520   33.1060 C   0  0  0  0  0  0  0  0  0  0  0  0
   -3.5880   -7.5170   32.0500 C   0  0  0  0  0  0  0  0  0  0  0  0
   -4.4250   -6.4000   32.0710 C   0  0  0  0  0  0  0  0  0  0  0  0
   -3.7600   -3.2590   31.4900 N   0  0  0  0  0  0  0  0  0  0  0  0
   -3.4220   -3.2550   30.1470 C   0  0  0  0  0  0  0  0  0  0  0  0
   -4.2820   -3.2370   29.2700 O   0  0  0  0  0  0  0  0  0  0  0  0
   -1.9740   -3.2940   29.7970 C   0  0  0  0  0  0  0  0  0  0  0  0
   -1.0970   -4.2460   30.3290 C   0  0  0  0  0  0  0  0  0  0  0  0
    0.2610   -4.2380   29.9760 C   0  0  0  0  0  0  0  0  0  0  0  0
    1.1400   -5.2760   30.5820 C   0  0  0  0  0  0  0  0  0  0  0  0
    0.7980   -5.8070   31.6340 O   0  0  0  0  0  0  0  0  0  0  0  0
    2.2830   -5.6040   29.8930 N   0  0  0  0  0  0  0  0  0  0  0  0
    3.1820   -6.6530   30.3560 C   0  0  2  0  0  0  0  0  0  0  0  0
    3.7430   -6.3390   31.7460 C   0  0  0  0  0  0  0  0  0  0  0  0
    4.2760   -6.8650   29.3230 C   0  0  0  0  0  0  0  0  0  0  0  0
    4.1560   -7.8270   28.3070 C   0  0  0  0  0  0  0  0  0  0  0  0
    5.1860   -8.0220   27.3840 C   0  0  0  0  0  0  0  0  0  0  0  0
    6.3520   -7.2640   27.4690 C   0  0  0  0  0  0  0  0  0  0  0  0
    6.4900   -6.3130   28.4770 C   0  0  0  0  0  0  0  0  0  0  0  0
    5.4610   -6.1160   29.4000 C   0  0  0  0  0  0  0  0  0  0  0  0
    0.7510   -3.2510   29.1150 C   0  0  0  0  0  0  0  0  0  0  0  0
   -0.1180   -2.2870   28.6000 C   0  0  0  0  0  0  0  0  0  0  0  0
    0.4380   -1.2820   27.7310 N   0  0  0  0  0  0  0  0  0  0  0  0
    1.8890   -1.0240   27.9240 C   0  0  0  0  0  0  0  0  0  0  0  0
   -0.0090   -1.3990   26.0730 S   0  0  0  0  0  0  0  0  0  0  0  0
    0.9780   -0.1050   25.3510 C   0  0  0  0  0  0  0  0  0  0  0  0
    0.5000   -2.6570   25.5700 O   0  0  0  0  0  0  0  0  0  0  0  0
   -1.4080   -1.0560   25.9320 O   0  0  0  0  0  0  0  0  0  0  0  0
   -1.4750   -2.3130   28.9310 C   0  0  0  0  0  0  0  0  0  0  0  0
  -11.0670   -2.0550   31.5730 C   0  0  0  0  0  0  0  0  0  0  0  0
  -13.7000   -0.2593   30.9507 H   0  0  0  0  0  0  0  0  0  0  0  0
  -12.6673   -0.8253   29.5943 H   0  0  0  0  0  0  0  0  0  0  0  0
  -14.4271   -1.1857   29.5943 H   0  0  0  0  0  0  0  0  0  0  0  0
  -13.7533   -2.4772   33.6304 H   0  0  0  0  0  0  0  0  0  0  0  0
  -11.9447   -2.3406   35.3401 H   0  0  0  0  0  0  0  0  0  0  0  0
   -9.5764   -2.0071   34.6447 H   0  0  0  0  0  0  0  0  0  0  0  0
   -8.1807   -2.6877   31.7559 H   0  0  0  0  0  0  0  0  0  0  0  0
   -8.6273   -1.0081   31.2670 H   0  0  0  0  0  0  0  0  0  0  0  0
   -8.3400   -1.2910   34.0970 H   0  0  0  0  0  0  0  0  0  0  0  0
   -7.7080   -0.1770   33.0900 H   0  0  0  0  0  0  0  0  0  0  0  0
   -5.8502   -1.1891   34.0552 H   0  0  0  0  0  0  0  0  0  0  0  0
   -6.5958   -2.8001   33.9545 H   0  0  0  0  0  0  0  0  0  0  0  0
   -6.6268   -2.0112   31.2806 H   0  0  0  0  0  0  0  0  0  0  0  0
   -5.1240   -0.2860   32.5370 H   0  0  0  0  0  0  0  0  0  0  0  0
   -5.7060   -3.9642   31.0914 H   0  0  0  0  0  0  0  0  0  0  0  0
   -4.9866   -3.6557   34.0309 H   0  0  0  0  0  0  0  0  0  0  0  0
   -6.3137   -4.6317   33.2455 H   0  0  0  0  0  0  0  0  0  0  0  0
   -3.4732   -5.0694   35.0680 H   0  0  0  0  0  0  0  0  0  0  0  0
   -1.9788   -7.0611   35.0210 H   0  0  0  0  0  0  0  0  0  0  0  0
   -2.0487   -8.6308   33.0865 H   0  0  0  0  0  0  0  0  0  0  0  0
   -3.6217   -8.2126   31.1985 H   0  0  0  0  0  0  0  0  0  0  0  0
   -5.1187   -6.2212   31.2363 H   0  0  0  0  0  0  0  0  0  0  0  0
   -3.0680   -3.6610   32.1170 H   0  0  0  0  0  0  0  0  0  0  0  0
   -1.4749   -5.0059   31.0288 H   0  0  0  0  0  0  0  0  0  0  0  0
    2.4060   -5.2960   28.9390 H   0  0  0  0  0  0  0  0  0  0  0  0
    2.6205   -7.5928   30.4637 H   0  0  0  0  0  0  0  0  0  0  0  0
    3.0559   -6.7236   32.5142 H   0  0  0  0  0  0  0  0  0  0  0  0
    4.7267   -6.8177   31.8611 H   0  0  0  0  0  0  0  0  0  0  0  0
    3.8493   -5.2502   31.8611 H   0  0  0  0  0  0  0  0  0  0  0  0
    3.2410   -8.4335   28.2373 H   0  0  0  0  0  0  0  0  0  0  0  0
    5.0766   -8.7746   26.5893 H   0  0  0  0  0  0  0  0  0  0  0  0
    7.1624   -7.4165   26.7410 H   0  0  0  0  0  0  0  0  0  0  0  0
    7.4113   -5.7160   28.5461 H   0  0  0  0  0  0  0  0  0  0  0  0
    5.5800   -5.3661   30.1959 H   0  0  0  0  0  0  0  0  0  0  0  0
    1.8171   -3.2341   28.8445 H   0  0  0  0  0  0  0  0  0  0  0  0
    2.1144   -0.9839   28.9999 H   0  0  0  0  0  0  0  0  0  0  0  0
    2.4705   -1.8328   27.4575 H   0  0  0  0  0  0  0  0  0  0  0  0
    2.1560   -0.0643   27.4575 H   0  0  0  0  0  0  0  0  0  0  0  0
    1.4363    0.4959   26.1503 H   0  0  0  0  0  0  0  0  0  0  0  0
    1.7679   -0.5504   24.7283 H   0  0  0  0  0  0  0  0  0  0  0  0
    0.3396    0.5390   24.7283 H   0  0  0  0  0  0  0  0  0  0  0  0
   -2.1554   -1.5587   28.5090 H   0  0  0  0  0  0  0  0  0  0  0  0
  -10.8217   -1.9700   30.5041 H   0  0  0  0  0  0  0  0  0  0  0  0
  1  2  1  0
  2  3  1  0
  3  4  2  0
  4  5  1  0
  5  6  2  0
  6  7  1  0
  7  8  1  0
  8  9  1  0
  9 10  1  0
 10 11  1  0
 11 12  1  0
 11 13  1  0
 13 14  1  0
 14 15  1  0
 15 16  2  0
 16 17  1  0
 17 18  2  0
 18 19  1  0
 19 20  2  0
 13 21  1  0
 21 22  1  0
 22 23  2  0
 22 24  1  0
 24 25  2  0
 25 26  1  0
 26 27  1  0
 27 28  2  0
 27 29  1  0
 29 30  1  0
 30 31  1  0
 30 32  1  0
 32 33  2  0
 33 34  1  0
 34 35  2  0
 35 36  1  0
 36 37  2  0
 26 38  2  0
 38 39  1  0
 39 40  1  0
 40 41  1  0
 40 42  1  0
 42 43  1  0
 42 44  2  0
 42 45  2  0
 39 46  2  0
  7 47  2  0
 47  3  1  0
 20 15  1  0
 46 24  1  0
 37 32  1  0
  1 48  1  0
  1 49  1  0
  1 50  1  0
  4 51  1  0
  5 52  1  0
  6 53  1  0
  8 54  1  0
  8 55  1  0
  9 56  1  0
  9 57  1  0
 10 58  1  0
 10 59  1  0
 11 60  1  6
 12 61  1  0
 13 62  1  6
 14 63  1  0
 14 64  1  0
 16 65  1  0
 17 66  1  0
 18 67  1  0
 19 68  1  0
 20 69  1  0
 21 70  1  0
 25 71  1  0
 29 72  1  0
 30 73  1  1
 31 74  1  0
 31 75  1  0
 31 76  1  0
 33 77  1  0
 34 78  1  0
 35 79  1  0
 36 80  1  0
 37 81  1  0
 38 82  1  0
 41 83  1  0
 41 84  1  0
 41 85  1  0
 43 86  1  0
 43 87  1  0
 43 88  1  0
 46 89  1  0
 47 90  1  0
M  CHG  1   9   1
M  END
>  <meeko>  (5) 
{"is_sidechain": [false], "free_energy": -9.55, "intermolecular_energy": -19.143, "internal_energy": -1.766}

$$$$
2vkm_ligand
     RDKit          3D

 90 93  0  0  0  0  0  0  0  0999 V2000
   -8.3970    0.6380   25.0980 C   0  0  0  0  0  0  0  0  0  0  0  0
   -8.7800   -0.7040   24.8200 O   0  0  0  0  0  0  0  0  0  0  0  0
   -9.9220   -0.8850   24.0920 C   0  0  0  0  0  0  0  0  0  0  0  0
  -10.0760   -1.7360   23.0000 C   0  0  0  0  0  0  0  0  0  0  0  0
  -11.3060   -1.8130   22.3420 C   0  0  0  0  0  0  0  0  0  0  0  0
  -12.3860   -1.0400   22.7690 C   0  0  0  0  0  0  0  0  0  0  0  0
  -12.2480   -0.1850   23.8700 C   0  0  0  0  0  0  0  0  0  0  0  0
  -13.3840    0.6890   24.3140 C   0  0  0  0  0  0  0  0  0  0  0  0
  -12.9630    1.5670   25.4300 N   0  0  0  0  0  0  0  0  0  0  0  0
  -13.7400    1.4270   26.7060 C   0  0  0  0  0  0  0  0  0  0  0  0
  -12.7240    1.1440   27.8210 C   0  0  1  0  0  0  0  0  0  0  0  0
  -13.3020    1.6090   29.0560 O   0  0  0  0  0  0  0  0  0  0  0  0
  -12.3090   -0.3520   27.9020 C   0  0  2  0  0  0  0  0  0  0  0  0
  -13.4990   -1.3010   27.6220 C   0  0  0  0  0  0  0  0  0  0  0  0
  -13.1760   -2.3820   26.6150 C   0  0  0  0  0  0  0  0  0  0  0  0
  -11.8950   -2.9510   26.5760 C   0  0  0  0  0  0  0  0  0  0  0  0
  -11.5850   -3.9340   25.6360 C   0  0  0  0  0  0  0  0  0  0  0  0
  -12.5520   -4.3630   24.7300 C   0  0  0  0  0  0  0  0  0  0  0  0
  -13.8310   -3.8120   24.7640 C   0  0  0  0  0  0  0  0  0  0  0  0
  -14.1440   -2.8270   25.7030 C   0  0  0  0  0  0  0  0  0  0  0  0
  -11.7180   -0.6410   29.2200 N   0  0  0  0  0  0  0  0  0  0  0  0
  -10.3870   -1.0160   29.3050 C   0  0  0  0  0  0  0  0  0  0  0  0
   -9.6450   -0.9690   28.3280 O   0  0  0  0  0  0  0  0  0  0  0  0
   -9.8860   -1.4980   30.6240 C   0  0  0  0  0  0  0  0  0  0  0  0
   -8.5230   -1.6420   30.9040 C   0  0  0  0  0  0  0  0  0  0  0  0
   -8.1010   -2.1090   32.1580 C   0  0  0  0  0  0  0  0  0  0  0  0
   -6.6360   -2.2430   32.3890 C   0  0  0  0  0  0  0  0  0  0  0  0
   -6.1600   -1.8430   33.4460 O   0  0  0  0  0  0  0  0  0  0  0  0
   -5.9020   -2.8490   31.3970 N   0  0  0  0  0  0  0  0  0  0  0  0
   -4.4730   -3.0950   31.5430 C   0  0  2  0  0  0  0  0  0  0  0  0
   -3.7130   -2.7730   30.2530 C   0  0  0  0  0  0  0  0  0  0  0  0
   -4.2580   -4.5280   32.0010 C   0  0  0  0  0  0  0  0  0  0  0  0
   -3.6980   -5.4980   31.1530 C   0  0  0  0  0  0  0  0  0  0  0  0
   -3.5340   -6.8150   31.5880 C   0  0  0  0  0  0  0  0  0  0  0  0
   -3.9340   -7.1820   32.8710 C   0  0  0  0  0  0  0  0  0  0  0  0
   -4.5000   -6.2330   33.7200 C   0  0  0  0  0  0  0  0  0  0  0  0
   -4.6640   -4.9160   33.2870 C   0  0  0  0  0  0  0  0  0  0  0  0
   -9.0470   -2.4660   33.1230 C   0  0  0  0  0  0  0  0  0  0  0  0
  -10.4090   -2.3440   32.8380 C   0  0  0  0  0  0  0  0  0  0  0  0
  -11.3440   -2.7410   33.8590 N   0  0  0  0  0  0  0  0  0  0  0  0
  -12.2050   -1.6470   34.3750 C   0  0  0  0  0  0  0  0  0  0  0  0
  -12.2150   -4.1930   33.5490 S   0  0  0  0  0  0  0  0  0  0  0  0
  -12.1800   -4.9720   35.1490 C   0  0  0  0  0  0  0  0  0  0  0  0
  -13.5910   -3.8290   33.2800 O   0  0  0  0  0  0  0  0  0  0  0  0
  -11.4670   -5.0070   32.6140 O   0  0  0  0  0  0  0  0  0  0  0  0
  -10.8270   -1.8530   31.5990 C   0  0  0  0  0  0  0  0  0  0  0  0
  -11.0060   -0.1120   24.5190 C   0  0  0  0  0  0  0  0  0  0  0  0
   -8.3539    0.7890   26.1867 H   0  0  0  0  0  0  0  0  0  0  0  0
   -7.4068    0.8347   24.6611 H   0  0  0  0  0  0  0  0  0  0  0  0
   -9.1342    1.3277   24.6611 H   0  0  0  0  0  0  0  0  0  0  0  0
   -9.2290   -2.3475   22.6557 H   0  0  0  0  0  0  0  0  0  0  0  0
  -11.4237   -2.4878   21.4813 H   0  0  0  0  0  0  0  0  0  0  0  0
  -13.3483   -1.1021   22.2398 H   0  0  0  0  0  0  0  0  0  0  0  0
  -13.7125    1.3116   23.4687 H   0  0  0  0  0  0  0  0  0  0  0  0
  -14.2091    0.0487   24.6593 H   0  0  0  0  0  0  0  0  0  0  0  0
  -13.0480    2.5590   25.1490 H   0  0  0  0  0  0  0  0  0  0  0  0
  -11.9580    1.4400   25.6100 H   0  0  0  0  0  0  0  0  0  0  0  0
  -14.2862    2.3576   26.9198 H   0  0  0  0  0  0  0  0  0  0  0  0
  -14.4764    0.6134   26.6300 H   0  0  0  0  0  0  0  0  0  0  0  0
  -11.7874    1.6794   27.6059 H   0  0  0  0  0  0  0  0  0  0  0  0
  -14.2210    1.8730   28.8390 H   0  0  0  0  0  0  0  0  0  0  0  0
  -11.5579   -0.5329   27.1190 H   0  0  0  0  0  0  0  0  0  0  0  0
  -13.7934   -1.7806   28.5672 H   0  0  0  0  0  0  0  0  0  0  0  0
  -14.3100   -0.6911   27.1974 H   0  0  0  0  0  0  0  0  0  0  0  0
  -11.1286   -2.6197   27.2922 H   0  0  0  0  0  0  0  0  0  0  0  0
  -10.5758   -4.3708   25.6103 H   0  0  0  0  0  0  0  0  0  0  0  0
  -12.3058   -5.1367   23.9878 H   0  0  0  0  0  0  0  0  0  0  0  0
  -14.5953   -4.1533   24.0503 H   0  0  0  0  0  0  0  0  0  0  0  0
  -15.1563   -2.3974   25.7275 H   0  0  0  0  0  0  0  0  0  0  0  0
  -12.3380   -1.0600   29.9080 H   0  0  0  0  0  0  0  0  0  0  0  0
   -7.7774   -1.3875   30.1363 H   0  0  0  0  0  0  0  0  0  0  0  0
   -6.3690   -3.3470   30.6530 H   0  0  0  0  0  0  0  0  0  0  0  0
   -4.0632   -2.4208   32.3095 H   0  0  0  0  0  0  0  0  0  0  0  0
   -2.7267   -2.3551   30.5031 H   0  0  0  0  0  0  0  0  0  0  0  0
   -3.5828   -3.6933   29.6647 H   0  0  0  0  0  0  0  0  0  0  0  0
   -4.2836   -2.0393   29.6647 H   0  0  0  0  0  0  0  0  0  0  0  0
   -3.3856   -5.2174   30.1363 H   0  0  0  0  0  0  0  0  0  0  0  0
   -3.0883   -7.5636   30.9165 H   0  0  0  0  0  0  0  0  0  0  0  0
   -3.8033   -8.2192   33.2133 H   0  0  0  0  0  0  0  0  0  0  0  0
   -4.8180   -6.5220   34.7326 H   0  0  0  0  0  0  0  0  0  0  0  0
   -5.1165   -4.1741   33.9614 H   0  0  0  0  0  0  0  0  0  0  0  0
   -8.7200   -2.8418   34.1037 H   0  0  0  0  0  0  0  0  0  0  0  0
  -12.1947   -1.6601   35.4749 H   0  0  0  0  0  0  0  0  0  0  0  0
  -11.8233   -0.6797   34.0162 H   0  0  0  0  0  0  0  0  0  0  0  0
  -13.2349   -1.7907   34.0162 H   0  0  0  0  0  0  0  0  0  0  0  0
  -12.2146   -4.2011   35.9330 H   0  0  0  0  0  0  0  0  0  0  0  0
  -13.0491   -5.6385   35.2514 H   0  0  0  0  0  0  0  0  0  0  0  0
  -11.2546   -5.5578   35.2514 H   0  0  0  0  0  0  0  0  0  0  0  0
  -11.9011   -1.7445   31.3877 H   0  0  0  0  0  0  0  0  0  0  0  0
  -10.8832    0.5644   25.3777 H   0  0  0  0  0  0  0  0  0  0  0  0
  1  2  1  0
  2  3  1  0
  3  4  2  0
  4  5  1  0
  5  6  2  0
  6  7  1  0
  7  8  1  0
  8  9  1  0
  9 10  1  0
 10 11  1  0
 11 12  1  0
 11 13  1  0
 13 14  1  0
 14 15  1  0
 15 16  2  0
 16 17  1  0
 17 18  2  0
 18 19  1  0
 19 20  2  0
 13 21  1  0
 21 22  1  0
 22 23  2  0
 22 24  1  0
 24 25  2  0
 25 26  1  0
 26 27  1  0
 27 28  2  0
 27 29  1  0
 29 30  1  0
 30 31  1  0
 30 32  1  0
 32 33  2  0
 33 34  1  0
 34 35  2  0
 35 36  1  0
 36 37  2  0
 26 38  2  0
 38 39  1  0
 39 40  1  0
 40 41  1  0
 40 42  1  0
 42 43  1  0
 42 44  2  0
 42 45  2  0
 39 46  2  0
  7 47  2  0
 47  3  1  0
 20 15  1  0
 46 24  1  0
 37 32  1  0
  1 48  1  0
  1 49  1  0
  1 50  1  0
  4 51  1  0
  5 52  1  0
  6 53  1  0
  8 54  1  0
  8 55  1  0
  9 56  1  0
  9 57  1  0
 10 58  1  0
 10 59  1  0
 11 60  1  6
 12 61  1  0
 13 62  1  6
 14 63  1  0
 14 64  1  0
 16 65  1  0
 17 66  1  0
 18 67  1  0
 19 68  1  0
 20 69  1  0
 21 70  1  0
 25 71  1  0
 29 72  1  0
 30 73  1  1
 31 74  1  0
 31 75  1  0
 31 76  1  0
 33 77  1  0
 34 78  1  0
 35 79  1  0
 36 80  1  0
 37 81  1  0
 38 82  1  0
 41 83  1  0
 41 84  1  0
 41 85  1  0
 43 86  1  0
 43 87  1  0
 43 88  1  0
 46 89  1  0
 47 90  1  0
M  CHG  1   9   1
M  END
>  <meeko>  (6) 
{"is_sidechain": [false], "free_energy": -9.097, "intermolecular_energy": -15.756, "internal_energy": -4.289}

$$$$
2vkm_ligand
     RDKit          3D

 90 93  0  0  0  0  0  0  0  0999 V2000
   -9.4760   -0.1650   25.6100 C   0  0  0  0  0  0  0  0  0  0  0  0
   -9.6190   -0.4930   26.9880 O   0  0  0  0  0  0  0  0  0  0  0  0
  -10.2440    0.4270   27.7820 C   0  0  0  0  0  0  0  0  0  0  0  0
  -11.5750    0.8260   27.6890 C   0  0  0  0  0  0  0  0  0  0  0  0
  -12.0790    1.7880   28.5680 C   0  0  0  0  0  0  0  0  0  0  0  0
  -11.2570    2.3580   29.5400 C   0  0  0  0  0  0  0  0  0  0  0  0
   -9.9180    1.9620   29.6500 C   0  0  0  0  0  0  0  0  0  0  0  0
   -9.0070    2.5970   30.6580 C   0  0  0  0  0  0  0  0  0  0  0  0
   -8.1690    1.5730   31.3240 N   0  0  0  0  0  0  0  0  0  0  0  0
   -6.7180    1.5620   30.9430 C   0  0  0  0  0  0  0  0  0  0  0  0
   -6.0420    0.4710   31.7850 C   0  0  1  0  0  0  0  0  0  0  0  0
   -6.7400    0.4060   33.0440 O   0  0  0  0  0  0  0  0  0  0  0  0
   -6.0010   -0.9110   31.0730 C   0  0  2  0  0  0  0  0  0  0  0  0
   -6.4940   -2.0540   31.9950 C   0  0  0  0  0  0  0  0  0  0  0  0
   -8.0010   -2.1720   32.0440 C   0  0  0  0  0  0  0  0  0  0  0  0
   -8.6370   -2.6070   33.2150 C   0  0  0  0  0  0  0  0  0  0  0  0
  -10.0250   -2.7390   33.2610 C   0  0  0  0  0  0  0  0  0  0  0  0
  -10.7920   -2.4310   32.1390 C   0  0  0  0  0  0  0  0  0  0  0  0
  -10.1720   -1.9890   30.9730 C   0  0  0  0  0  0  0  0  0  0  0  0
   -8.7830   -1.8570   30.9240 C   0  0  0  0  0  0  0  0  0  0  0  0
   -4.6380   -1.1900   30.5900 N   0  0  0  0  0  0  0  0  0  0  0  0
   -4.3070   -2.4710   30.1820 C   0  0  0  0  0  0  0  0  0  0  0  0
   -5.1580   -3.3490   30.0720 O   0  0  0  0  0  0  0  0  0  0  0  0
   -2.8710   -2.7580   29.9000 C   0  0  0  0  0  0  0  0  0  0  0  0
   -2.1790   -3.8090   30.5120 C   0  0  0  0  0  0  0  0  0  0  0  0
   -0.8250   -4.0340   30.2200 C   0  0  0  0  0  0  0  0  0  0  0  0
   -0.1480   -5.1670   30.9090 C   0  0  0  0  0  0  0  0  0  0  0  0
   -0.5650   -6.3070   30.7330 O   0  0  0  0  0  0  0  0  0  0  0  0
    0.9430   -4.8600   31.6880 N   0  0  0  0  0  0  0  0  0  0  0  0
    1.7240   -5.8940   32.3540 C   0  0  2  0  0  0  0  0  0  0  0  0
    0.8920   -6.6390   33.4010 C   0  0  0  0  0  0  0  0  0  0  0  0
    2.9770   -5.2710   32.9440 C   0  0  0  0  0  0  0  0  0  0  0  0
    2.9160   -4.3480   34.0010 C   0  0  0  0  0  0  0  0  0  0  0  0
    4.0800   -3.7680   34.5100 C   0  0  0  0  0  0  0  0  0  0  0  0
    5.3190   -4.0960   33.9640 C   0  0  0  0  0  0  0  0  0  0  0  0
    5.3950   -5.0030   32.9090 C   0  0  0  0  0  0  0  0  0  0  0  0
    4.2320   -5.5840   32.4000 C   0  0  0  0  0  0  0  0  0  0  0  0
   -0.1520   -3.1820   29.3400 C   0  0  0  0  0  0  0  0  0  0  0  0
   -0.8340   -2.1190   28.7450 C   0  0  0  0  0  0  0  0  0  0  0  0
   -0.0920   -1.2600   27.8590 N   0  0  0  0  0  0  0  0  0  0  0  0
    1.3850   -1.3420   28.0020 C   0  0  0  0  0  0  0  0  0  0  0  0
   -0.6080   -1.2560   26.2170 S   0  0  0  0  0  0  0  0  0  0  0  0
    0.7820   -0.4860   25.4140 C   0  0  0  0  0  0  0  0  0  0  0  0
   -0.6530   -2.6330   25.7690 O   0  0  0  0  0  0  0  0  0  0  0  0
   -1.7630   -0.3950   26.0830 O   0  0  0  0  0  0  0  0  0  0  0  0
   -2.1890   -1.9130   29.0150 C   0  0  0  0  0  0  0  0  0  0  0  0
   -9.4220    0.9990   28.7580 C   0  0  0  0  0  0  0  0  0  0  0  0
   -9.0380    0.8396   25.5158 H   0  0  0  0  0  0  0  0  0  0  0  0
   -8.8165   -0.8995   25.1248 H   0  0  0  0  0  0  0  0  0  0  0  0
  -10.4631   -0.1817   25.1248 H   0  0  0  0  0  0  0  0  0  0  0  0
  -12.2295    0.3838   26.9235 H   0  0  0  0  0  0  0  0  0  0  0  0
  -13.1317    2.0981   28.4929 H   0  0  0  0  0  0  0  0  0  0  0  0
  -11.6613    3.1205   30.2220 H   0  0  0  0  0  0  0  0  0  0  0  0
   -8.3549    3.3222   30.1492 H   0  0  0  0  0  0  0  0  0  0  0  0
   -9.6192    3.1029   31.4191 H   0  0  0  0  0  0  0  0  0  0  0  0
   -8.5300    0.6280   31.1080 H   0  0  0  0  0  0  0  0  0  0  0  0
   -8.2680    1.6560   32.3440 H   0  0  0  0  0  0  0  0  0  0  0  0
   -6.6102    1.3342   29.8723 H   0  0  0  0  0  0  0  0  0  0  0  0
   -6.2560    2.5431   31.1271 H   0  0  0  0  0  0  0  0  0  0  0  0
   -4.9852    0.7333   31.9411 H   0  0  0  0  0  0  0  0  0  0  0  0
   -6.2490   -0.2450   33.5890 H   0  0  0  0  0  0  0  0  0  0  0  0
   -6.6882   -0.8653   30.2153 H   0  0  0  0  0  0  0  0  0  0  0  0
   -6.0808   -3.0041   31.6255 H   0  0  0  0  0  0  0  0  0  0  0  0
   -6.1509   -1.8228   33.0142 H   0  0  0  0  0  0  0  0  0  0  0  0
   -8.0366   -2.8463   34.1051 H   0  0  0  0  0  0  0  0  0  0  0  0
  -10.5141   -3.0863   34.1831 H   0  0  0  0  0  0  0  0  0  0  0  0
  -11.8863   -2.5369   32.1743 H   0  0  0  0  0  0  0  0  0  0  0  0
  -10.7781   -1.7433   30.0885 H   0  0  0  0  0  0  0  0  0  0  0  0
   -8.2995   -1.5038   30.0013 H   0  0  0  0  0  0  0  0  0  0  0  0
   -3.8900   -0.6590   31.0270 H   0  0  0  0  0  0  0  0  0  0  0  0
   -2.6998   -4.4632   31.2267 H   0  0  0  0  0  0  0  0  0  0  0  0
    1.3680   -3.9460   31.6270 H   0  0  0  0  0  0  0  0  0  0  0  0
    2.0286   -6.6521   31.6174 H   0  0  0  0  0  0  0  0  0  0  0  0
    1.2211   -6.3443   34.4084 H   0  0  0  0  0  0  0  0  0  0  0  0
   -0.1706   -6.3849   33.2735 H   0  0  0  0  0  0  0  0  0  0  0  0
    1.0276   -7.7231   33.2735 H   0  0  0  0  0  0  0  0  0  0  0  0
    1.9406   -4.0790   34.4326 H   0  0  0  0  0  0  0  0  0  0  0  0
    4.0185   -3.0517   35.3426 H   0  0  0  0  0  0  0  0  0  0  0  0
    6.2359   -3.6396   34.3652 H   0  0  0  0  0  0  0  0  0  0  0  0
    6.3728   -5.2617   32.4765 H   0  0  0  0  0  0  0  0  0  0  0  0
    4.3003   -6.2949   31.5634 H   0  0  0  0  0  0  0  0  0  0  0  0
    0.9122   -3.3485   29.1168 H   0  0  0  0  0  0  0  0  0  0  0  0
    1.6498   -1.3567   29.0696 H   0  0  0  0  0  0  0  0  0  0  0  0
    1.7494   -2.2618   27.5211 H   0  0  0  0  0  0  0  0  0  0  0  0
    1.8490   -0.4682   27.5211 H   0  0  0  0  0  0  0  0  0  0  0  0
    1.4774   -0.1008   26.1742 H   0  0  0  0  0  0  0  0  0  0  0  0
    1.2989   -1.2264   24.7858 H   0  0  0  0  0  0  0  0  0  0  0  0
    0.4285    0.3449   24.7858 H   0  0  0  0  0  0  0  0  0  0  0  0
   -2.7234   -1.0828   28.5300 H   0  0  0  0  0  0  0  0  0  0  0  0
   -8.3689    0.6889   28.8277 H   0  0  0  0  0  0  0  0  0  0  0  0
  1  2  1  0
  2  3  1  0
  3  4  2  0
  4  5  1  0
  5  6  2  0
  6  7  1  0
  7  8  1  0
  8  9  1  0
  9 10  1  0
 10 11  1  0
 11 12  1  0
 11 13  1  0
 13 14  1  0
 14 15  1  0
 15 16  2  0
 16 17  1  0
 17 18  2  0
 18 19  1  0
 19 20  2  0
 13 21  1  0
 21 22  1  0
 22 23  2  0
 22 24  1  0
 24 25  2  0
 25 26  1  0
 26 27  1  0
 27 28  2  0
 27 29  1  0
 29 30  1  0
 30 31  1  0
 30 32  1  0
 32 33  2  0
 33 34  1  0
 34 35  2  0
 35 36  1  0
 36 37  2  0
 26 38  2  0
 38 39  1  0
 39 40  1  0
 40 41  1  0
 40 42  1  0
 42 43  1  0
 42 44  2  0
 42 45  2  0
 39 46  2  0
  7 47  2  0
 47  3  1  0
 20 15  1  0
 46 24  1  0
 37 32  1  0
  1 48  1  0
  1 49  1  0
  1 50  1  0
  4 51  1  0
  5 52  1  0
  6 53  1  0
  8 54  1  0
  8 55  1  0
  9 56  1  0
  9 57  1  0
 10 58  1  0
 10 59  1  0
 11 60  1  1
 12 61  1  0
 13 62  1  6
 14 63  1  0
 14 64  1  0
 16 65  1  0
 17 66  1  0
 18 67  1  0
 19 68  1  0
 20 69  1  0
 21 70  1  0
 25 71  1  0
 29 72  1  0
 30 73  1  6
 31 74  1  0
 31 75  1  0
 31 76  1  0
 33 77  1  0
 34 78  1  0
 35 79  1  0
 36 80  1  0
 37 81  1  0
 38 82  1  0
 41 83  1  0
 41 84  1  0
 41 85  1  0
 43 86  1  0
 43 87  1  0
 43 88  1  0
 46 89  1  0
 47 90  1  0
M  CHG  1   9   1
M  END
>  <meeko>  (7) 
{"is_sidechain": [false], "free_energy": -9.062, "intermolecular_energy": -18.707, "internal_energy": -1.272}

$$$$
