3g31_ligand
     RDKit          3D

 31 33  0  0  0  0  0  0  0  0999 V2000
   -5.8190   51.2570   12.0770 C   0  0  0  0  0  0  0  0  0  0  0  0
   -4.9480   51.4970   13.3080 C   0  0  2  0  0  0  0  0  0  0  0  0
   -5.4800   52.6710   14.1830 C   0  0  0  0  0  0  0  0  0  0  0  0
   -6.6510   53.0690   13.9090 O   0  0  0  0  0  0  0  0  0  0  0  0
   -4.6730   53.1260   15.0460 O   0  0  0  0  0  0  0  0  0  0  0  0
   -3.5210   51.6230   12.9540 N   0  0  0  0  0  0  0  0  0  0  0  0
   -3.0190   52.7440   12.3440 C   0  0  0  0  0  0  0  0  0  0  0  0
   -3.5750   53.8190   12.1560 O   0  0  0  0  0  0  0  0  0  0  0  0
   -1.5860   52.4900   11.9710 C   0  0  2  0  0  0  0  0  0  0  0  0
   -1.2250   52.5040   10.4750 C   0  0  2  0  0  0  0  0  0  0  0  0
   -2.2430   51.7170    9.6320 C   0  0  0  0  0  0  0  0  0  0  0  0
   -1.9770   50.2600   10.0360 C   0  0  0  0  0  0  0  0  0  0  0  0
   -0.8450   50.3860   11.0710 C   0  0  1  0  0  0  0  0  0  0  0  0
   -0.0320   51.5380   10.4650 C   0  0  0  0  0  0  0  0  0  0  0  0
   -1.3330   51.0370   12.3780 C   0  0  2  0  0  0  0  0  0  0  0  0
   -2.6450   50.5670   12.9440 C   0  0  0  0  0  0  0  0  0  0  0  0
   -2.8150   49.4270   13.3530 O   0  0  0  0  0  0  0  0  0  0  0  0
   -6.8342   50.9773   12.3950 H   0  0  0  0  0  0  0  0  0  0  0  0
   -5.8637   52.1763   11.4746 H   0  0  0  0  0  0  0  0  0  0  0  0
   -5.3865   50.4445   11.4746 H   0  0  0  0  0  0  0  0  0  0  0  0
   -5.0203   50.6022   13.9437 H   0  0  0  0  0  0  0  0  0  0  0  0
   -1.0081   53.2949   12.4486 H   0  0  0  0  0  0  0  0  0  0  0  0
   -1.1183   53.5331   10.1014 H   0  0  0  0  0  0  0  0  0  0  0  0
   -3.2732   52.0134    9.8787 H   0  0  0  0  0  0  0  0  0  0  0  0
   -2.1371   51.8923    8.5512 H   0  0  0  0  0  0  0  0  0  0  0  0
   -2.8726   49.8046   10.4838 H   0  0  0  0  0  0  0  0  0  0  0  0
   -1.7141   49.6161    9.1838 H   0  0  0  0  0  0  0  0  0  0  0  0
   -0.3774   49.4097   11.2664 H   0  0  0  0  0  0  0  0  0  0  0  0
    0.8007   51.8671   11.1040 H   0  0  0  0  0  0  0  0  0  0  0  0
    0.4988   51.3663    9.5169 H   0  0  0  0  0  0  0  0  0  0  0  0
   -0.5809   50.8133   13.1489 H   0  0  0  0  0  0  0  0  0  0  0  0
  1  2  1  0
  2  3  1  0
  3  4  2  0
  3  5  1  0
  2  6  1  0
  6  7  1  0
  7  8  2  0
  7  9  1  0
  9 10  1  0
 10 11  1  0
 11 12  1  0
 12 13  1  0
 13 14  1  0
 13 15  1  0
 15 16  1  0
 16 17  2  0
 16  6  1  0
 15  9  1  0
 14 10  1  0
  1 18  1  0
  1 19  1  0
  1 20  1  0
  2 21  1  1
  9 22  1  1
 10 23  1  6
 11 24  1  0
 11 25  1  0
 12 26  1  0
 12 27  1  0
 13 28  1  1
 14 29  1  0
 14 30  1  0
 15 31  1  1
M  CHG  1   5  -1
M  END
>  <meeko>  (1) 
{"is_sidechain": [false], "free_energy": -6.677, "intermolecular_energy": -7.457, "internal_energy": 0.022}

$$$$
3g31_ligand
     RDKit          3D

 31 33  0  0  0  0  0  0  0  0999 V2000
   -1.8440   50.7780   12.5100 C   0  0  0  0  0  0  0  0  0  0  0  0
   -2.6750   51.9590   12.0120 C   0  0  2  0  0  0  0  0  0  0  0  0
   -2.3480   53.2730   12.7830 C   0  0  0  0  0  0  0  0  0  0  0  0
   -1.3450   53.2180   13.5530 O   0  0  0  0  0  0  0  0  0  0  0  0
   -3.1420   54.2390   12.5870 O   0  0  0  0  0  0  0  0  0  0  0  0
   -4.1140   51.6390   11.9730 N   0  0  0  0  0  0  0  0  0  0  0  0
   -4.8160   51.5850   10.7950 C   0  0  0  0  0  0  0  0  0  0  0  0
   -4.3800   51.6160    9.6510 O   0  0  0  0  0  0  0  0  0  0  0  0
   -6.2740   51.4050   11.1090 C   0  0  2  0  0  0  0  0  0  0  0  0
   -7.2380   52.5270   10.6880 C   0  0  2  0  0  0  0  0  0  0  0  0
   -6.6860   53.9190   11.0420 C   0  0  0  0  0  0  0  0  0  0  0  0
   -6.7710   53.9480   12.5750 C   0  0  0  0  0  0  0  0  0  0  0  0
   -7.3520   52.5650   12.9180 C   0  0  1  0  0  0  0  0  0  0  0  0
   -8.3330   52.3710   11.7530 C   0  0  0  0  0  0  0  0  0  0  0  0
   -6.3460   51.4350   12.6360 C   0  0  2  0  0  0  0  0  0  0  0  0
   -4.9240   51.6410   13.0810 C   0  0  0  0  0  0  0  0  0  0  0  0
   -4.6090   51.7380   14.2590 O   0  0  0  0  0  0  0  0  0  0  0  0
   -1.8391   50.7710   13.6100 H   0  0  0  0  0  0  0  0  0  0  0  0
   -2.2818   49.8394   12.1393 H   0  0  0  0  0  0  0  0  0  0  0  0
   -0.8127   50.8731   12.1393 H   0  0  0  0  0  0  0  0  0  0  0  0
   -2.3836   52.1518   10.9690 H   0  0  0  0  0  0  0  0  0  0  0  0
   -6.5838   50.4975   10.5701 H   0  0  0  0  0  0  0  0  0  0  0  0
   -7.4816   52.4613    9.6173 H   0  0  0  0  0  0  0  0  0  0  0  0
   -5.6457   54.0294   10.7021 H   0  0  0  0  0  0  0  0  0  0  0  0
   -7.2410   54.7389   10.5626 H   0  0  0  0  0  0  0  0  0  0  0  0
   -5.7753   54.0804   13.0234 H   0  0  0  0  0  0  0  0  0  0  0  0
   -7.3794   54.7801   12.9589 H   0  0  0  0  0  0  0  0  0  0  0  0
   -7.7029   52.5309   13.9600 H   0  0  0  0  0  0  0  0  0  0  0  0
   -8.8103   51.3800   11.7455 H   0  0  0  0  0  0  0  0  0  0  0  0
   -9.2190   53.0204   11.6967 H   0  0  0  0  0  0  0  0  0  0  0  0
   -6.6997   50.5459   13.1785 H   0  0  0  0  0  0  0  0  0  0  0  0
  1  2  1  0
  2  3  1  0
  3  4  2  0
  3  5  1  0
  2  6  1  0
  6  7  1  0
  7  8  2  0
  7  9  1  0
  9 10  1  0
 10 11  1  0
 11 12  1  0
 12 13  1  0
 13 14  1  0
 13 15  1  0
 15 16  1  0
 16 17  2  0
 16  6  1  0
 15  9  1  0
 14 10  1  0
  1 18  1  0
  1 19  1  0
  1 20  1  0
  2 21  1  6
  9 22  1  6
 10 23  1  6
 11 24  1  0
 11 25  1  0
 12 26  1  0
 12 27  1  0
 13 28  1  1
 14 29  1  0
 14 30  1  0
 15 31  1  1
M  CHG  1   5  -1
M  END
>  <meeko>  (2) 
{"is_sidechain": [false], "free_energy": -6.449, "intermolecular_energy": -7.098, "internal_energy": -0.082}

$$$$
3g31_ligand
     RDKit          3D

 31 33  0  0  0  0  0  0  0  0999 V2000
   -2.7670   51.3830   10.0880 C   0  0  0  0  0  0  0  0  0  0  0  0
   -2.5010   51.8550   11.5150 C   0  0  2  0  0  0  0  0  0  0  0  0
   -1.4930   50.9290   12.2610 C   0  0  0  0  0  0  0  0  0  0  0  0
   -0.9100   51.4500   13.2570 O   0  0  0  0  0  0  0  0  0  0  0  0
   -1.3370   49.7740   11.7690 O   0  0  0  0  0  0  0  0  0  0  0  0
   -3.7540   52.0850   12.2590 N   0  0  0  0  0  0  0  0  0  0  0  0
   -4.7290   51.1260   12.3570 C   0  0  0  0  0  0  0  0  0  0  0  0
   -4.6710   49.9490   12.0250 O   0  0  0  0  0  0  0  0  0  0  0  0
   -5.9320   51.7260   13.0270 C   0  0  2  0  0  0  0  0  0  0  0  0
   -7.2350   51.8100   12.2130 C   0  0  2  0  0  0  0  0  0  0  0  0
   -6.9860   52.3290   10.7860 C   0  0  0  0  0  0  0  0  0  0  0  0
   -6.6240   53.8040   11.0100 C   0  0  0  0  0  0  0  0  0  0  0  0
   -6.6980   53.9530   12.5390 C   0  0  1  0  0  0  0  0  0  0  0  0
   -7.8900   53.0400   12.8570 C   0  0  0  0  0  0  0  0  0  0  0  0
   -5.5600   53.1930   13.2450 C   0  0  2  0  0  0  0  0  0  0  0  0
   -4.1750   53.3240   12.6720 C   0  0  0  0  0  0  0  0  0  0  0  0
   -3.5660   54.3840   12.6560 O   0  0  0  0  0  0  0  0  0  0  0  0
   -3.3069   50.4250   10.1133 H   0  0  0  0  0  0  0  0  0  0  0  0
   -3.3753   52.1329    9.5611 H   0  0  0  0  0  0  0  0  0  0  0  0
   -1.8104   51.2510    9.5611 H   0  0  0  0  0  0  0  0  0  0  0  0
   -2.0064   52.8355   11.4521 H   0  0  0  0  0  0  0  0  0  0  0  0
   -6.1381   51.0843   13.8963 H   0  0  0  0  0  0  0  0  0  0  0  0
   -7.7553   50.8410   12.1941 H   0  0  0  0  0  0  0  0  0  0  0  0
   -6.1567   51.7871   10.3079 H   0  0  0  0  0  0  0  0  0  0  0  0
   -7.8502   52.1924   10.1193 H   0  0  0  0  0  0  0  0  0  0  0  0
   -5.6112   54.0226   10.6405 H   0  0  0  0  0  0  0  0  0  0  0  0
   -7.2887   54.4984   10.4752 H   0  0  0  0  0  0  0  0  0  0  0  0
   -6.7074   55.0130   12.8327 H   0  0  0  0  0  0  0  0  0  0  0  0
   -8.0730   52.9219   13.9352 H   0  0  0  0  0  0  0  0  0  0  0  0
   -8.8909   53.3428   12.5158 H   0  0  0  0  0  0  0  0  0  0  0  0
   -5.4955   53.5882   14.2695 H   0  0  0  0  0  0  0  0  0  0  0  0
  1  2  1  0
  2  3  1  0
  3  4  2  0
  3  5  1  0
  2  6  1  0
  6  7  1  0
  7  8  2  0
  7  9  1  0
  9 10  1  0
 10 11  1  0
 11 12  1  0
 12 13  1  0
 13 14  1  0
 13 15  1  0
 15 16  1  0
 16 17  2  0
 16  6  1  0
 15  9  1  0
 14 10  1  0
  1 18  1  0
  1 19  1  0
  1 20  1  0
  2 21  1  6
  9 22  1  1
 10 23  1  6
 11 24  1  0
 11 25  1  0
 12 26  1  0
 12 27  1  0
 13 28  1  6
 14 29  1  0
 14 30  1  0
 15 31  1  1
M  CHG  1   5  -1
M  END
>  <meeko>  (3) 
{"is_sidechain": [false], "free_energy": -6.125, "intermolecular_energy": -6.641, "internal_energy": -0.178}

$$$$
3g31_ligand
     RDKit          3D

 31 33  0  0  0  0  0  0  0  0999 V2000
   -5.3800   52.6810   14.4580 C   0  0  0  0  0  0  0  0  0  0  0  0
   -5.2390   53.2700   13.0560 C   0  0  2  0  0  0  0  0  0  0  0  0
   -6.6130   53.6920   12.4560 C   0  0  0  0  0  0  0  0  0  0  0  0
   -6.5700   54.1910   11.2930 O   0  0  0  0  0  0  0  0  0  0  0  0
   -7.6180   53.5280   13.2080 O   0  0  0  0  0  0  0  0  0  0  0  0
   -4.4510   52.3940   12.1690 N   0  0  0  0  0  0  0  0  0  0  0  0
   -4.8510   51.1190   11.8630 C   0  0  0  0  0  0  0  0  0  0  0  0
   -5.9250   50.5820   12.1050 O   0  0  0  0  0  0  0  0  0  0  0  0
   -3.7580   50.4420   11.0850 C   0  0  2  0  0  0  0  0  0  0  0  0
   -3.0890   49.2100   11.7190 C   0  0  2  0  0  0  0  0  0  0  0  0
   -2.7560   49.4380   13.2030 C   0  0  0  0  0  0  0  0  0  0  0  0
   -1.6120   50.4610   13.1500 C   0  0  0  0  0  0  0  0  0  0  0  0
   -1.4330   50.7050   11.6420 C   0  0  1  0  0  0  0  0  0  0  0  0
   -1.6900   49.2960   11.0920 C   0  0  0  0  0  0  0  0  0  0  0  0
   -2.6250   51.4700   11.0390 C   0  0  2  0  0  0  0  0  0  0  0  0
   -3.1530   52.6530   11.8040 C   0  0  0  0  0  0  0  0  0  0  0  0
   -2.4930   53.6650   11.9880 O   0  0  0  0  0  0  0  0  0  0  0  0
   -5.1922   53.4655   15.2059 H   0  0  0  0  0  0  0  0  0  0  0  0
   -6.3981   52.2857   14.5890 H   0  0  0  0  0  0  0  0  0  0  0  0
   -4.6512   51.8675   14.5890 H   0  0  0  0  0  0  0  0  0  0  0  0
   -4.6606   54.2013   13.1462 H   0  0  0  0  0  0  0  0  0  0  0  0
   -4.2248   50.1069   10.1470 H   0  0  0  0  0  0  0  0  0  0  0  0
   -3.7090   48.3106   11.5896 H   0  0  0  0  0  0  0  0  0  0  0  0
   -3.6234   49.8433   13.7446 H   0  0  0  0  0  0  0  0  0  0  0  0
   -2.4845   48.5127   13.7323 H   0  0  0  0  0  0  0  0  0  0  0  0
   -1.8883   51.3899   13.6704 H   0  0  0  0  0  0  0  0  0  0  0  0
   -0.6939   50.1094   13.6434 H   0  0  0  0  0  0  0  0  0  0  0  0
   -0.4855   51.2244   11.4358 H   0  0  0  0  0  0  0  0  0  0  0  0
   -1.7014   49.2524    9.9929 H   0  0  0  0  0  0  0  0  0  0  0  0
   -0.9624   48.5021   11.3162 H   0  0  0  0  0  0  0  0  0  0  0  0
   -2.2945   51.8688   10.0686 H   0  0  0  0  0  0  0  0  0  0  0  0
  1  2  1  0
  2  3  1  0
  3  4  2  0
  3  5  1  0
  2  6  1  0
  6  7  1  0
  7  8  2  0
  7  9  1  0
  9 10  1  0
 10 11  1  0
 11 12  1  0
 12 13  1  0
 13 14  1  0
 13 15  1  0
 15 16  1  0
 16 17  2  0
 16  6  1  0
 15  9  1  0
 14 10  1  0
  1 18  1  0
  1 19  1  0
  1 20  1  0
  2 21  1  1
  9 22  1  6
 10 23  1  1
 11 24  1  0
 11 25  1  0
 12 26  1  0
 12 27  1  0
 13 28  1  1
 14 29  1  0
 14 30  1  0
 15 31  1  6
M  CHG  1   5  -1
M  END
>  <meeko>  (4) 
{"is_sidechain": [false], "free_energy": -6.04, "intermolecular_energy": -6.493, "internal_energy": -0.231}

$$$$
3g31_ligand
     RDKit          3D

 31 33  0  0  0  0  0  0  0  0999 V2000
   -5.1060   52.2690   13.3430 C   0  0  0  0  0  0  0  0  0  0  0  0
   -3.6630   51.8020   13.1660 C   0  0  2  0  0  0  0  0  0  0  0  0
   -2.6920   52.9870   12.8840 C   0  0  0  0  0  0  0  0  0  0  0  0
   -1.4800   52.7820   13.1850 O   0  0  0  0  0  0  0  0  0  0  0  0
   -3.2250   54.0380   12.4220 O   0  0  0  0  0  0  0  0  0  0  0  0
   -3.5580   50.7060   12.1840 N   0  0  0  0  0  0  0  0  0  0  0  0
   -2.9560   49.5110   12.4880 C   0  0  0  0  0  0  0  0  0  0  0  0
   -2.5860   49.1060   13.5830 O   0  0  0  0  0  0  0  0  0  0  0  0
   -2.8640   48.6840   11.2380 C   0  0  2  0  0  0  0  0  0  0  0  0
   -1.4600   48.3300   10.7190 C   0  0  2  0  0  0  0  0  0  0  0  0
   -0.5180   49.5460   10.7390 C   0  0  0  0  0  0  0  0  0  0  0  0
   -1.0810   50.4410    9.6250 C   0  0  0  0  0  0  0  0  0  0  0  0
   -2.2850   49.6360    9.1070 C   0  0  1  0  0  0  0  0  0  0  0  0
   -1.7390   48.2050    9.2140 C   0  0  0  0  0  0  0  0  0  0  0  0
   -3.4270   49.5850   10.1370 C   0  0  2  0  0  0  0  0  0  0  0  0
   -3.7890   50.8640   10.8410 C   0  0  0  0  0  0  0  0  0  0  0  0
   -4.2540   51.8300   10.2520 O   0  0  0  0  0  0  0  0  0  0  0  0
   -5.3381   52.3441   14.4156 H   0  0  0  0  0  0  0  0  0  0  0  0
   -5.2331   53.2542   12.8705 H   0  0  0  0  0  0  0  0  0  0  0  0
   -5.7862   51.5451   12.8705 H   0  0  0  0  0  0  0  0  0  0  0  0
   -3.3340   51.3769   14.1257 H   0  0  0  0  0  0  0  0  0  0  0  0
   -3.3685   47.7350   11.4723 H   0  0  0  0  0  0  0  0  0  0  0  0
   -1.0286   47.4895   11.2824 H   0  0  0  0  0  0  0  0  0  0  0  0
   -0.5538   50.0573   11.7123 H   0  0  0  0  0  0  0  0  0  0  0  0
    0.5378   49.2777   10.5861 H   0  0  0  0  0  0  0  0  0  0  0  0
   -1.3995   51.4153   10.0241 H   0  0  0  0  0  0  0  0  0  0  0  0
   -0.3446   50.6709    8.8409 H   0  0  0  0  0  0  0  0  0  0  0  0
   -2.6397   50.0316    8.1438 H   0  0  0  0  0  0  0  0  0  0  0  0
   -2.4853   47.4342    8.9714 H   0  0  0  0  0  0  0  0  0  0  0  0
   -0.9167   47.9033    8.5486 H   0  0  0  0  0  0  0  0  0  0  0  0
   -4.3343   49.2776    9.5962 H   0  0  0  0  0  0  0  0  0  0  0  0
  1  2  1  0
  2  3  1  0
  3  4  2  0
  3  5  1  0
  2  6  1  0
  6  7  1  0
  7  8  2  0
  7  9  1  0
  9 10  1  0
 10 11  1  0
 11 12  1  0
 12 13  1  0
 13 14  1  0
 13 15  1  0
 15 16  1  0
 16 17  2  0
 16  6  1  0
 15  9  1  0
 14 10  1  0
  1 18  1  0
  1 19  1  0
  1 20  1  0
  2 21  1  1
  9 22  1  1
 10 23  1  1
 11 24  1  0
 11 25  1  0
 12 26  1  0
 12 27  1  0
 13 28  1  6
 14 29  1  0
 14 30  1  0
 15 31  1  6
M  CHG  1   5  -1
M  END
>  <meeko>  (5) 
{"is_sidechain": [false], "free_energy": -5.937, "intermolecular_energy": -6.405, "internal_energy": -0.203}

$$$$
3g31_ligand
     RDKit          3D

 31 33  0  0  0  0  0  0  0  0999 V2000
   -6.7140   55.1270   13.4080 C   0  0  0  0  0  0  0  0  0  0  0  0
   -7.7080   55.2870   12.2610 C   0  0  2  0  0  0  0  0  0  0  0  0
   -9.0620   55.8930   12.7370 C   0  0  0  0  0  0  0  0  0  0  0  0
   -9.2490   55.8920   13.9890 O   0  0  0  0  0  0  0  0  0  0  0  0
   -9.8440   56.2830   11.8220 O   0  0  0  0  0  0  0  0  0  0  0  0
   -7.8580   54.0400   11.4870 N   0  0  0  0  0  0  0  0  0  0  0  0
   -8.3220   52.8820   12.0570 C   0  0  0  0  0  0  0  0  0  0  0  0
   -8.8190   52.7280   13.1660 O   0  0  0  0  0  0  0  0  0  0  0  0
   -8.1970   51.7670   11.0570 C   0  0  2  0  0  0  0  0  0  0  0  0
   -7.2550   50.6010   11.4030 C   0  0  2  0  0  0  0  0  0  0  0  0
   -5.9110   51.0970   11.9640 C   0  0  0  0  0  0  0  0  0  0  0  0
   -5.2360   51.7320   10.7400 C   0  0  0  0  0  0  0  0  0  0  0  0
   -6.2790   51.5340    9.6260 C   0  0  1  0  0  0  0  0  0  0  0  0
   -6.8340   50.1530    9.9970 C   0  0  0  0  0  0  0  0  0  0  0  0
   -7.5250   52.4120    9.8440 C   0  0  2  0  0  0  0  0  0  0  0  0
   -7.3070   53.8440   10.2460 C   0  0  0  0  0  0  0  0  0  0  0  0
   -6.7620   54.6590    9.5130 O   0  0  0  0  0  0  0  0  0  0  0  0
   -7.2447   55.2124   14.3677 H   0  0  0  0  0  0  0  0  0  0  0  0
   -6.2332   54.1399   13.3415 H   0  0  0  0  0  0  0  0  0  0  0  0
   -5.9477   55.9134   13.3415 H   0  0  0  0  0  0  0  0  0  0  0  0
   -7.2881   56.0245   11.5612 H   0  0  0  0  0  0  0  0  0  0  0  0
   -9.2073   51.3438   10.9557 H   0  0  0  0  0  0  0  0  0  0  0  0
   -7.7342   49.8956   12.0978 H   0  0  0  0  0  0  0  0  0  0  0  0
   -6.0655   51.8405   12.7598 H   0  0  0  0  0  0  0  0  0  0  0  0
   -5.3115   50.2963   12.4216 H   0  0  0  0  0  0  0  0  0  0  0  0
   -5.0363   52.8005   10.9089 H   0  0  0  0  0  0  0  0  0  0  0  0
   -4.2595   51.2843   10.5033 H   0  0  0  0  0  0  0  0  0  0  0  0
   -5.8375   51.7143    8.6348 H   0  0  0  0  0  0  0  0  0  0  0  0
   -7.6801   49.8399    9.3677 H   0  0  0  0  0  0  0  0  0  0  0  0
   -6.1760   49.2770    9.8983 H   0  0  0  0  0  0  0  0  0  0  0  0
   -8.0622   52.4531    8.8850 H   0  0  0  0  0  0  0  0  0  0  0  0
  1  2  1  0
  2  3  1  0
  3  4  2  0
  3  5  1  0
  2  6  1  0
  6  7  1  0
  7  8  2  0
  7  9  1  0
  9 10  1  0
 10 11  1  0
 11 12  1  0
 12 13  1  0
 13 14  1  0
 13 15  1  0
 15 16  1  0
 16 17  2  0
 16  6  1  0
 15  9  1  0
 14 10  1  0
  1 18  1  0
  1 19  1  0
  1 20  1  0
  2 21  1  6
  9 22  1  6
 10 23  1  1
 11 24  1  0
 11 25  1  0
 12 26  1  0
 12 27  1  0
 13 28  1  6
 14 29  1  0
 14 30  1  0
 15 31  1  6
M  CHG  1   5  -1
M  END
>  <meeko>  (6) 
{"is_sidechain": [false], "free_energy": -5.888, "intermolecular_energy": -6.334, "internal_energy": -0.22}

$$$$
3g31_ligand
     RDKit          3D

 31 33  0  0  0  0  0  0  0  0999 V2000
   -1.7790   49.6680   10.0100 C   0  0  0  0  0  0  0  0  0  0  0  0
   -2.3400   51.0700   10.2370 C   0  0  2  0  0  0  0  0  0  0  0  0
   -1.2450   52.0720   10.7100 C   0  0  0  0  0  0  0  0  0  0  0  0
   -0.0850   51.5850   10.8500 O   0  0  0  0  0  0  0  0  0  0  0  0
   -1.6400   53.2520   10.9410 O   0  0  0  0  0  0  0  0  0  0  0  0
   -3.5360   51.0490   11.1010 N   0  0  0  0  0  0  0  0  0  0  0  0
   -4.7550   51.5050   10.6690 C   0  0  0  0  0  0  0  0  0  0  0  0
   -5.0870   51.8200    9.5330 O   0  0  0  0  0  0  0  0  0  0  0  0
   -5.7100   51.5040   11.8280 C   0  0  2  0  0  0  0  0  0  0  0  0
   -6.2770   52.8590   12.2860 C   0  0  2  0  0  0  0  0  0  0  0  0
   -5.1840   53.9370   12.3730 C   0  0  0  0  0  0  0  0  0  0  0  0
   -4.3470   53.4890   13.5800 C   0  0  0  0  0  0  0  0  0  0  0  0
   -5.0550   52.2000   14.0350 C   0  0  1  0  0  0  0  0  0  0  0  0
   -6.5210   52.5730   13.7750 C   0  0  0  0  0  0  0  0  0  0  0  0
   -4.8670   51.0560   13.0220 C   0  0  2  0  0  0  0  0  0  0  0  0
   -3.4890   50.8440   12.4570 C   0  0  0  0  0  0  0  0  0  0  0  0
   -2.5400   50.4990   13.1470 O   0  0  0  0  0  0  0  0  0  0  0  0
   -1.5870   49.1882   10.9811 H   0  0  0  0  0  0  0  0  0  0  0  0
   -2.5068   49.0693    9.4427 H   0  0  0  0  0  0  0  0  0  0  0  0
   -0.8391   49.7366    9.4427 H   0  0  0  0  0  0  0  0  0  0  0  0
   -2.6817   51.4503    9.2630 H   0  0  0  0  0  0  0  0  0  0  0  0
   -6.5646   50.8900   11.5076 H   0  0  0  0  0  0  0  0  0  0  0  0
   -7.1005   53.1863   11.6343 H   0  0  0  0  0  0  0  0  0  0  0  0
   -4.5758   53.9574   11.4566 H   0  0  0  0  0  0  0  0  0  0  0  0
   -5.5882   54.9543   12.4812 H   0  0  0  0  0  0  0  0  0  0  0  0
   -3.3068   53.2857   13.2858 H   0  0  0  0  0  0  0  0  0  0  0  0
   -4.2851   54.2512   14.3708 H   0  0  0  0  0  0  0  0  0  0  0  0
   -4.7215   51.8985   15.0389 H   0  0  0  0  0  0  0  0  0  0  0  0
   -7.2200   51.7419   13.9504 H   0  0  0  0  0  0  0  0  0  0  0  0
   -6.9828   53.3569   14.3933 H   0  0  0  0  0  0  0  0  0  0  0  0
   -5.1203   50.1208   13.5429 H   0  0  0  0  0  0  0  0  0  0  0  0
  1  2  1  0
  2  3  1  0
  3  4  2  0
  3  5  1  0
  2  6  1  0
  6  7  1  0
  7  8  2  0
  7  9  1  0
  9 10  1  0
 10 11  1  0
 11 12  1  0
 12 13  1  0
 13 14  1  0
 13 15  1  0
 15 16  1  0
 16 17  2  0
 16  6  1  0
 15  9  1  0
 14 10  1  0
  1 18  1  0
  1 19  1  0
  1 20  1  0
  2 21  1  6
  9 22  1  6
 10 23  1  6
 11 24  1  0
 11 25  1  0
 12 26  1  0
 12 27  1  0
 13 28  1  1
 14 29  1  0
 14 30  1  0
 15 31  1  1
M  CHG  1   5  -1
M  END
>  <meeko>  (7) 
{"is_sidechain": [false], "free_energy": -5.882, "intermolecular_energy": -6.321, "internal_energy": -0.227}

$$$$
3g31_ligand
     RDKit          3D

 31 33  0  0  0  0  0  0  0  0999 V2000
    0.6950   51.4270    9.7970 C   0  0  0  0  0  0  0  0  0  0  0  0
   -0.5160   51.9060    9.0000 C   0  0  2  0  0  0  0  0  0  0  0  0
   -0.2360   53.2430    8.2520 C   0  0  0  0  0  0  0  0  0  0  0  0
    0.6040   54.0120    8.8060 O   0  0  0  0  0  0  0  0  0  0  0  0
   -0.9040   53.4340    7.1940 O   0  0  0  0  0  0  0  0  0  0  0  0
   -1.7390   51.9360    9.8250 N   0  0  0  0  0  0  0  0  0  0  0  0
   -1.7590   52.4970   11.0760 C   0  0  0  0  0  0  0  0  0  0  0  0
   -0.8930   53.1720   11.6190 O   0  0  0  0  0  0  0  0  0  0  0  0
   -3.0910   52.2170   11.7110 C   0  0  2  0  0  0  0  0  0  0  0  0
   -3.1080   51.3560   12.9850 C   0  0  2  0  0  0  0  0  0  0  0  0
   -2.2030   50.1190   12.8520 C   0  0  0  0  0  0  0  0  0  0  0  0
   -2.9530   49.2450   11.8370 C   0  0  0  0  0  0  0  0  0  0  0  0
   -4.1940   50.0900   11.5000 C   0  0  1  0  0  0  0  0  0  0  0  0
   -4.4960   50.7110   12.8710 C   0  0  0  0  0  0  0  0  0  0  0  0
   -3.8290   51.3480   10.6910 C   0  0  2  0  0  0  0  0  0  0  0  0
   -2.8570   51.1880    9.5540 C   0  0  0  0  0  0  0  0  0  0  0  0
   -3.1110   50.5230    8.5600 O   0  0  0  0  0  0  0  0  0  0  0  0
    0.4824   51.5111   10.8730 H   0  0  0  0  0  0  0  0  0  0  0  0
    0.9072   50.3772    9.5461 H   0  0  0  0  0  0  0  0  0  0  0  0
    1.5679   52.0476    9.5461 H   0  0  0  0  0  0  0  0  0  0  0  0
   -0.7053   51.1636    8.2107 H   0  0  0  0  0  0  0  0  0  0  0  0
   -3.5018   53.2003   11.9837 H   0  0  0  0  0  0  0  0  0  0  0  0
   -2.8352   51.9502   13.8696 H   0  0  0  0  0  0  0  0  0  0  0  0
   -1.2079   50.3968   12.4744 H   0  0  0  0  0  0  0  0  0  0  0  0
   -2.0232   49.6102   13.8106 H   0  0  0  0  0  0  0  0  0  0  0  0
   -2.3409   49.0670   10.9405 H   0  0  0  0  0  0  0  0  0  0  0  0
   -3.2019   48.2466   12.2260 H   0  0  0  0  0  0  0  0  0  0  0  0
   -4.9512   49.4887   10.9755 H   0  0  0  0  0  0  0  0  0  0  0  0
   -5.3162   51.4435   12.8464 H   0  0  0  0  0  0  0  0  0  0  0  0
   -4.8391   50.0530   13.6830 H   0  0  0  0  0  0  0  0  0  0  0  0
   -4.7591   51.7188   10.2356 H   0  0  0  0  0  0  0  0  0  0  0  0
  1  2  1  0
  2  3  1  0
  3  4  2  0
  3  5  1  0
  2  6  1  0
  6  7  1  0
  7  8  2  0
  7  9  1  0
  9 10  1  0
 10 11  1  0
 11 12  1  0
 12 13  1  0
 13 14  1  0
 13 15  1  0
 15 16  1  0
 16 17  2  0
 16  6  1  0
 15  9  1  0
 14 10  1  0
  1 18  1  0
  1 19  1  0
  1 20  1  0
  2 21  1  6
  9 22  1  1
 10 23  1  1
 11 24  1  0
 11 25  1  0
 12 26  1  0
 12 27  1  0
 13 28  1  6
 14 29  1  0
 14 30  1  0
 15 31  1  6
M  CHG  1   5  -1
M  END
>  <meeko>  (8) 
{"is_sidechain": [false], "free_energy": -5.84, "intermolecular_energy": -6.386, "internal_energy": -0.115}

$$$$
3g31_ligand
     RDKit          3D

 31 33  0  0  0  0  0  0  0  0999 V2000
   -7.6680   55.2010   13.1000 C   0  0  0  0  0  0  0  0  0  0  0  0
   -6.6930   54.6470   12.0640 C   0  0  2  0  0  0  0  0  0  0  0  0
   -7.3920   54.3350   10.7070 C   0  0  0  0  0  0  0  0  0  0  0  0
   -8.6570   54.2890   10.7440 O   0  0  0  0  0  0  0  0  0  0  0  0
   -6.6220   54.1230    9.7260 O   0  0  0  0  0  0  0  0  0  0  0  0
   -5.9090   53.5170   12.5980 N   0  0  0  0  0  0  0  0  0  0  0  0
   -4.5690   53.6250   12.8710 C   0  0  0  0  0  0  0  0  0  0  0  0
   -3.8770   54.6360   12.8870 O   0  0  0  0  0  0  0  0  0  0  0  0
   -4.0380   52.2680   13.2350 C   0  0  2  0  0  0  0  0  0  0  0  0
   -2.9720   51.6480   12.3160 C   0  0  2  0  0  0  0  0  0  0  0  0
   -3.3380   51.8010   10.8300 C   0  0  0  0  0  0  0  0  0  0  0  0
   -4.5310   50.8480   10.6640 C   0  0  0  0  0  0  0  0  0  0  0  0
   -4.7130   50.2700   12.0790 C   0  0  1  0  0  0  0  0  0  0  0  0
   -3.2510   50.1530   12.5290 C   0  0  0  0  0  0  0  0  0  0  0  0
   -5.2340   51.3290   13.0680 C   0  0  2  0  0  0  0  0  0  0  0  0
   -6.3560   52.2190   12.6090 C   0  0  0  0  0  0  0  0  0  0  0  0
   -7.4730   51.7930   12.3520 O   0  0  0  0  0  0  0  0  0  0  0  0
   -7.2903   54.9864   14.1106 H   0  0  0  0  0  0  0  0  0  0  0  0
   -7.7644   56.2888   12.9679 H   0  0  0  0  0  0  0  0  0  0  0  0
   -8.6518   54.7270   12.9679 H   0  0  0  0  0  0  0  0  0  0  0  0
   -5.9630   55.4392   11.8414 H   0  0  0  0  0  0  0  0  0  0  0  0
   -3.5761   52.3865   14.2263 H   0  0  0  0  0  0  0  0  0  0  0  0
   -1.9768   52.0691   12.5216 H   0  0  0  0  0  0  0  0  0  0  0  0
   -3.6256   52.8373   10.5990 H   0  0  0  0  0  0  0  0  0  0  0  0
   -2.5024   51.5690   10.1532 H   0  0  0  0  0  0  0  0  0  0  0  0
   -5.4302   51.3930   10.3410 H   0  0  0  0  0  0  0  0  0  0  0  0
   -4.3651   50.0756    9.8986 H   0  0  0  0  0  0  0  0  0  0  0  0
   -5.3687   49.3869   12.0644 H   0  0  0  0  0  0  0  0  0  0  0  0
   -3.1415   49.8341   13.5760 H   0  0  0  0  0  0  0  0  0  0  0  0
   -2.6027   49.4196   12.0273 H   0  0  0  0  0  0  0  0  0  0  0  0
   -5.6244   50.7885   13.9429 H   0  0  0  0  0  0  0  0  0  0  0  0
  1  2  1  0
  2  3  1  0
  3  4  2  0
  3  5  1  0
  2  6  1  0
  6  7  1  0
  7  8  2  0
  7  9  1  0
  9 10  1  0
 10 11  1  0
 11 12  1  0
 12 13  1  0
 13 14  1  0
 13 15  1  0
 15 16  1  0
 16 17  2  0
 16  6  1  0
 15  9  1  0
 14 10  1  0
  1 18  1  0
  1 19  1  0
  1 20  1  0
  2 21  1  6
  9 22  1  1
 10 23  1  6
 11 24  1  0
 11 25  1  0
 12 26  1  0
 12 27  1  0
 13 28  1  6
 14 29  1  0
 14 30  1  0
 15 31  1  1
M  CHG  1   5  -1
M  END
>  <meeko>  (9) 
{"is_sidechain": [false], "free_energy": -5.794, "intermolecular_energy": -6.338, "internal_energy": -0.11}

$$$$
