4ddk_ligand
     RDKit          3D

 17 18  0  0  0  0  0  0  0  0999 V2000
  -12.5190   -1.2410    5.1670 O   0  0  0  0  0  0  0  0  0  0  0  0
  -13.7280   -1.0140    4.8470 C   0  0  0  0  0  0  0  0  0  0  0  0
  -14.6990   -0.8720    5.6550 O   0  0  0  0  0  0  0  0  0  0  0  0
  -14.0400   -0.9020    3.3660 C   0  0  0  0  0  0  0  0  0  0  0  0
  -12.9970   -0.9380    2.4070 C   0  0  0  0  0  0  0  0  0  0  0  0
  -13.2610   -0.8360    1.0370 C   0  0  0  0  0  0  0  0  0  0  0  0
  -14.5760   -0.6990    0.6500 C   0  0  0  0  0  0  0  0  0  0  0  0
  -15.6010   -0.6620    1.5670 C   0  0  0  0  0  0  0  0  0  0  0  0
  -15.3680   -0.7600    2.9220 C   0  0  0  0  0  0  0  0  0  0  0  0
  -16.8200   -0.5210    0.9760 O   0  0  0  0  0  0  0  0  0  0  0  0
  -16.4400   -0.4750   -0.4120 C   0  0  0  0  0  0  0  0  0  0  0  0
  -15.0190   -0.5860   -0.6320 O   0  0  0  0  0  0  0  0  0  0  0  0
  -11.9569   -1.0486    2.7475 H   0  0  0  0  0  0  0  0  0  0  0  0
  -12.4485   -0.8642    0.2960 H   0  0  0  0  0  0  0  0  0  0  0  0
  -16.2009   -0.7280    3.6399 H   0  0  0  0  0  0  0  0  0  0  0  0
  -16.9375   -1.3049   -0.9351 H   0  0  0  0  0  0  0  0  0  0  0  0
  -16.7468    0.5095   -0.7950 H   0  0  0  0  0  0  0  0  0  0  0  0
  1  2  2  0
  2  3  1  0
  2  4  1  0
  4  5  2  0
  5  6  1  0
  6  7  2  0
  7  8  1  0
  8  9  2  0
  8 10  1  0
 10 11  1  0
 11 12  1  0
  9  4  1  0
 12  7  1  0
  5 13  1  0
  6 14  1  0
  9 15  1  0
 11 16  1  0
 11 17  1  0
M  CHG  1   3  -1
M  END
>  <meeko>  (1) 
{"is_sidechain": [false], "free_energy": -6.309, "intermolecular_energy": -6.678, "internal_energy": -0.058}

$$$$
4ddk_ligand
     RDKit          3D

 17 18  0  0  0  0  0  0  0  0999 V2000
  -14.5370   -1.0130    5.6910 O   0  0  0  0  0  0  0  0  0  0  0  0
  -13.6070   -1.0860    4.8260 C   0  0  0  0  0  0  0  0  0  0  0  0
  -12.3630   -1.1630    5.0740 O   0  0  0  0  0  0  0  0  0  0  0  0
  -14.0220   -1.0800    3.3660 C   0  0  0  0  0  0  0  0  0  0  0  0
  -15.3420   -0.7240    2.9950 C   0  0  0  0  0  0  0  0  0  0  0  0
  -15.7470   -0.7120    1.6560 C   0  0  0  0  0  0  0  0  0  0  0  0
  -14.8130   -1.0600    0.7050 C   0  0  0  0  0  0  0  0  0  0  0  0
  -13.5260   -1.4080    1.0470 C   0  0  0  0  0  0  0  0  0  0  0  0
  -13.1030   -1.4280    2.3590 C   0  0  0  0  0  0  0  0  0  0  0  0
  -12.7670   -1.7160   -0.0400 O   0  0  0  0  0  0  0  0  0  0  0  0
  -13.7240   -1.5200   -1.0980 C   0  0  0  0  0  0  0  0  0  0  0  0
  -15.0250   -1.1040   -0.6380 O   0  0  0  0  0  0  0  0  0  0  0  0
  -16.0650   -0.4508    3.7776 H   0  0  0  0  0  0  0  0  0  0  0  0
  -16.7732   -0.4350    1.3730 H   0  0  0  0  0  0  0  0  0  0  0  0
  -12.0704   -1.7096    2.6128 H   0  0  0  0  0  0  0  0  0  0  0  0
  -13.3345   -0.7491   -1.7791 H   0  0  0  0  0  0  0  0  0  0  0  0
  -13.8563   -2.4931   -1.5936 H   0  0  0  0  0  0  0  0  0  0  0  0
  1  2  2  0
  2  3  1  0
  2  4  1  0
  4  5  2  0
  5  6  1  0
  6  7  2  0
  7  8  1  0
  8  9  2  0
  8 10  1  0
 10 11  1  0
 11 12  1  0
  9  4  1  0
 12  7  1  0
  5 13  1  0
  6 14  1  0
  9 15  1  0
 11 16  1  0
 11 17  1  0
M  CHG  1   3  -1
M  END
>  <meeko>  (2) 
{"is_sidechain": [false], "free_energy": -6.299, "intermolecular_energy": -6.668, "internal_energy": -0.058}

$$$$
4ddk_ligand
     RDKit          3D

 17 18  0  0  0  0  0  0  0  0999 V2000
  -15.2420   -0.4720   -0.0460 O   0  0  0  0  0  0  0  0  0  0  0  0
  -15.7830   -0.5890    1.0990 C   0  0  0  0  0  0  0  0  0  0  0  0
  -17.0300   -0.5540    1.3410 O   0  0  0  0  0  0  0  0  0  0  0  0
  -14.8550   -0.7900    2.2820 C   0  0  0  0  0  0  0  0  0  0  0  0
  -15.3550   -0.7320    3.6070 C   0  0  0  0  0  0  0  0  0  0  0  0
  -14.5180   -0.9130    4.7130 C   0  0  0  0  0  0  0  0  0  0  0  0
  -13.1840   -1.1530    4.4690 C   0  0  0  0  0  0  0  0  0  0  0  0
  -12.6800   -1.2140    3.1890 C   0  0  0  0  0  0  0  0  0  0  0  0
  -13.4840   -1.0380    2.0830 C   0  0  0  0  0  0  0  0  0  0  0  0
  -11.3410   -1.4600    3.1710 O   0  0  0  0  0  0  0  0  0  0  0  0
  -11.0660   -1.5460    4.5820 C   0  0  0  0  0  0  0  0  0  0  0  0
  -12.2260   -1.3530    5.4150 O   0  0  0  0  0  0  0  0  0  0  0  0
  -16.4259   -0.5402    3.7693 H   0  0  0  0  0  0  0  0  0  0  0  0
  -14.9107   -0.8654    5.7394 H   0  0  0  0  0  0  0  0  0  0  0  0
  -13.0634   -1.0902    1.0679 H   0  0  0  0  0  0  0  0  0  0  0  0
  -10.6492   -2.5417    4.7937 H   0  0  0  0  0  0  0  0  0  0  0  0
  -10.3625   -0.7347    4.8206 H   0  0  0  0  0  0  0  0  0  0  0  0
  1  2  2  0
  2  3  1  0
  2  4  1  0
  4  5  2  0
  5  6  1  0
  6  7  2  0
  7  8  1  0
  8  9  2  0
  8 10  1  0
 10 11  1  0
 11 12  1  0
  9  4  1  0
 12  7  1  0
  5 13  1  0
  6 14  1  0
  9 15  1  0
 11 16  1  0
 11 17  1  0
M  CHG  1   3  -1
M  END
>  <meeko>  (3) 
{"is_sidechain": [false], "free_energy": -6.155, "intermolecular_energy": -6.515, "internal_energy": -0.058}

$$$$
4ddk_ligand
     RDKit          3D

 17 18  0  0  0  0  0  0  0  0999 V2000
  -16.7790    0.5240    0.4380 O   0  0  0  0  0  0  0  0  0  0  0  0
  -16.6740   -0.4160    1.2890 C   0  0  0  0  0  0  0  0  0  0  0  0
  -17.6220   -1.1530    1.7060 O   0  0  0  0  0  0  0  0  0  0  0  0
  -15.2920   -0.6810    1.8560 C   0  0  0  0  0  0  0  0  0  0  0  0
  -14.1790   -0.8410    0.9930 C   0  0  0  0  0  0  0  0  0  0  0  0
  -12.8960   -1.0860    1.4940 C   0  0  0  0  0  0  0  0  0  0  0  0
  -12.7500   -1.1660    2.8610 C   0  0  0  0  0  0  0  0  0  0  0  0
  -13.8190   -1.0130    3.7140 C   0  0  0  0  0  0  0  0  0  0  0  0
  -15.0930   -0.7710    3.2460 C   0  0  0  0  0  0  0  0  0  0  0  0
  -13.4580   -1.1300    5.0220 O   0  0  0  0  0  0  0  0  0  0  0  0
  -12.0460   -1.3720    4.8890 C   0  0  0  0  0  0  0  0  0  0  0  0
  -11.5840   -1.3970    3.5230 O   0  0  0  0  0  0  0  0  0  0  0  0
  -14.3274   -0.7710   -0.0947 H   0  0  0  0  0  0  0  0  0  0  0  0
  -12.0352   -1.2102    0.8205 H   0  0  0  0  0  0  0  0  0  0  0  0
  -15.9350   -0.6510    3.9436 H   0  0  0  0  0  0  0  0  0  0  0  0
  -11.5063   -0.5759    5.4227 H   0  0  0  0  0  0  0  0  0  0  0  0
  -11.8517   -2.3694    5.3103 H   0  0  0  0  0  0  0  0  0  0  0  0
  1  2  2  0
  2  3  1  0
  2  4  1  0
  4  5  2  0
  5  6  1  0
  6  7  2  0
  7  8  1  0
  8  9  2  0
  8 10  1  0
 10 11  1  0
 11 12  1  0
  9  4  1  0
 12  7  1  0
  5 13  1  0
  6 14  1  0
  9 15  1  0
 11 16  1  0
 11 17  1  0
M  CHG  1   3  -1
M  END
>  <meeko>  (4) 
{"is_sidechain": [false], "free_energy": -6.082, "intermolecular_energy": -6.444, "internal_energy": -0.051}

$$$$
4ddk_ligand
     RDKit          3D

 17 18  0  0  0  0  0  0  0  0999 V2000
  -21.4260    1.0740   -0.4560 O   0  0  0  0  0  0  0  0  0  0  0  0
  -21.7710    0.7850   -1.6450 C   0  0  0  0  0  0  0  0  0  0  0  0
  -21.0570    0.1730   -2.5000 O   0  0  0  0  0  0  0  0  0  0  0  0
  -23.1600    1.2090   -2.0820 C   0  0  0  0  0  0  0  0  0  0  0  0
  -23.5190    2.5790   -2.1070 C   0  0  0  0  0  0  0  0  0  0  0  0
  -24.7950    2.9940   -2.5060 C   0  0  0  0  0  0  0  0  0  0  0  0
  -25.6940    2.0180   -2.8760 C   0  0  0  0  0  0  0  0  0  0  0  0
  -25.3630    0.6830   -2.8590 C   0  0  0  0  0  0  0  0  0  0  0  0
  -24.1140    0.2490   -2.4700 C   0  0  0  0  0  0  0  0  0  0  0  0
  -26.3940   -0.1110   -3.2600 O   0  0  0  0  0  0  0  0  0  0  0  0
  -27.4040    0.8780   -3.5290 C   0  0  0  0  0  0  0  0  0  0  0  0
  -26.9730    2.2330   -3.2900 O   0  0  0  0  0  0  0  0  0  0  0  0
  -22.7780    3.3342   -1.8059 H   0  0  0  0  0  0  0  0  0  0  0  0
  -25.0694    4.0591   -2.5234 H   0  0  0  0  0  0  0  0  0  0  0  0
  -23.8681   -0.8231   -2.4628 H   0  0  0  0  0  0  0  0  0  0  0  0
  -27.7022    0.7904   -4.5842 H   0  0  0  0  0  0  0  0  0  0  0  0
  -28.2362    0.6809   -2.8372 H   0  0  0  0  0  0  0  0  0  0  0  0
  1  2  2  0
  2  3  1  0
  2  4  1  0
  4  5  2  0
  5  6  1  0
  6  7  2  0
  7  8  1  0
  8  9  2  0
  8 10  1  0
 10 11  1  0
 11 12  1  0
  9  4  1  0
 12  7  1  0
  5 13  1  0
  6 14  1  0
  9 15  1  0
 11 16  1  0
 11 17  1  0
M  CHG  1   3  -1
M  END
>  <meeko>  (5) 
{"is_sidechain": [false], "free_energy": -6.0, "intermolecular_energy": -6.359, "internal_energy": -0.049}

$$$$
4ddk_ligand
     RDKit          3D

 17 18  0  0  0  0  0  0  0  0999 V2000
  -20.3510    0.1160   -0.2520 O   0  0  0  0  0  0  0  0  0  0  0  0
  -19.7280   -0.8240    0.3340 C   0  0  0  0  0  0  0  0  0  0  0  0
  -20.2510   -1.8740    0.8230 O   0  0  0  0  0  0  0  0  0  0  0  0
  -18.2230   -0.6780    0.4620 C   0  0  0  0  0  0  0  0  0  0  0  0
  -17.4320   -0.3680   -0.6720 C   0  0  0  0  0  0  0  0  0  0  0  0
  -16.0430   -0.2290   -0.5780 C   0  0  0  0  0  0  0  0  0  0  0  0
  -15.4680   -0.4050    0.6610 C   0  0  0  0  0  0  0  0  0  0  0  0
  -16.2200   -0.7060    1.7730 C   0  0  0  0  0  0  0  0  0  0  0  0
  -17.5900   -0.8480    1.7070 C   0  0  0  0  0  0  0  0  0  0  0  0
  -15.4580   -0.8370    2.8940 O   0  0  0  0  0  0  0  0  0  0  0  0
  -14.1470   -0.5850    2.3560 C   0  0  0  0  0  0  0  0  0  0  0  0
  -14.1390   -0.3090    0.9410 O   0  0  0  0  0  0  0  0  0  0  0  0
  -17.9210   -0.2336   -1.6481 H   0  0  0  0  0  0  0  0  0  0  0  0
  -15.4328    0.0119   -1.4610 H   0  0  0  0  0  0  0  0  0  0  0  0
  -18.1746   -1.0887    2.6071 H   0  0  0  0  0  0  0  0  0  0  0  0
  -13.7183    0.2818    2.8803 H   0  0  0  0  0  0  0  0  0  0  0  0
  -13.5589   -1.5025    2.5055 H   0  0  0  0  0  0  0  0  0  0  0  0
  1  2  2  0
  2  3  1  0
  2  4  1  0
  4  5  2  0
  5  6  1  0
  6  7  2  0
  7  8  1  0
  8  9  2  0
  8 10  1  0
 10 11  1  0
 11 12  1  0
  9  4  1  0
 12  7  1  0
  5 13  1  0
  6 14  1  0
  9 15  1  0
 11 16  1  0
 11 17  1  0
M  CHG  1   3  -1
M  END
>  <meeko>  (6) 
{"is_sidechain": [false], "free_energy": -5.969, "intermolecular_energy": -6.325, "internal_energy": -0.051}

$$$$
4ddk_ligand
     RDKit          3D

 17 18  0  0  0  0  0  0  0  0999 V2000
  -20.0620   -1.5530    0.7370 O   0  0  0  0  0  0  0  0  0  0  0  0
  -19.3890   -0.5230    0.4180 C   0  0  0  0  0  0  0  0  0  0  0  0
  -19.8670    0.5870    0.0230 O   0  0  0  0  0  0  0  0  0  0  0  0
  -17.8790   -0.6280    0.5180 C   0  0  0  0  0  0  0  0  0  0  0  0
  -17.2510   -0.7860    1.7790 C   0  0  0  0  0  0  0  0  0  0  0  0
  -15.8600   -0.8840    1.8960 C   0  0  0  0  0  0  0  0  0  0  0  0
  -15.1180   -0.8220    0.7370 C   0  0  0  0  0  0  0  0  0  0  0  0
  -15.7100   -0.6690   -0.4950 C   0  0  0  0  0  0  0  0  0  0  0  0
  -17.0780   -0.5700   -0.6370 C   0  0  0  0  0  0  0  0  0  0  0  0
  -14.7980   -0.6310   -1.5060 O   0  0  0  0  0  0  0  0  0  0  0  0
  -13.5730   -0.7780   -0.7660 C   0  0  0  0  0  0  0  0  0  0  0  0
  -13.7620   -0.9000    0.6580 O   0  0  0  0  0  0  0  0  0  0  0  0
  -17.8713   -0.8326    2.6862 H   0  0  0  0  0  0  0  0  0  0  0  0
  -15.3771   -1.0060    2.8768 H   0  0  0  0  0  0  0  0  0  0  0  0
  -17.5328   -0.4484   -1.6312 H   0  0  0  0  0  0  0  0  0  0  0  0
  -13.0573   -1.6807   -1.1256 H   0  0  0  0  0  0  0  0  0  0  0  0
  -12.9871    0.1378   -0.9331 H   0  0  0  0  0  0  0  0  0  0  0  0
  1  2  2  0
  2  3  1  0
  2  4  1  0
  4  5  2  0
  5  6  1  0
  6  7  2  0
  7  8  1  0
  8  9  2  0
  8 10  1  0
 10 11  1  0
 11 12  1  0
  9  4  1  0
 12  7  1  0
  5 13  1  0
  6 14  1  0
  9 15  1  0
 11 16  1  0
 11 17  1  0
M  CHG  1   3  -1
M  END
>  <meeko>  (7) 
{"is_sidechain": [false], "free_energy": -5.859, "intermolecular_energy": -6.212, "internal_energy": -0.049}

$$$$
4ddk_ligand
     RDKit          3D

 17 18  0  0  0  0  0  0  0  0999 V2000
  -13.7150   -0.3860   -2.0470 O   0  0  0  0  0  0  0  0  0  0  0  0
  -13.2530   -1.2050   -1.1910 C   0  0  0  0  0  0  0  0  0  0  0  0
  -12.3790   -2.1010   -1.4130 O   0  0  0  0  0  0  0  0  0  0  0  0
  -13.7950   -1.1040    0.2220 C   0  0  0  0  0  0  0  0  0  0  0  0
  -15.1830   -0.9340    0.4500 C   0  0  0  0  0  0  0  0  0  0  0  0
  -15.7050   -0.8380    1.7440 C   0  0  0  0  0  0  0  0  0  0  0  0
  -14.8190   -0.9150    2.7960 C   0  0  0  0  0  0  0  0  0  0  0  0
  -13.4670   -1.0810    2.5940 C   0  0  0  0  0  0  0  0  0  0  0  0
  -12.9280   -1.1780    1.3290 C   0  0  0  0  0  0  0  0  0  0  0  0
  -12.7720   -1.1320    3.7630 O   0  0  0  0  0  0  0  0  0  0  0  0
  -13.8400   -0.9800    4.7160 C   0  0  0  0  0  0  0  0  0  0  0  0
  -15.1430   -0.8420    4.1150 O   0  0  0  0  0  0  0  0  0  0  0  0
  -15.8658   -0.8762   -0.4105 H   0  0  0  0  0  0  0  0  0  0  0  0
  -16.7835   -0.7059    1.9154 H   0  0  0  0  0  0  0  0  0  0  0  0
  -11.8452   -1.3102    1.1876 H   0  0  0  0  0  0  0  0  0  0  0  0
  -13.8512   -1.8659    5.3680 H   0  0  0  0  0  0  0  0  0  0  0  0
  -13.6437   -0.0505    5.2705 H   0  0  0  0  0  0  0  0  0  0  0  0
  1  2  2  0
  2  3  1  0
  2  4  1  0
  4  5  2  0
  5  6  1  0
  6  7  2  0
  7  8  1  0
  8  9  2  0
  8 10  1  0
 10 11  1  0
 11 12  1  0
  9  4  1  0
 12  7  1  0
  5 13  1  0
  6 14  1  0
  9 15  1  0
 11 16  1  0
 11 17  1  0
M  CHG  1   3  -1
M  END
>  <meeko>  (8) 
{"is_sidechain": [false], "free_energy": -5.818, "intermolecular_energy": -6.163, "internal_energy": -0.053}

$$$$
4ddk_ligand
     RDKit          3D

 17 18  0  0  0  0  0  0  0  0999 V2000
  -18.4530    1.5300    0.1540 O   0  0  0  0  0  0  0  0  0  0  0  0
  -17.7170    1.2330   -0.8390 C   0  0  0  0  0  0  0  0  0  0  0  0
  -17.7440    1.7910   -1.9810 O   0  0  0  0  0  0  0  0  0  0  0  0
  -16.7150    0.1100   -0.6420 C   0  0  0  0  0  0  0  0  0  0  0  0
  -16.4930   -0.4380    0.6460 C   0  0  0  0  0  0  0  0  0  0  0  0
  -15.5750   -1.4730    0.8510 C   0  0  0  0  0  0  0  0  0  0  0  0
  -14.8900   -1.9440   -0.2480 C   0  0  0  0  0  0  0  0  0  0  0  0
  -15.0920   -1.4240   -1.5060 C   0  0  0  0  0  0  0  0  0  0  0  0
  -15.9910   -0.4040   -1.7340 C   0  0  0  0  0  0  0  0  0  0  0  0
  -14.3160   -2.0290   -2.4470 O   0  0  0  0  0  0  0  0  0  0  0  0
  -13.6080   -2.9840   -1.6360 C   0  0  0  0  0  0  0  0  0  0  0  0
  -13.9630   -2.9400   -0.2390 O   0  0  0  0  0  0  0  0  0  0  0  0
  -17.0553   -0.0404    1.5037 H   0  0  0  0  0  0  0  0  0  0  0  0
  -15.4060   -1.8954    1.8525 H   0  0  0  0  0  0  0  0  0  0  0  0
  -16.1391   -0.0009   -2.7467 H   0  0  0  0  0  0  0  0  0  0  0  0
  -13.8267   -3.9923   -2.0175 H   0  0  0  0  0  0  0  0  0  0  0  0
  -12.5397   -2.7303   -1.7025 H   0  0  0  0  0  0  0  0  0  0  0  0
  1  2  2  0
  2  3  1  0
  2  4  1  0
  4  5  2  0
  5  6  1  0
  6  7  2  0
  7  8  1  0
  8  9  2  0
  8 10  1  0
 10 11  1  0
 11 12  1  0
  9  4  1  0
 12  7  1  0
  5 13  1  0
  6 14  1  0
  9 15  1  0
 11 16  1  0
 11 17  1  0
M  CHG  1   3  -1
M  END
>  <meeko>  (9) 
{"is_sidechain": [false], "free_energy": -5.55, "intermolecular_energy": -5.875, "internal_energy": -0.058}

$$$$
