3n76_ligand
     RDKit          3D

 39 40  0  0  0  0  0  0  0  0999 V2000
  -51.7600  -36.5520  -61.2570 O   0  0  0  0  0  0  0  0  0  0  0  0
  -52.1030  -37.6900  -61.7120 C   0  0  0  0  0  0  0  0  0  0  0  0
  -52.7070  -37.9890  -62.7790 O   0  0  0  0  0  0  0  0  0  0  0  0
  -51.6960  -38.8780  -60.7540 C   0  0  2  0  0  0  0  0  0  0  0  0
  -52.4660  -38.7780  -59.5310 O   0  0  0  0  0  0  0  0  0  0  0  0
  -50.2520  -38.7440  -60.3480 C   0  0  0  0  0  0  0  0  0  0  0  0
  -49.3910  -39.7770  -60.2820 C   0  0  0  0  0  0  0  0  0  0  0  0
  -47.9830  -39.5910  -59.9550 C   0  0  0  0  0  0  0  0  0  0  0  0
  -47.3230  -38.4230  -60.0450 C   0  0  0  0  0  0  0  0  0  0  0  0
  -45.8640  -38.2590  -59.7520 C   0  0  0  0  0  0  0  0  0  0  0  0
  -45.4220  -37.0590  -60.3840 O   0  0  0  0  0  0  0  0  0  0  0  0
  -44.1830  -37.0780  -60.9620 C   0  0  0  0  0  0  0  0  0  0  0  0
  -43.5330  -35.9960  -61.5530 C   0  0  0  0  0  0  0  0  0  0  0  0
  -42.2580  -36.1590  -62.1090 C   0  0  0  0  0  0  0  0  0  0  0  0
  -41.6320  -37.4040  -62.0760 C   0  0  0  0  0  0  0  0  0  0  0  0
  -42.2770  -38.4890  -61.4850 C   0  0  0  0  0  0  0  0  0  0  0  0
  -43.5480  -38.3230  -60.9320 C   0  0  0  0  0  0  0  0  0  0  0  0
  -49.8550  -41.2030  -60.5170 C   0  0  1  0  0  0  0  0  0  0  0  0
  -49.4030  -42.0350  -59.4340 O   0  0  0  0  0  0  0  0  0  0  0  0
  -51.3940  -41.3640  -60.6600 C   0  0  2  0  0  0  0  0  0  0  0  0
  -51.7050  -42.6000  -61.3320 O   0  0  0  0  0  0  0  0  0  0  0  0
  -52.0140  -40.2070  -61.4350 C   0  0  0  0  0  0  0  0  0  0  0  0
  -52.4800  -37.7970  -59.3890 H   0  0  0  0  0  0  0  0  0  0  0  0
  -49.8783  -37.7421  -60.0899 H   0  0  0  0  0  0  0  0  0  0  0  0
  -47.4192  -40.4701  -59.6094 H   0  0  0  0  0  0  0  0  0  0  0  0
  -47.8904  -37.5324  -60.3531 H   0  0  0  0  0  0  0  0  0  0  0  0
  -45.7065  -38.1891  -58.6656 H   0  0  0  0  0  0  0  0  0  0  0  0
  -45.2977  -39.1226  -60.1309 H   0  0  0  0  0  0  0  0  0  0  0  0
  -44.0227  -35.0115  -61.5828 H   0  0  0  0  0  0  0  0  0  0  0  0
  -41.7488  -35.3016  -62.5733 H   0  0  0  0  0  0  0  0  0  0  0  0
  -40.6314  -37.5298  -62.5153 H   0  0  0  0  0  0  0  0  0  0  0  0
  -41.7861  -39.4729  -61.4544 H   0  0  0  0  0  0  0  0  0  0  0  0
  -44.0554  -39.1814  -60.4675 H   0  0  0  0  0  0  0  0  0  0  0  0
  -49.4178  -41.5069  -61.4796 H   0  0  0  0  0  0  0  0  0  0  0  0
  -50.1370  -42.6520  -59.2660 H   0  0  0  0  0  0  0  0  0  0  0  0
  -51.8170  -41.3695  -59.6446 H   0  0  0  0  0  0  0  0  0  0  0  0
  -52.2750  -42.3720  -62.0860 H   0  0  0  0  0  0  0  0  0  0  0  0
  -51.6077  -40.1967  -62.4572 H   0  0  0  0  0  0  0  0  0  0  0  0
  -53.1055  -40.3410  -61.4629 H   0  0  0  0  0  0  0  0  0  0  0  0
  1  2  2  0
  2  3  1  0
  2  4  1  0
  4  5  1  1
  4  6  1  0
  6  7  2  0
  7  8  1  0
  8  9  2  0
  9 10  1  0
 10 11  1  0
 11 12  1  0
 12 13  2  0
 13 14  1  0
 14 15  2  0
 15 16  1  0
 16 17  2  0
  7 18  1  0
 18 19  1  0
 18 20  1  0
 20 21  1  0
 20 22  1  0
 22  4  1  0
 17 12  1  0
  5 23  1  0
  6 24  1  0
  8 25  1  0
  9 26  1  0
 10 27  1  0
 10 28  1  0
 13 29  1  0
 14 30  1  0
 15 31  1  0
 16 32  1  0
 17 33  1  0
 18 34  1  6
 19 35  1  0
 20 36  1  1
 21 37  1  0
 22 38  1  0
 22 39  1  0
M  CHG  1   3  -1
M  END
>  <meeko>  (1) 
{"is_sidechain": [false], "free_energy": -11.089, "intermolecular_energy": -15.302, "internal_energy": -0.454}

$$$$
3n76_ligand
     RDKit          3D

 39 40  0  0  0  0  0  0  0  0999 V2000
  -43.7060  -40.4850  -62.1600 O   0  0  0  0  0  0  0  0  0  0  0  0
  -42.6570  -39.9270  -61.7030 C   0  0  0  0  0  0  0  0  0  0  0  0
  -41.4560  -40.3150  -61.7230 O   0  0  0  0  0  0  0  0  0  0  0  0
  -42.9580  -38.5430  -61.0040 C   0  0  2  0  0  0  0  0  0  0  0  0
  -42.0720  -38.3890  -59.8680 O   0  0  0  0  0  0  0  0  0  0  0  0
  -44.3560  -38.5400  -60.4430 C   0  0  0  0  0  0  0  0  0  0  0  0
  -45.1990  -37.4930  -60.5300 C   0  0  0  0  0  0  0  0  0  0  0  0
  -46.5690  -37.5610  -60.0380 C   0  0  0  0  0  0  0  0  0  0  0  0
  -47.1000  -38.6110  -59.3900 C   0  0  0  0  0  0  0  0  0  0  0  0
  -48.5240  -38.6830  -58.9340 C   0  0  0  0  0  0  0  0  0  0  0  0
  -49.1700  -39.7180  -59.6730 O   0  0  0  0  0  0  0  0  0  0  0  0
  -50.2170  -39.3520  -60.4730 C   0  0  0  0  0  0  0  0  0  0  0  0
  -51.0030  -40.2080  -61.2450 C   0  0  0  0  0  0  0  0  0  0  0  0
  -52.0480  -39.6940  -62.0210 C   0  0  0  0  0  0  0  0  0  0  0  0
  -52.3100  -38.3250  -62.0290 C   0  0  0  0  0  0  0  0  0  0  0  0
  -51.5280  -37.4660  -61.2600 C   0  0  0  0  0  0  0  0  0  0  0  0
  -50.4860  -37.9800  -60.4870 C   0  0  0  0  0  0  0  0  0  0  0  0
  -44.7500  -36.1710  -61.1240 C   0  0  1  0  0  0  0  0  0  0  0  0
  -45.0870  -35.1040  -60.2200 O   0  0  0  0  0  0  0  0  0  0  0  0
  -43.2320  -36.0910  -61.4460 C   0  0  2  0  0  0  0  0  0  0  0  0
  -42.9800  -35.0470  -62.4060 O   0  0  0  0  0  0  0  0  0  0  0  0
  -42.7000  -37.4110  -61.9940 C   0  0  0  0  0  0  0  0  0  0  0  0
  -41.2780  -38.9010  -60.1690 H   0  0  0  0  0  0  0  0  0  0  0  0
  -44.7097  -39.4474  -59.9315 H   0  0  0  0  0  0  0  0  0  0  0  0
  -47.2160  -36.6882  -60.2099 H   0  0  0  0  0  0  0  0  0  0  0  0
  -46.4477  -39.4718  -59.1814 H   0  0  0  0  0  0  0  0  0  0  0  0
  -48.5608  -38.9128  -57.8589 H   0  0  0  0  0  0  0  0  0  0  0  0
  -49.0289  -37.7203  -59.1020 H   0  0  0  0  0  0  0  0  0  0  0  0
  -50.8009  -41.2893  -61.2437 H   0  0  0  0  0  0  0  0  0  0  0  0
  -52.6653  -40.3733  -62.6273 H   0  0  0  0  0  0  0  0  0  0  0  0
  -53.1317  -37.9241  -62.6406 H   0  0  0  0  0  0  0  0  0  0  0  0
  -51.7314  -36.3850  -61.2621 H   0  0  0  0  0  0  0  0  0  0  0  0
  -49.8697  -37.2985  -59.8823 H   0  0  0  0  0  0  0  0  0  0  0  0
  -45.2780  -36.0787  -62.0846 H   0  0  0  0  0  0  0  0  0  0  0  0
  -45.6130  -34.4790  -60.7500 H   0  0  0  0  0  0  0  0  0  0  0  0
  -42.7101  -35.8695  -60.5033 H   0  0  0  0  0  0  0  0  0  0  0  0
  -42.0440  -35.1220  -62.6600 H   0  0  0  0  0  0  0  0  0  0  0  0
  -43.2056  -37.6386  -62.9440 H   0  0  0  0  0  0  0  0  0  0  0  0
  -41.6157  -37.3186  -62.1543 H   0  0  0  0  0  0  0  0  0  0  0  0
  1  2  2  0
  2  3  1  0
  2  4  1  0
  4  5  1  1
  4  6  1  0
  6  7  2  0
  7  8  1  0
  8  9  2  0
  9 10  1  0
 10 11  1  0
 11 12  1  0
 12 13  2  0
 13 14  1  0
 14 15  2  0
 15 16  1  0
 16 17  2  0
  7 18  1  0
 18 19  1  0
 18 20  1  0
 20 21  1  0
 20 22  1  0
 22  4  1  0
 17 12  1  0
  5 23  1  0
  6 24  1  0
  8 25  1  0
  9 26  1  0
 10 27  1  0
 10 28  1  0
 13 29  1  0
 14 30  1  0
 15 31  1  0
 16 32  1  0
 17 33  1  0
 18 34  1  6
 19 35  1  0
 20 36  1  1
 21 37  1  0
 22 38  1  0
 22 39  1  0
M  CHG  1   3  -1
M  END
>  <meeko>  (2) 
{"is_sidechain": [false], "free_energy": -9.026, "intermolecular_energy": -12.32, "internal_energy": -0.59}

$$$$
3n76_ligand
     RDKit          3D

 39 40  0  0  0  0  0  0  0  0999 V2000
  -52.2000  -42.5890  -61.5870 O   0  0  0  0  0  0  0  0  0  0  0  0
  -51.3510  -41.9730  -60.8660 C   0  0  0  0  0  0  0  0  0  0  0  0
  -50.6970  -42.3710  -59.8630 O   0  0  0  0  0  0  0  0  0  0  0  0
  -51.1210  -40.4820  -61.3340 C   0  0  2  0  0  0  0  0  0  0  0  0
  -51.2090  -40.4260  -62.7790 O   0  0  0  0  0  0  0  0  0  0  0  0
  -49.7240  -40.0400  -60.9850 C   0  0  0  0  0  0  0  0  0  0  0  0
  -49.4240  -38.8270  -60.4820 C   0  0  0  0  0  0  0  0  0  0  0  0
  -48.0670  -38.4670  -60.0900 C   0  0  0  0  0  0  0  0  0  0  0  0
  -47.0590  -39.3410  -59.9280 C   0  0  0  0  0  0  0  0  0  0  0  0
  -45.6830  -38.9600  -59.4780 C   0  0  0  0  0  0  0  0  0  0  0  0
  -44.8000  -39.1100  -60.5890 O   0  0  0  0  0  0  0  0  0  0  0  0
  -44.1900  -37.9780  -61.0570 C   0  0  0  0  0  0  0  0  0  0  0  0
  -42.9850  -37.9210  -61.7570 C   0  0  0  0  0  0  0  0  0  0  0  0
  -42.4750  -36.6880  -62.1790 C   0  0  0  0  0  0  0  0  0  0  0  0
  -43.1660  -35.5100  -61.9010 C   0  0  0  0  0  0  0  0  0  0  0  0
  -44.3710  -35.5610  -61.2020 C   0  0  0  0  0  0  0  0  0  0  0  0
  -44.8780  -36.7920  -60.7830 C   0  0  0  0  0  0  0  0  0  0  0  0
  -50.4870  -37.7560  -60.3250 C   0  0  1  0  0  0  0  0  0  0  0  0
  -50.0230  -36.5330  -60.9230 O   0  0  0  0  0  0  0  0  0  0  0  0
  -51.8660  -38.1210  -60.9420 C   0  0  2  0  0  0  0  0  0  0  0  0
  -52.9040  -37.3110  -60.3590 O   0  0  0  0  0  0  0  0  0  0  0  0
  -52.2070  -39.5920  -60.7340 C   0  0  0  0  0  0  0  0  0  0  0  0
  -52.1140  -40.0420  -62.9040 H   0  0  0  0  0  0  0  0  0  0  0  0
  -48.9001  -40.7497  -61.1507 H   0  0  0  0  0  0  0  0  0  0  0  0
  -47.8524  -37.4026  -59.9140 H   0  0  0  0  0  0  0  0  0  0  0  0
  -47.2574  -40.4022  -60.1392 H   0  0  0  0  0  0  0  0  0  0  0  0
  -45.6780  -37.9147  -59.1353 H   0  0  0  0  0  0  0  0  0  0  0  0
  -45.3616  -39.6015  -58.6442 H   0  0  0  0  0  0  0  0  0  0  0  0
  -42.4343  -38.8473  -61.9779 H   0  0  0  0  0  0  0  0  0  0  0  0
  -41.5251  -36.6484  -62.7323 H   0  0  0  0  0  0  0  0  0  0  0  0
  -42.7615  -34.5423  -62.2324 H   0  0  0  0  0  0  0  0  0  0  0  0
  -44.9205  -34.6340  -60.9813 H   0  0  0  0  0  0  0  0  0  0  0  0
  -45.8289  -36.8295  -60.2314 H   0  0  0  0  0  0  0  0  0  0  0  0
  -50.6477  -37.6491  -59.2421 H   0  0  0  0  0  0  0  0  0  0  0  0
  -49.0510  -36.5950  -60.9060 H   0  0  0  0  0  0  0  0  0  0  0  0
  -51.8000  -37.9278  -62.0229 H   0  0  0  0  0  0  0  0  0  0  0  0
  -53.6460  -37.9070  -60.1610 H   0  0  0  0  0  0  0  0  0  0  0  0
  -52.2879  -39.7961  -59.6561 H   0  0  0  0  0  0  0  0  0  0  0  0
  -53.1624  -39.8101  -61.2336 H   0  0  0  0  0  0  0  0  0  0  0  0
  1  2  2  0
  2  3  1  0
  2  4  1  0
  4  5  1  6
  4  6  1  0
  6  7  2  0
  7  8  1  0
  8  9  2  0
  9 10  1  0
 10 11  1  0
 11 12  1  0
 12 13  2  0
 13 14  1  0
 14 15  2  0
 15 16  1  0
 16 17  2  0
  7 18  1  0
 18 19  1  0
 18 20  1  0
 20 21  1  0
 20 22  1  0
 22  4  1  0
 17 12  1  0
  5 23  1  0
  6 24  1  0
  8 25  1  0
  9 26  1  0
 10 27  1  0
 10 28  1  0
 13 29  1  0
 14 30  1  0
 15 31  1  0
 16 32  1  0
 17 33  1  0
 18 34  1  1
 19 35  1  0
 20 36  1  6
 21 37  1  0
 22 38  1  0
 22 39  1  0
M  CHG  1   3  -1
M  END
>  <meeko>  (3) 
{"is_sidechain": [false], "free_energy": -8.82, "intermolecular_energy": -12.114, "internal_energy": -0.511}

$$$$
