4w9l_ligand
     RDKit          3D

 84 86  0  0  0  0  0  0  0  0999 V2000
    6.4760   56.1310   95.5290 C   0  0  0  0  0  0  0  0  0  0  0  0
    7.5740   55.7550   94.5710 C   0  0  0  0  0  0  0  0  0  0  0  0
    7.3500   55.3160   93.4470 O   0  0  0  0  0  0  0  0  0  0  0  0
    8.8370   55.9520   95.0840 N   0  0  0  0  0  0  0  0  0  0  0  0
   10.0540   55.7170   94.2860 C   0  0  2  0  0  0  0  0  0  0  0  0
   10.1800   54.2100   93.9220 C   0  0  0  0  0  0  0  0  0  0  0  0
   10.0800   53.3170   94.7610 O   0  0  0  0  0  0  0  0  0  0  0  0
   10.3330   53.9440   92.5760 N   0  0  0  0  0  0  0  0  0  0  0  0
   10.7640   52.6160   92.1010 C   0  0  2  0  0  0  0  0  0  0  0  0
   11.9370   52.8190   91.0850 C   0  0  0  0  0  0  0  0  0  0  0  0
   12.7430   51.9440   90.7710 O   0  0  0  0  0  0  0  0  0  0  0  0
   12.0900   54.1420   90.6400 N   0  0  0  0  0  0  0  0  0  0  0  0
   13.2920   54.7870   91.1990 C   0  0  0  0  0  0  0  0  0  0  0  0
   14.0400   55.4020   90.0030 C   0  0  2  0  0  0  0  0  0  0  0  0
   13.6960   56.7740   89.8070 O   0  0  0  0  0  0  0  0  0  0  0  0
   13.5480   54.5760   88.8150 C   0  0  0  0  0  0  0  0  0  0  0  0
   12.0850   54.4040   89.1940 C   0  0  1  0  0  0  0  0  0  0  0  0
   11.1790   53.5370   88.3010 C   0  0  0  0  0  0  0  0  0  0  0  0
    9.9610   53.7130   88.2680 O   0  0  0  0  0  0  0  0  0  0  0  0
   11.8140   52.5050   87.6480 N   0  0  0  0  0  0  0  0  0  0  0  0
   11.0700   51.5540   86.8550 C   0  0  0  0  0  0  0  0  0  0  0  0
   11.7010   51.3690   85.4990 C   0  0  0  0  0  0  0  0  0  0  0  0
   12.0070   50.0890   85.0210 C   0  0  0  0  0  0  0  0  0  0  0  0
   12.6110   49.9230   83.7720 C   0  0  0  0  0  0  0  0  0  0  0  0
   12.9310   51.0340   82.9810 C   0  0  0  0  0  0  0  0  0  0  0  0
   13.5540   50.8480   81.6710 C   0  0  0  0  0  0  0  0  0  0  0  0
   12.7180   50.0040   80.4270 S   0  0  0  0  0  0  0  0  0  0  0  0
   14.0360   50.2760   79.3730 C   0  0  0  0  0  0  0  0  0  0  0  0
   15.0510   50.9440   79.8720 N   0  0  0  0  0  0  0  0  0  0  0  0
   14.7860   51.2760   81.1930 C   0  0  0  0  0  0  0  0  0  0  0  0
   15.8240   52.0310   81.9450 C   0  0  0  0  0  0  0  0  0  0  0  0
   12.6360   52.3150   83.4630 C   0  0  0  0  0  0  0  0  0  0  0  0
   12.0300   52.4810   84.7120 C   0  0  0  0  0  0  0  0  0  0  0  0
    9.5590   51.7960   91.5360 C   0  0  0  0  0  0  0  0  0  0  0  0
   10.0080   50.8650   90.3910 C   0  0  0  0  0  0  0  0  0  0  0  0
    8.9790   50.8900   92.6450 C   0  0  0  0  0  0  0  0  0  0  0  0
    8.4320   52.7160   91.0270 C   0  0  0  0  0  0  0  0  0  0  0  0
   11.3270   56.2960   94.9820 C   0  0  0  0  0  0  0  0  0  0  0  0
   12.5940   55.7060   94.3230 C   0  0  0  0  0  0  0  0  0  0  0  0
   11.3580   55.8940   96.4720 C   0  0  0  0  0  0  0  0  0  0  0  0
   11.3980   57.8310   94.8930 C   0  0  0  0  0  0  0  0  0  0  0  0
    6.8331   56.0087   96.5622 H   0  0  0  0  0  0  0  0  0  0  0  0
    6.1872   57.1793   95.3625 H   0  0  0  0  0  0  0  0  0  0  0  0
    5.6052   55.4798   95.3625 H   0  0  0  0  0  0  0  0  0  0  0  0
    8.9320   56.3100   96.0260 H   0  0  0  0  0  0  0  0  0  0  0  0
    9.9655   56.2691   93.3387 H   0  0  0  0  0  0  0  0  0  0  0  0
   10.6730   54.7310   92.0370 H   0  0  0  0  0  0  0  0  0  0  0  0
   11.1431   52.0048   92.9333 H   0  0  0  0  0  0  0  0  0  0  0  0
   13.0064   55.5715   91.9153 H   0  0  0  0  0  0  0  0  0  0  0  0
   13.9218   54.0649   91.7393 H   0  0  0  0  0  0  0  0  0  0  0  0
   15.1305   55.3805   90.1458 H   0  0  0  0  0  0  0  0  0  0  0  0
   13.6050   57.2190   90.6790 H   0  0  0  0  0  0  0  0  0  0  0  0
   13.6617   55.1199   87.8657 H   0  0  0  0  0  0  0  0  0  0  0  0
   14.0950   53.6363   88.6484 H   0  0  0  0  0  0  0  0  0  0  0  0
   11.5316   55.3271   88.9667 H   0  0  0  0  0  0  0  0  0  0  0  0
   12.6060   52.1230   88.1640 H   0  0  0  0  0  0  0  0  0  0  0  0
   11.0514   50.5864   87.3779 H   0  0  0  0  0  0  0  0  0  0  0  0
   10.0484   51.9374   86.7162 H   0  0  0  0  0  0  0  0  0  0  0  0
   11.7699   49.2068   85.6338 H   0  0  0  0  0  0  0  0  0  0  0  0
   12.8373   48.9105   83.4065 H   0  0  0  0  0  0  0  0  0  0  0  0
   14.0343   49.9120   78.3350 H   0  0  0  0  0  0  0  0  0  0  0  0
   15.6559   51.9087   83.0252 H   0  0  0  0  0  0  0  0  0  0  0  0
   16.8201   51.6449   81.6829 H   0  0  0  0  0  0  0  0  0  0  0  0
   15.7635   53.0976   81.6829 H   0  0  0  0  0  0  0  0  0  0  0  0
   12.8829   53.1974   82.8544 H   0  0  0  0  0  0  0  0  0  0  0  0
   11.8094   53.4937   85.0804 H   0  0  0  0  0  0  0  0  0  0  0  0
   10.4491   49.9503   90.8138 H   0  0  0  0  0  0  0  0  0  0  0  0
    9.1385   50.6002   89.7714 H   0  0  0  0  0  0  0  0  0  0  0  0
   10.7565   51.3805   89.7714 H   0  0  0  0  0  0  0  0  0  0  0  0
    9.2427   51.3019   93.6303 H   0  0  0  0  0  0  0  0  0  0  0  0
    7.8843   50.8458   92.5471 H   0  0  0  0  0  0  0  0  0  0  0  0
    9.3971   49.8773   92.5471 H   0  0  0  0  0  0  0  0  0  0  0  0
    7.8986   53.1514   91.8848 H   0  0  0  0  0  0  0  0  0  0  0  0
    8.8645   53.5223   90.4165 H   0  0  0  0  0  0  0  0  0  0  0  0
    7.7286   52.1308   90.4165 H   0  0  0  0  0  0  0  0  0  0  0  0
   13.2956   55.3793   95.1047 H   0  0  0  0  0  0  0  0  0  0  0  0
   12.3150   54.8452   93.6976 H   0  0  0  0  0  0  0  0  0  0  0  0
   13.0733   56.4736   93.6976 H   0  0  0  0  0  0  0  0  0  0  0  0
   11.2884   56.7966   97.0968 H   0  0  0  0  0  0  0  0  0  0  0  0
   10.5084   55.2304   96.6905 H   0  0  0  0  0  0  0  0  0  0  0  0
   12.2993   55.3685   96.6905 H   0  0  0  0  0  0  0  0  0  0  0  0
   11.4177   58.2566   95.9072 H   0  0  0  0  0  0  0  0  0  0  0  0
   12.3107   58.1252   94.3541 H   0  0  0  0  0  0  0  0  0  0  0  0
   10.5163   58.2082   94.3541 H   0  0  0  0  0  0  0  0  0  0  0  0
  1  2  1  0
  2  3  2  0
  2  4  1  0
  4  5  1  0
  5  6  1  0
  6  7  2  0
  6  8  1  0
  8  9  1  0
  9 10  1  0
 10 11  2  0
 10 12  1  0
 12 13  1  0
 13 14  1  0
 14 15  1  0
 14 16  1  0
 16 17  1  0
 17 18  1  0
 18 19  2  0
 18 20  1  0
 20 21  1  0
 21 22  1  0
 22 23  2  0
 23 24  1  0
 24 25  2  0
 25 26  1  0
 26 27  1  0
 27 28  1  0
 28 29  2  0
 29 30  1  0
 30 31  1  0
 25 32  1  0
 32 33  2  0
  9 34  1  0
 34 35  1  0
 34 36  1  0
 34 37  1  0
  5 38  1  0
 38 39  1  0
 38 40  1  0
 38 41  1  0
 17 12  1  0
 33 22  1  0
 30 26  2  0
  1 42  1  0
  1 43  1  0
  1 44  1  0
  4 45  1  0
  5 46  1  6
  8 47  1  0
  9 48  1  1
 13 49  1  0
 13 50  1  0
 14 51  1  1
 15 52  1  0
 16 53  1  0
 16 54  1  0
 17 55  1  1
 20 56  1  0
 21 57  1  0
 21 58  1  0
 23 59  1  0
 24 60  1  0
 28 61  1  0
 31 62  1  0
 31 63  1  0
 31 64  1  0
 32 65  1  0
 33 66  1  0
 35 67  1  0
 35 68  1  0
 35 69  1  0
 36 70  1  0
 36 71  1  0
 36 72  1  0
 37 73  1  0
 37 74  1  0
 37 75  1  0
 39 76  1  0
 39 77  1  0
 39 78  1  0
 40 79  1  0
 40 80  1  0
 40 81  1  0
 41 82  1  0
 41 83  1  0
 41 84  1  0
M  END
>  <meeko>  (1) 
{"is_sidechain": [false], "free_energy": -7.631, "intermolecular_energy": -12.762, "internal_energy": -1.562}

$$$$
4w9l_ligand
     RDKit          3D

 84 86  0  0  0  0  0  0  0  0999 V2000
    7.1840   53.0660   94.4840 C   0  0  0  0  0  0  0  0  0  0  0  0
    8.0480   54.1090   93.8290 C   0  0  0  0  0  0  0  0  0  0  0  0
    7.8650   54.4940   92.6790 O   0  0  0  0  0  0  0  0  0  0  0  0
    9.0530   54.5760   94.6480 N   0  0  0  0  0  0  0  0  0  0  0  0
    9.9690   55.6530   94.2300 C   0  0  2  0  0  0  0  0  0  0  0  0
   11.3900   55.0810   93.9610 C   0  0  0  0  0  0  0  0  0  0  0  0
   12.4150   55.6990   94.2410 O   0  0  0  0  0  0  0  0  0  0  0  0
   11.4170   53.7950   93.4600 N   0  0  0  0  0  0  0  0  0  0  0  0
   12.6460   53.2260   92.8740 C   0  0  2  0  0  0  0  0  0  0  0  0
   12.4960   53.2440   91.3160 C   0  0  0  0  0  0  0  0  0  0  0  0
   12.2760   52.2470   90.6290 O   0  0  0  0  0  0  0  0  0  0  0  0
   12.7640   54.4890   90.7270 N   0  0  0  0  0  0  0  0  0  0  0  0
   14.0900   55.0150   91.1020 C   0  0  0  0  0  0  0  0  0  0  0  0
   14.7780   55.4150   89.7860 C   0  0  2  0  0  0  0  0  0  0  0  0
   14.5880   56.7980   89.4840 O   0  0  0  0  0  0  0  0  0  0  0  0
   14.0650   54.5600   88.7400 C   0  0  0  0  0  0  0  0  0  0  0  0
   12.6400   54.6190   89.2680 C   0  0  1  0  0  0  0  0  0  0  0  0
   11.5440   53.8050   88.5570 C   0  0  0  0  0  0  0  0  0  0  0  0
   10.3530   53.9820   88.8100 O   0  0  0  0  0  0  0  0  0  0  0  0
   12.0020   52.8130   87.7190 N   0  0  0  0  0  0  0  0  0  0  0  0
   11.0860   51.9090   87.0620 C   0  0  0  0  0  0  0  0  0  0  0  0
   11.5600   51.5730   85.6720 C   0  0  0  0  0  0  0  0  0  0  0  0
   11.8750   50.2540   85.3230 C   0  0  0  0  0  0  0  0  0  0  0  0
   12.3350   49.9490   84.0390 C   0  0  0  0  0  0  0  0  0  0  0  0
   12.4990   50.9580   83.0820 C   0  0  0  0  0  0  0  0  0  0  0  0
   12.9710   50.6270   81.7380 C   0  0  0  0  0  0  0  0  0  0  0  0
   11.9550   49.7630   80.6530 S   0  0  0  0  0  0  0  0  0  0  0  0
   13.1760   49.8490   79.4590 C   0  0  0  0  0  0  0  0  0  0  0  0
   14.2810   50.4690   79.8030 N   0  0  0  0  0  0  0  0  0  0  0  0
   14.1770   50.9190   81.1120 C   0  0  0  0  0  0  0  0  0  0  0  0
   15.3370   51.6420   81.6970 C   0  0  0  0  0  0  0  0  0  0  0  0
   12.1960   52.2790   83.4340 C   0  0  0  0  0  0  0  0  0  0  0  0
   11.7350   52.5840   84.7180 C   0  0  0  0  0  0  0  0  0  0  0  0
   12.9620   51.8180   93.4740 C   0  0  0  0  0  0  0  0  0  0  0  0
   14.0370   51.0880   92.6430 C   0  0  0  0  0  0  0  0  0  0  0  0
   13.5340   51.9760   94.9010 C   0  0  0  0  0  0  0  0  0  0  0  0
   11.7000   50.9360   93.5550 C   0  0  0  0  0  0  0  0  0  0  0  0
    9.9610   56.8480   95.2370 C   0  0  0  0  0  0  0  0  0  0  0  0
   10.3010   56.3350   96.6550 C   0  0  0  0  0  0  0  0  0  0  0  0
    8.5560   57.4850   95.3070 C   0  0  0  0  0  0  0  0  0  0  0  0
   10.9720   57.9440   94.8570 C   0  0  0  0  0  0  0  0  0  0  0  0
    7.2615   53.1595   95.5773 H   0  0  0  0  0  0  0  0  0  0  0  0
    6.1377   53.2109   94.1768 H   0  0  0  0  0  0  0  0  0  0  0  0
    7.5211   52.0650   94.1768 H   0  0  0  0  0  0  0  0  0  0  0  0
    9.1390   54.1960   95.5820 H   0  0  0  0  0  0  0  0  0  0  0  0
    9.6074   56.0729   93.2798 H   0  0  0  0  0  0  0  0  0  0  0  0
   10.5510   53.5050   93.0210 H   0  0  0  0  0  0  0  0  0  0  0  0
   13.5244   53.8353   93.1331 H   0  0  0  0  0  0  0  0  0  0  0  0
   13.9815   55.8914   91.7578 H   0  0  0  0  0  0  0  0  0  0  0  0
   14.6787   54.2658   91.6517 H   0  0  0  0  0  0  0  0  0  0  0  0
   15.8663   55.2607   89.8281 H   0  0  0  0  0  0  0  0  0  0  0  0
   13.7980   56.9040   88.9080 H   0  0  0  0  0  0  0  0  0  0  0  0
   14.1448   54.9971   87.7337 H   0  0  0  0  0  0  0  0  0  0  0  0
   14.4706   53.5445   88.6206 H   0  0  0  0  0  0  0  0  0  0  0  0
   12.1852   55.5836   88.9983 H   0  0  0  0  0  0  0  0  0  0  0  0
   12.8850   52.4020   88.0190 H   0  0  0  0  0  0  0  0  0  0  0  0
   11.0117   50.9824   87.6501 H   0  0  0  0  0  0  0  0  0  0  0  0
   10.1041   52.3991   86.9876 H   0  0  0  0  0  0  0  0  0  0  0  0
   11.7594   49.4510   86.0658 H   0  0  0  0  0  0  0  0  0  0  0  0
   12.5704   48.9067   83.7778 H   0  0  0  0  0  0  0  0  0  0  0  0
   13.0432   49.4097   78.4593 H   0  0  0  0  0  0  0  0  0  0  0  0
   15.2768   51.6045   82.7947 H   0  0  0  0  0  0  0  0  0  0  0  0
   16.2713   51.1660   81.3645 H   0  0  0  0  0  0  0  0  0  0  0  0
   15.3212   52.6904   81.3645 H   0  0  0  0  0  0  0  0  0  0  0  0
   12.3217   53.0833   82.6942 H   0  0  0  0  0  0  0  0  0  0  0  0
   11.5075   53.6274   84.9818 H   0  0  0  0  0  0  0  0  0  0  0  0
   14.7548   50.6006   93.3192 H   0  0  0  0  0  0  0  0  0  0  0  0
   13.5569   50.3284   92.0086 H   0  0  0  0  0  0  0  0  0  0  0  0
   14.5660   51.8144   92.0086 H   0  0  0  0  0  0  0  0  0  0  0  0
   12.7467   51.7585   95.6378 H   0  0  0  0  0  0  0  0  0  0  0  0
   14.3704   51.2752   95.0405 H   0  0  0  0  0  0  0  0  0  0  0  0
   13.8921   53.0067   95.0405 H   0  0  0  0  0  0  0  0  0  0  0  0
   11.4445   50.7575   94.6099 H   0  0  0  0  0  0  0  0  0  0  0  0
   10.8630   51.4468   93.0564 H   0  0  0  0  0  0  0  0  0  0  0  0
   11.8920   49.9745   93.0564 H   0  0  0  0  0  0  0  0  0  0  0  0
    9.8561   57.0063   97.4043 H   0  0  0  0  0  0  0  0  0  0  0  0
    9.8958   55.3206   96.7849 H   0  0  0  0  0  0  0  0  0  0  0  0
   11.3931   56.3130   96.7849 H   0  0  0  0  0  0  0  0  0  0  0  0
    8.2652   57.6168   96.3596 H   0  0  0  0  0  0  0  0  0  0  0  0
    8.5719   58.4640   94.8056 H   0  0  0  0  0  0  0  0  0  0  0  0
    7.8301   56.8280   94.8056 H   0  0  0  0  0  0  0  0  0  0  0  0
   11.3866   58.3934   95.7714 H   0  0  0  0  0  0  0  0  0  0  0  0
   11.7863   57.5021   94.2640 H   0  0  0  0  0  0  0  0  0  0  0  0
   10.4659   58.7200   94.2640 H   0  0  0  0  0  0  0  0  0  0  0  0
  1  2  1  0
  2  3  2  0
  2  4  1  0
  4  5  1  0
  5  6  1  0
  6  7  2  0
  6  8  1  0
  8  9  1  0
  9 10  1  0
 10 11  2  0
 10 12  1  0
 12 13  1  0
 13 14  1  0
 14 15  1  0
 14 16  1  0
 16 17  1  0
 17 18  1  0
 18 19  2  0
 18 20  1  0
 20 21  1  0
 21 22  1  0
 22 23  2  0
 23 24  1  0
 24 25  2  0
 25 26  1  0
 26 27  1  0
 27 28  1  0
 28 29  2  0
 29 30  1  0
 30 31  1  0
 25 32  1  0
 32 33  2  0
  9 34  1  0
 34 35  1  0
 34 36  1  0
 34 37  1  0
  5 38  1  0
 38 39  1  0
 38 40  1  0
 38 41  1  0
 17 12  1  0
 33 22  1  0
 30 26  2  0
  1 42  1  0
  1 43  1  0
  1 44  1  0
  4 45  1  0
  5 46  1  6
  8 47  1  0
  9 48  1  6
 13 49  1  0
 13 50  1  0
 14 51  1  1
 15 52  1  0
 16 53  1  0
 16 54  1  0
 17 55  1  1
 20 56  1  0
 21 57  1  0
 21 58  1  0
 23 59  1  0
 24 60  1  0
 28 61  1  0
 31 62  1  0
 31 63  1  0
 31 64  1  0
 32 65  1  0
 33 66  1  0
 35 67  1  0
 35 68  1  0
 35 69  1  0
 36 70  1  0
 36 71  1  0
 36 72  1  0
 37 73  1  0
 37 74  1  0
 37 75  1  0
 39 76  1  0
 39 77  1  0
 39 78  1  0
 40 79  1  0
 40 80  1  0
 40 81  1  0
 41 82  1  0
 41 83  1  0
 41 84  1  0
M  END
>  <meeko>  (2) 
{"is_sidechain": [false], "free_energy": -7.564, "intermolecular_energy": -13.77, "internal_energy": -0.442}

$$$$
4w9l_ligand
     RDKit          3D

 84 86  0  0  0  0  0  0  0  0999 V2000
    7.2400   57.0800   96.8640 C   0  0  0  0  0  0  0  0  0  0  0  0
    8.2110   57.0610   95.7150 C   0  0  0  0  0  0  0  0  0  0  0  0
    8.3330   58.0010   94.9360 O   0  0  0  0  0  0  0  0  0  0  0  0
    8.9340   55.8920   95.6320 N   0  0  0  0  0  0  0  0  0  0  0  0
    9.9910   55.6920   94.6230 C   0  0  2  0  0  0  0  0  0  0  0  0
    9.8950   54.2650   94.0140 C   0  0  0  0  0  0  0  0  0  0  0  0
    9.6130   53.2760   94.6880 O   0  0  0  0  0  0  0  0  0  0  0  0
   10.0700   54.2000   92.6450 N   0  0  0  0  0  0  0  0  0  0  0  0
   10.3090   52.9140   91.9630 C   0  0  2  0  0  0  0  0  0  0  0  0
   11.7140   52.9810   91.2770 C   0  0  0  0  0  0  0  0  0  0  0  0
   12.5800   52.1140   91.3840 O   0  0  0  0  0  0  0  0  0  0  0  0
   11.9740   54.1920   90.6150 N   0  0  0  0  0  0  0  0  0  0  0  0
   12.9280   55.0400   91.3530 C   0  0  0  0  0  0  0  0  0  0  0  0
   14.0020   55.4580   90.3340 C   0  0  2  0  0  0  0  0  0  0  0  0
   13.7120   56.7250   89.7420 O   0  0  0  0  0  0  0  0  0  0  0  0
   13.9230   54.3650   89.2690 C   0  0  0  0  0  0  0  0  0  0  0  0
   12.4200   54.1480   89.2160 C   0  0  1  0  0  0  0  0  0  0  0  0
   11.8560   53.0400   88.3080 C   0  0  0  0  0  0  0  0  0  0  0  0
   12.2400   51.8750   88.4100 O   0  0  0  0  0  0  0  0  0  0  0  0
   10.9930   53.4700   87.3250 N   0  0  0  0  0  0  0  0  0  0  0  0
   10.4650   52.5530   86.3420 C   0  0  0  0  0  0  0  0  0  0  0  0
   11.4240   52.3800   85.1930 C   0  0  0  0  0  0  0  0  0  0  0  0
   12.3820   53.3600   84.9070 C   0  0  0  0  0  0  0  0  0  0  0  0
   13.2570   53.2060   83.8280 C   0  0  0  0  0  0  0  0  0  0  0  0
   13.1830   52.0730   83.0070 C   0  0  0  0  0  0  0  0  0  0  0  0
   14.1090   51.9160   81.8860 C   0  0  0  0  0  0  0  0  0  0  0  0
   15.7850   52.2430   82.0970 S   0  0  0  0  0  0  0  0  0  0  0  0
   16.0620   51.8080   80.4670 C   0  0  0  0  0  0  0  0  0  0  0  0
   15.0070   51.4400   79.7760 N   0  0  0  0  0  0  0  0  0  0  0  0
   13.8780   51.5010   80.5810 C   0  0  0  0  0  0  0  0  0  0  0  0
   12.5700   51.1310   79.9780 C   0  0  0  0  0  0  0  0  0  0  0  0
   12.2180   51.0980   83.2850 C   0  0  0  0  0  0  0  0  0  0  0  0
   11.3440   51.2520   84.3660 C   0  0  0  0  0  0  0  0  0  0  0  0
    9.1350   52.5600   90.9930 C   0  0  0  0  0  0  0  0  0  0  0  0
    7.8470   52.2320   91.7760 C   0  0  0  0  0  0  0  0  0  0  0  0
    8.8140   53.7790   90.0990 C   0  0  0  0  0  0  0  0  0  0  0  0
    9.4890   51.3720   90.0790 C   0  0  0  0  0  0  0  0  0  0  0  0
   11.4070   56.0320   95.1890 C   0  0  0  0  0  0  0  0  0  0  0  0
   11.4200   55.8230   96.7200 C   0  0  0  0  0  0  0  0  0  0  0  0
   11.7510   57.5150   94.9280 C   0  0  0  0  0  0  0  0  0  0  0  0
   12.5130   55.1620   94.5660 C   0  0  0  0  0  0  0  0  0  0  0  0
    7.7953   57.0691   97.8135 H   0  0  0  0  0  0  0  0  0  0  0  0
    6.6250   57.9904   96.8093 H   0  0  0  0  0  0  0  0  0  0  0  0
    6.5898   56.1944   96.8093 H   0  0  0  0  0  0  0  0  0  0  0  0
    8.7630   55.1610   96.3120 H   0  0  0  0  0  0  0  0  0  0  0  0
    9.8300   56.4028   93.7991 H   0  0  0  0  0  0  0  0  0  0  0  0
   10.5570   54.9980   92.2550 H   0  0  0  0  0  0  0  0  0  0  0  0
   10.3273   52.0829   92.6833 H   0  0  0  0  0  0  0  0  0  0  0  0
   12.4179   55.9273   91.7560 H   0  0  0  0  0  0  0  0  0  0  0  0
   13.3693   54.5018   92.2048 H   0  0  0  0  0  0  0  0  0  0  0  0
   14.9926   55.5618   90.8008 H   0  0  0  0  0  0  0  0  0  0  0  0
   13.0490   56.6090   89.0250 H   0  0  0  0  0  0  0  0  0  0  0  0
   14.3191   54.7090   88.3022 H   0  0  0  0  0  0  0  0  0  0  0  0
   14.5116   53.4624   89.4901 H   0  0  0  0  0  0  0  0  0  0  0  0
   11.9504   54.9527   88.6313 H   0  0  0  0  0  0  0  0  0  0  0  0
   11.1990   54.4090   86.9850 H   0  0  0  0  0  0  0  0  0  0  0  0
   10.2936   51.5759   86.8174 H   0  0  0  0  0  0  0  0  0  0  0  0
    9.5219   52.9633   85.9518 H   0  0  0  0  0  0  0  0  0  0  0  0
   12.4467   54.2593   85.5371 H   0  0  0  0  0  0  0  0  0  0  0  0
   14.0101   53.9808   83.6216 H   0  0  0  0  0  0  0  0  0  0  0  0
   17.0675   51.8347   80.0217 H   0  0  0  0  0  0  0  0  0  0  0  0
   11.8428   50.9253   80.7773 H   0  0  0  0  0  0  0  0  0  0  0  0
   12.2053   51.9612   79.3553 H   0  0  0  0  0  0  0  0  0  0  0  0
   12.6943   50.2328   79.3553 H   0  0  0  0  0  0  0  0  0  0  0  0
   12.1465   50.2038   82.6484 H   0  0  0  0  0  0  0  0  0  0  0  0
   10.5868   50.4803   84.5687 H   0  0  0  0  0  0  0  0  0  0  0  0
    8.0510   52.2839   92.8557 H   0  0  0  0  0  0  0  0  0  0  0  0
    7.0641   52.9594   91.5153 H   0  0  0  0  0  0  0  0  0  0  0  0
    7.5074   51.2187   91.5153 H   0  0  0  0  0  0  0  0  0  0  0  0
    8.5851   54.6484   90.7328 H   0  0  0  0  0  0  0  0  0  0  0  0
    9.6828   54.0069   89.4639 H   0  0  0  0  0  0  0  0  0  0  0  0
    7.9457   53.5494   89.4639 H   0  0  0  0  0  0  0  0  0  0  0  0
    9.7490   50.4993   90.6961 H   0  0  0  0  0  0  0  0  0  0  0  0
    8.6247   51.1276   89.4440 H   0  0  0  0  0  0  0  0  0  0  0  0
   10.3461   51.6406   89.4440 H   0  0  0  0  0  0  0  0  0  0  0  0
   11.3593   56.7990   97.2238 H   0  0  0  0  0  0  0  0  0  0  0  0
   10.5586   55.2049   97.0130 H   0  0  0  0  0  0  0  0  0  0  0  0
   12.3514   55.3164   97.0130 H   0  0  0  0  0  0  0  0  0  0  0  0
   11.8723   58.0378   95.8882 H   0  0  0  0  0  0  0  0  0  0  0  0
   12.6878   57.5787   94.3550 H   0  0  0  0  0  0  0  0  0  0  0  0
   10.9379   57.9846   94.3550 H   0  0  0  0  0  0  0  0  0  0  0  0
   13.1065   54.6951   95.3659 H   0  0  0  0  0  0  0  0  0  0  0  0
   12.0562   54.3786   93.9434 H   0  0  0  0  0  0  0  0  0  0  0  0
   13.1668   55.7904   93.9434 H   0  0  0  0  0  0  0  0  0  0  0  0
  1  2  1  0
  2  3  2  0
  2  4  1  0
  4  5  1  0
  5  6  1  0
  6  7  2  0
  6  8  1  0
  8  9  1  0
  9 10  1  0
 10 11  2  0
 10 12  1  0
 12 13  1  0
 13 14  1  0
 14 15  1  0
 14 16  1  0
 16 17  1  0
 17 18  1  0
 18 19  2  0
 18 20  1  0
 20 21  1  0
 21 22  1  0
 22 23  2  0
 23 24  1  0
 24 25  2  0
 25 26  1  0
 26 27  1  0
 27 28  1  0
 28 29  2  0
 29 30  1  0
 30 31  1  0
 25 32  1  0
 32 33  2  0
  9 34  1  0
 34 35  1  0
 34 36  1  0
 34 37  1  0
  5 38  1  0
 38 39  1  0
 38 40  1  0
 38 41  1  0
 17 12  1  0
 33 22  1  0
 30 26  2  0
  1 42  1  0
  1 43  1  0
  1 44  1  0
  4 45  1  0
  5 46  1  6
  8 47  1  0
  9 48  1  1
 13 49  1  0
 13 50  1  0
 14 51  1  1
 15 52  1  0
 16 53  1  0
 16 54  1  0
 17 55  1  6
 20 56  1  0
 21 57  1  0
 21 58  1  0
 23 59  1  0
 24 60  1  0
 28 61  1  0
 31 62  1  0
 31 63  1  0
 31 64  1  0
 32 65  1  0
 33 66  1  0
 35 67  1  0
 35 68  1  0
 35 69  1  0
 36 70  1  0
 36 71  1  0
 36 72  1  0
 37 73  1  0
 37 74  1  0
 37 75  1  0
 39 76  1  0
 39 77  1  0
 39 78  1  0
 40 79  1  0
 40 80  1  0
 40 81  1  0
 41 82  1  0
 41 83  1  0
 41 84  1  0
M  END
>  <meeko>  (3) 
{"is_sidechain": [false], "free_energy": -7.14, "intermolecular_energy": -12.803, "internal_energy": -0.699}

$$$$
4w9l_ligand
     RDKit          3D

 84 86  0  0  0  0  0  0  0  0999 V2000
    7.3060   55.9840   96.6640 C   0  0  0  0  0  0  0  0  0  0  0  0
    8.1240   56.2190   95.4240 C   0  0  0  0  0  0  0  0  0  0  0  0
    7.8760   57.1190   94.6280 O   0  0  0  0  0  0  0  0  0  0  0  0
    9.1640   55.3270   95.2800 N   0  0  0  0  0  0  0  0  0  0  0  0
   10.1330   55.4220   94.1730 C   0  0  2  0  0  0  0  0  0  0  0  0
   10.0370   54.1670   93.2600 C   0  0  0  0  0  0  0  0  0  0  0  0
   10.2720   53.0320   93.6690 O   0  0  0  0  0  0  0  0  0  0  0  0
    9.5890   54.4110   91.9760 N   0  0  0  0  0  0  0  0  0  0  0  0
    9.7270   53.3990   90.9110 C   0  0  2  0  0  0  0  0  0  0  0  0
   10.9820   53.7670   90.0510 C   0  0  0  0  0  0  0  0  0  0  0  0
   11.1380   54.8450   89.4780 O   0  0  0  0  0  0  0  0  0  0  0  0
   11.8840   52.7070   89.8660 N   0  0  0  0  0  0  0  0  0  0  0  0
   11.6850   51.6230   90.8450 C   0  0  0  0  0  0  0  0  0  0  0  0
   11.6070   50.3210   90.0290 C   0  0  2  0  0  0  0  0  0  0  0  0
   12.8750   49.6720   89.9380 O   0  0  0  0  0  0  0  0  0  0  0  0
   11.1740   50.7980   88.6430 C   0  0  0  0  0  0  0  0  0  0  0  0
   11.9770   52.0850   88.5380 C   0  0  1  0  0  0  0  0  0  0  0  0
   11.7930   52.9820   87.3000 C   0  0  0  0  0  0  0  0  0  0  0  0
   10.7070   53.0600   86.7260 O   0  0  0  0  0  0  0  0  0  0  0  0
   12.9400   53.5850   86.8380 N   0  0  0  0  0  0  0  0  0  0  0  0
   12.9330   54.3750   85.6280 C   0  0  0  0  0  0  0  0  0  0  0  0
   13.1820   53.5140   84.4180 C   0  0  0  0  0  0  0  0  0  0  0  0
   14.4490   53.4650   83.8220 C   0  0  0  0  0  0  0  0  0  0  0  0
   14.6710   52.6820   82.6860 C   0  0  0  0  0  0  0  0  0  0  0  0
   13.6280   51.9390   82.1170 C   0  0  0  0  0  0  0  0  0  0  0  0
   13.8730   51.1150   80.9350 C   0  0  0  0  0  0  0  0  0  0  0  0
   12.8310   49.7960   80.5690 S   0  0  0  0  0  0  0  0  0  0  0  0
   13.7530   49.4720   79.1660 C   0  0  0  0  0  0  0  0  0  0  0  0
   14.7760   50.2660   78.9470 N   0  0  0  0  0  0  0  0  0  0  0  0
   14.8570   51.2130   79.9600 C   0  0  0  0  0  0  0  0  0  0  0  0
   15.9630   52.2050   79.9010 C   0  0  0  0  0  0  0  0  0  0  0  0
   12.3580   51.9960   82.7050 C   0  0  0  0  0  0  0  0  0  0  0  0
   12.1370   52.7790   83.8430 C   0  0  0  0  0  0  0  0  0  0  0  0
    8.4050   53.2540   90.0910 C   0  0  0  0  0  0  0  0  0  0  0  0
    7.1700   53.5230   90.9770 C   0  0  0  0  0  0  0  0  0  0  0  0
    8.3770   54.3040   88.9580 C   0  0  0  0  0  0  0  0  0  0  0  0
    8.2770   51.8560   89.4560 C   0  0  0  0  0  0  0  0  0  0  0  0
   11.5800   55.7050   94.6890 C   0  0  0  0  0  0  0  0  0  0  0  0
   11.8070   54.9710   96.0300 C   0  0  0  0  0  0  0  0  0  0  0  0
   11.7720   57.2140   94.9570 C   0  0  0  0  0  0  0  0  0  0  0  0
   12.6590   55.2490   93.6910 C   0  0  0  0  0  0  0  0  0  0  0  0
    7.9284   56.1628   97.5532 H   0  0  0  0  0  0  0  0  0  0  0  0
    6.4477   56.6719   96.6729 H   0  0  0  0  0  0  0  0  0  0  0  0
    6.9437   54.9454   96.6729 H   0  0  0  0  0  0  0  0  0  0  0  0
    9.2910   54.6070   95.9800 H   0  0  0  0  0  0  0  0  0  0  0  0
    9.8721   56.2910   93.5511 H   0  0  0  0  0  0  0  0  0  0  0  0
    9.6950   55.3730   91.6790 H   0  0  0  0  0  0  0  0  0  0  0  0
    9.8936   52.3986   91.3369 H   0  0  0  0  0  0  0  0  0  0  0  0
   12.5303   51.5832   91.5477 H   0  0  0  0  0  0  0  0  0  0  0  0
   10.7728   51.7804   91.4393 H   0  0  0  0  0  0  0  0  0  0  0  0
   10.9251   49.5893   90.4868 H   0  0  0  0  0  0  0  0  0  0  0  0
   13.5820   50.2870   90.2360 H   0  0  0  0  0  0  0  0  0  0  0  0
   11.4531   50.0786   87.8590 H   0  0  0  0  0  0  0  0  0  0  0  0
   10.0882   50.9200   88.5155 H   0  0  0  0  0  0  0  0  0  0  0  0
   13.0226   51.8505   88.2897 H   0  0  0  0  0  0  0  0  0  0  0  0
   13.7830   53.0320   86.9960 H   0  0  0  0  0  0  0  0  0  0  0  0
   11.9539   54.8656   85.5247 H   0  0  0  0  0  0  0  0  0  0  0  0
   13.7353   55.1245   85.6950 H   0  0  0  0  0  0  0  0  0  0  0  0
   15.2766   54.0482   84.2522 H   0  0  0  0  0  0  0  0  0  0  0  0
   15.6735   52.6486   82.2344 H   0  0  0  0  0  0  0  0  0  0  0  0
   13.5034   48.6450   78.4850 H   0  0  0  0  0  0  0  0  0  0  0  0
   16.2664   52.4771   80.9227 H   0  0  0  0  0  0  0  0  0  0  0  0
   16.8201   51.7673   79.3683 H   0  0  0  0  0  0  0  0  0  0  0  0
   15.6207   53.1045   79.3683 H   0  0  0  0  0  0  0  0  0  0  0  0
   11.5281   51.4207   82.2687 H   0  0  0  0  0  0  0  0  0  0  0  0
   11.1330   52.8180   84.2907 H   0  0  0  0  0  0  0  0  0  0  0  0
    7.4583   53.4602   92.0367 H   0  0  0  0  0  0  0  0  0  0  0  0
    6.7769   54.5278   90.7628 H   0  0  0  0  0  0  0  0  0  0  0  0
    6.3947   52.7727   90.7628 H   0  0  0  0  0  0  0  0  0  0  0  0
    8.3501   55.3135   89.3942 H   0  0  0  0  0  0  0  0  0  0  0  0
    9.2783   54.1970   88.3366 H   0  0  0  0  0  0  0  0  0  0  0  0
    7.4827   54.1491   88.3366 H   0  0  0  0  0  0  0  0  0  0  0  0
    8.2076   51.0977   90.2498 H   0  0  0  0  0  0  0  0  0  0  0  0
    7.3716   51.8180   88.8324 H   0  0  0  0  0  0  0  0  0  0  0  0
    9.1604   51.6542   88.8324 H   0  0  0  0  0  0  0  0  0  0  0  0
   11.5950   55.6566   96.8637 H   0  0  0  0  0  0  0  0  0  0  0  0
   11.1357   54.1017   96.0904 H   0  0  0  0  0  0  0  0  0  0  0  0
   12.8518   54.6324   96.0904 H   0  0  0  0  0  0  0  0  0  0  0  0
   11.7949   57.3937   96.0420 H   0  0  0  0  0  0  0  0  0  0  0  0
   12.7199   57.5481   94.5099 H   0  0  0  0  0  0  0  0  0  0  0  0
   10.9380   57.7748   94.5099 H   0  0  0  0  0  0  0  0  0  0  0  0
   13.5356   54.8785   94.2426 H   0  0  0  0  0  0  0  0  0  0  0  0
   12.2567   54.4440   93.0585 H   0  0  0  0  0  0  0  0  0  0  0  0
   12.9560   56.0986   93.0585 H   0  0  0  0  0  0  0  0  0  0  0  0
  1  2  1  0
  2  3  2  0
  2  4  1  0
  4  5  1  0
  5  6  1  0
  6  7  2  0
  6  8  1  0
  8  9  1  0
  9 10  1  0
 10 11  2  0
 10 12  1  0
 12 13  1  0
 13 14  1  0
 14 15  1  0
 14 16  1  0
 16 17  1  0
 17 18  1  0
 18 19  2  0
 18 20  1  0
 20 21  1  0
 21 22  1  0
 22 23  2  0
 23 24  1  0
 24 25  2  0
 25 26  1  0
 26 27  1  0
 27 28  1  0
 28 29  2  0
 29 30  1  0
 30 31  1  0
 25 32  1  0
 32 33  2  0
  9 34  1  0
 34 35  1  0
 34 36  1  0
 34 37  1  0
  5 38  1  0
 38 39  1  0
 38 40  1  0
 38 41  1  0
 17 12  1  0
 33 22  1  0
 30 26  2  0
  1 42  1  0
  1 43  1  0
  1 44  1  0
  4 45  1  0
  5 46  1  6
  8 47  1  0
  9 48  1  1
 13 49  1  0
 13 50  1  0
 14 51  1  1
 15 52  1  0
 16 53  1  0
 16 54  1  0
 17 55  1  6
 20 56  1  0
 21 57  1  0
 21 58  1  0
 23 59  1  0
 24 60  1  0
 28 61  1  0
 31 62  1  0
 31 63  1  0
 31 64  1  0
 32 65  1  0
 33 66  1  0
 35 67  1  0
 35 68  1  0
 35 69  1  0
 36 70  1  0
 36 71  1  0
 36 72  1  0
 37 73  1  0
 37 74  1  0
 37 75  1  0
 39 76  1  0
 39 77  1  0
 39 78  1  0
 40 79  1  0
 40 80  1  0
 40 81  1  0
 41 82  1  0
 41 83  1  0
 41 84  1  0
M  END
>  <meeko>  (4) 
{"is_sidechain": [false], "free_energy": -7.077, "intermolecular_energy": -12.678, "internal_energy": -0.719}

$$$$
4w9l_ligand
     RDKit          3D

 84 86  0  0  0  0  0  0  0  0999 V2000
   13.6620   54.8670   91.3160 C   0  0  0  0  0  0  0  0  0  0  0  0
   13.0930   54.3500   92.6100 C   0  0  0  0  0  0  0  0  0  0  0  0
   13.6200   53.4440   93.2490 O   0  0  0  0  0  0  0  0  0  0  0  0
   11.9350   54.9910   92.9910 N   0  0  0  0  0  0  0  0  0  0  0  0
   11.2530   54.6890   94.2630 C   0  0  2  0  0  0  0  0  0  0  0  0
   10.0950   53.6780   94.0300 C   0  0  0  0  0  0  0  0  0  0  0  0
    9.5400   53.0850   94.9530 O   0  0  0  0  0  0  0  0  0  0  0  0
    9.6820   53.5540   92.7180 N   0  0  0  0  0  0  0  0  0  0  0  0
    8.8190   52.4370   92.2880 C   0  0  2  0  0  0  0  0  0  0  0  0
    9.6880   51.4510   91.4380 C   0  0  0  0  0  0  0  0  0  0  0  0
    9.2340   50.5100   90.7880 O   0  0  0  0  0  0  0  0  0  0  0  0
   11.0720   51.6410   91.5730 N   0  0  0  0  0  0  0  0  0  0  0  0
   11.6910   50.6490   92.4710 C   0  0  0  0  0  0  0  0  0  0  0  0
   12.8970   50.0770   91.7080 C   0  0  2  0  0  0  0  0  0  0  0  0
   14.1080   50.7610   92.0340 O   0  0  0  0  0  0  0  0  0  0  0  0
   12.5430   50.3330   90.2440 C   0  0  0  0  0  0  0  0  0  0  0  0
   11.8960   51.7040   90.3570 C   0  0  1  0  0  0  0  0  0  0  0  0
   11.2880   52.3510   89.1000 C   0  0  0  0  0  0  0  0  0  0  0  0
   11.1800   53.5730   89.0000 O   0  0  0  0  0  0  0  0  0  0  0  0
   10.7880   51.4680   88.1700 N   0  0  0  0  0  0  0  0  0  0  0  0
   10.1020   51.9370   86.9880 C   0  0  0  0  0  0  0  0  0  0  0  0
   10.9860   51.8330   85.7730 C   0  0  0  0  0  0  0  0  0  0  0  0
   11.4070   50.5840   85.2990 C   0  0  0  0  0  0  0  0  0  0  0  0
   12.2440   50.4930   84.1830 C   0  0  0  0  0  0  0  0  0  0  0  0
   12.6850   51.6490   83.5260 C   0  0  0  0  0  0  0  0  0  0  0  0
   13.5520   51.5420   82.3540 C   0  0  0  0  0  0  0  0  0  0  0  0
   13.0830   50.5670   81.0170 S   0  0  0  0  0  0  0  0  0  0  0  0
   14.5150   51.0190   80.1990 C   0  0  0  0  0  0  0  0  0  0  0  0
   15.3170   51.8370   80.8420 N   0  0  0  0  0  0  0  0  0  0  0  0
   14.7750   52.1430   82.0830 C   0  0  0  0  0  0  0  0  0  0  0  0
   15.5420   53.0530   82.9750 C   0  0  0  0  0  0  0  0  0  0  0  0
   12.2740   52.8980   84.0060 C   0  0  0  0  0  0  0  0  0  0  0  0
   11.4350   52.9890   85.1220 C   0  0  0  0  0  0  0  0  0  0  0  0
    7.5380   52.9580   91.5590 C   0  0  0  0  0  0  0  0  0  0  0  0
    6.4830   51.8400   91.4250 C   0  0  0  0  0  0  0  0  0  0  0  0
    6.8880   54.0860   92.3920 C   0  0  0  0  0  0  0  0  0  0  0  0
    7.8640   53.5170   90.1610 C   0  0  0  0  0  0  0  0  0  0  0  0
   10.8030   55.9890   95.0050 C   0  0  0  0  0  0  0  0  0  0  0  0
   10.8990   55.7760   96.5320 C   0  0  0  0  0  0  0  0  0  0  0  0
    9.3280   56.3110   94.6810 C   0  0  0  0  0  0  0  0  0  0  0  0
   11.6600   57.2090   94.6240 C   0  0  0  0  0  0  0  0  0  0  0  0
   14.4605   55.5925   91.5305 H   0  0  0  0  0  0  0  0  0  0  0  0
   14.0747   54.0284   90.7359 H   0  0  0  0  0  0  0  0  0  0  0  0
   12.8667   55.3579   90.7359 H   0  0  0  0  0  0  0  0  0  0  0  0
   11.5630   55.7220   92.3980 H   0  0  0  0  0  0  0  0  0  0  0  0
   11.9708   54.2027   94.9400 H   0  0  0  0  0  0  0  0  0  0  0  0
   10.3690   53.8610   92.0390 H   0  0  0  0  0  0  0  0  0  0  0  0
    8.4319   51.8813   93.1548 H   0  0  0  0  0  0  0  0  0  0  0  0
   12.0224   51.1315   93.4023 H   0  0  0  0  0  0  0  0  0  0  0  0
   10.9786   49.8579   92.7478 H   0  0  0  0  0  0  0  0  0  0  0  0
   13.0720   49.0185   91.9510 H   0  0  0  0  0  0  0  0  0  0  0  0
   14.2580   50.7210   93.0050 H   0  0  0  0  0  0  0  0  0  0  0  0
   13.4393   50.3572   89.6067 H   0  0  0  0  0  0  0  0  0  0  0  0
   11.9096   49.5616   89.7817 H   0  0  0  0  0  0  0  0  0  0  0  0
   12.6751   52.4748   90.4512 H   0  0  0  0  0  0  0  0  0  0  0  0
   10.4200   50.6100   88.5800 H   0  0  0  0  0  0  0  0  0  0  0  0
    9.2002   51.3272   86.8298 H   0  0  0  0  0  0  0  0  0  0  0  0
    9.8325   52.9932   87.1355 H   0  0  0  0  0  0  0  0  0  0  0  0
   11.0763   49.6672   85.8091 H   0  0  0  0  0  0  0  0  0  0  0  0
   12.5592   49.5046   83.8174 H   0  0  0  0  0  0  0  0  0  0  0  0
   14.7512   50.6460   79.1915 H   0  0  0  0  0  0  0  0  0  0  0  0
   15.3302   52.8018   84.0248 H   0  0  0  0  0  0  0  0  0  0  0  0
   16.6183   52.9363   82.7800 H   0  0  0  0  0  0  0  0  0  0  0  0
   15.2448   54.0940   82.7800 H   0  0  0  0  0  0  0  0  0  0  0  0
   12.6132   53.8150   83.5020 H   0  0  0  0  0  0  0  0  0  0  0  0
   11.1251   53.9776   85.4916 H   0  0  0  0  0  0  0  0  0  0  0  0
    6.1705   51.5088   92.4263 H   0  0  0  0  0  0  0  0  0  0  0  0
    5.6100   52.2235   90.8766 H   0  0  0  0  0  0  0  0  0  0  0  0
    6.9164   50.9907   90.8766 H   0  0  0  0  0  0  0  0  0  0  0  0
    7.0129   53.8693   93.4632 H   0  0  0  0  0  0  0  0  0  0  0  0
    7.3724   55.0442   92.1528 H   0  0  0  0  0  0  0  0  0  0  0  0
    5.8161   54.1473   92.1528 H   0  0  0  0  0  0  0  0  0  0  0  0
    8.4157   54.4630   90.2639 H   0  0  0  0  0  0  0  0  0  0  0  0
    8.4804   52.7911   89.6104 H   0  0  0  0  0  0  0  0  0  0  0  0
    6.9287   53.6960   89.6104 H   0  0  0  0  0  0  0  0  0  0  0  0
   10.5005   56.6601   97.0513 H   0  0  0  0  0  0  0  0  0  0  0  0
   10.3136   54.8891   96.8160 H   0  0  0  0  0  0  0  0  0  0  0  0
   11.9512   55.6272   96.8160 H   0  0  0  0  0  0  0  0  0  0  0  0
    8.7651   56.4339   95.6181 H   0  0  0  0  0  0  0  0  0  0  0  0
    9.2756   57.2417   94.0971 H   0  0  0  0  0  0  0  0  0  0  0  0
    8.8925   55.4868   94.0971 H   0  0  0  0  0  0  0  0  0  0  0  0
   12.0118   57.7098   95.5380 H   0  0  0  0  0  0  0  0  0  0  0  0
   12.5253   56.8784   94.0308 H   0  0  0  0  0  0  0  0  0  0  0  0
   11.0555   57.9109   94.0308 H   0  0  0  0  0  0  0  0  0  0  0  0
  1  2  1  0
  2  3  2  0
  2  4  1  0
  4  5  1  0
  5  6  1  0
  6  7  2  0
  6  8  1  0
  8  9  1  0
  9 10  1  0
 10 11  2  0
 10 12  1  0
 12 13  1  0
 13 14  1  0
 14 15  1  0
 14 16  1  0
 16 17  1  0
 17 18  1  0
 18 19  2  0
 18 20  1  0
 20 21  1  0
 21 22  1  0
 22 23  2  0
 23 24  1  0
 24 25  2  0
 25 26  1  0
 26 27  1  0
 27 28  1  0
 28 29  2  0
 29 30  1  0
 30 31  1  0
 25 32  1  0
 32 33  2  0
  9 34  1  0
 34 35  1  0
 34 36  1  0
 34 37  1  0
  5 38  1  0
 38 39  1  0
 38 40  1  0
 38 41  1  0
 17 12  1  0
 33 22  1  0
 30 26  2  0
  1 42  1  0
  1 43  1  0
  1 44  1  0
  4 45  1  0
  5 46  1  1
  8 47  1  0
  9 48  1  1
 13 49  1  0
 13 50  1  0
 14 51  1  6
 15 52  1  0
 16 53  1  0
 16 54  1  0
 17 55  1  1
 20 56  1  0
 21 57  1  0
 21 58  1  0
 23 59  1  0
 24 60  1  0
 28 61  1  0
 31 62  1  0
 31 63  1  0
 31 64  1  0
 32 65  1  0
 33 66  1  0
 35 67  1  0
 35 68  1  0
 35 69  1  0
 36 70  1  0
 36 71  1  0
 36 72  1  0
 37 73  1  0
 37 74  1  0
 37 75  1  0
 39 76  1  0
 39 77  1  0
 39 78  1  0
 40 79  1  0
 40 80  1  0
 40 81  1  0
 41 82  1  0
 41 83  1  0
 41 84  1  0
M  END
>  <meeko>  (5) 
{"is_sidechain": [false], "free_energy": -6.948, "intermolecular_energy": -10.702, "internal_energy": -2.479}

$$$$
4w9l_ligand
     RDKit          3D

 84 86  0  0  0  0  0  0  0  0999 V2000
    7.7800   52.5880   87.0870 C   0  0  0  0  0  0  0  0  0  0  0  0
    7.2510   52.6380   88.4950 C   0  0  0  0  0  0  0  0  0  0  0  0
    6.0970   52.9600   88.7580 O   0  0  0  0  0  0  0  0  0  0  0  0
    8.1890   52.2900   89.4420 N   0  0  0  0  0  0  0  0  0  0  0  0
    7.8620   52.2020   90.8770 C   0  0  2  0  0  0  0  0  0  0  0  0
    8.8200   53.1030   91.7070 C   0  0  0  0  0  0  0  0  0  0  0  0
    8.4440   54.1350   92.2590 O   0  0  0  0  0  0  0  0  0  0  0  0
   10.1050   52.6170   91.8460 N   0  0  0  0  0  0  0  0  0  0  0  0
   11.2000   53.4760   92.3350 C   0  0  2  0  0  0  0  0  0  0  0  0
   12.3900   53.3690   91.3240 C   0  0  0  0  0  0  0  0  0  0  0  0
   13.0700   52.3570   91.1570 O   0  0  0  0  0  0  0  0  0  0  0  0
   12.7210   54.5800   90.6940 N   0  0  0  0  0  0  0  0  0  0  0  0
   14.0260   55.1040   91.1350 C   0  0  0  0  0  0  0  0  0  0  0  0
   14.8100   55.4280   89.8520 C   0  0  2  0  0  0  0  0  0  0  0  0
   14.6670   56.7970   89.4700 O   0  0  0  0  0  0  0  0  0  0  0  0
   14.1550   54.5320   88.8020 C   0  0  0  0  0  0  0  0  0  0  0  0
   12.6990   54.6380   89.2260 C   0  0  1  0  0  0  0  0  0  0  0  0
   11.6400   53.8060   88.4810 C   0  0  0  0  0  0  0  0  0  0  0  0
   10.4410   53.9310   88.7280 O   0  0  0  0  0  0  0  0  0  0  0  0
   12.1410   52.8570   87.6180 N   0  0  0  0  0  0  0  0  0  0  0  0
   11.2650   51.9400   86.9270 C   0  0  0  0  0  0  0  0  0  0  0  0
   11.7900   51.6240   85.5510 C   0  0  0  0  0  0  0  0  0  0  0  0
   11.9030   50.2980   85.1150 C   0  0  0  0  0  0  0  0  0  0  0  0
   12.4100   50.0080   83.8450 C   0  0  0  0  0  0  0  0  0  0  0  0
   12.8230   51.0370   82.9900 C   0  0  0  0  0  0  0  0  0  0  0  0
   13.3420   50.7240   81.6600 C   0  0  0  0  0  0  0  0  0  0  0  0
   12.3770   49.8450   80.5400 S   0  0  0  0  0  0  0  0  0  0  0  0
   13.6320   49.9630   79.3840 C   0  0  0  0  0  0  0  0  0  0  0  0
   14.7130   50.6030   79.7640 N   0  0  0  0  0  0  0  0  0  0  0  0
   14.5600   51.0430   81.0720 C   0  0  0  0  0  0  0  0  0  0  0  0
   15.6870   51.7860   81.6960 C   0  0  0  0  0  0  0  0  0  0  0  0
   12.7210   52.3630   83.4290 C   0  0  0  0  0  0  0  0  0  0  0  0
   12.2120   52.6530   84.6990 C   0  0  0  0  0  0  0  0  0  0  0  0
   11.5780   53.1280   93.8120 C   0  0  0  0  0  0  0  0  0  0  0  0
   10.6810   53.8910   94.8080 C   0  0  0  0  0  0  0  0  0  0  0  0
   11.3470   51.6220   94.0670 C   0  0  0  0  0  0  0  0  0  0  0  0
   13.0550   53.4470   94.1140 C   0  0  0  0  0  0  0  0  0  0  0  0
    7.8150   50.7220   91.3740 C   0  0  0  0  0  0  0  0  0  0  0  0
    8.9330   49.9060   90.6860 C   0  0  0  0  0  0  0  0  0  0  0  0
    6.4700   50.0660   90.9910 C   0  0  0  0  0  0  0  0  0  0  0  0
    7.9910   50.6080   92.8990 C   0  0  0  0  0  0  0  0  0  0  0  0
    8.8749   52.4845   87.1101 H   0  0  0  0  0  0  0  0  0  0  0  0
    7.3414   51.7273   86.5609 H   0  0  0  0  0  0  0  0  0  0  0  0
    7.5104   53.5156   86.5609 H   0  0  0  0  0  0  0  0  0  0  0  0
    9.1240   52.0460   89.1390 H   0  0  0  0  0  0  0  0  0  0  0  0
    6.8444   52.5907   91.0299 H   0  0  0  0  0  0  0  0  0  0  0  0
   10.3660   51.9350   91.1440 H   0  0  0  0  0  0  0  0  0  0  0  0
   10.8866   54.5297   92.3748 H   0  0  0  0  0  0  0  0  0  0  0  0
   13.8883   56.0134   91.7384 H   0  0  0  0  0  0  0  0  0  0  0  0
   14.5617   54.3748   91.7605 H   0  0  0  0  0  0  0  0  0  0  0  0
   15.8899   55.2603   89.9773 H   0  0  0  0  0  0  0  0  0  0  0  0
   13.7250   56.9810   89.2520 H   0  0  0  0  0  0  0  0  0  0  0  0
   14.3115   54.9169   87.7835 H   0  0  0  0  0  0  0  0  0  0  0  0
   14.5495   53.5060   88.7610 H   0  0  0  0  0  0  0  0  0  0  0  0
   12.2802   55.5940   88.8786 H   0  0  0  0  0  0  0  0  0  0  0  0
   13.0370   52.4700   87.9150 H   0  0  0  0  0  0  0  0  0  0  0  0
   11.1909   51.0079   87.5064 H   0  0  0  0  0  0  0  0  0  0  0  0
   10.2759   52.4104   86.8249 H   0  0  0  0  0  0  0  0  0  0  0  0
   11.5901   49.4776   85.7776 H   0  0  0  0  0  0  0  0  0  0  0  0
   12.4852   48.9616   83.5142 H   0  0  0  0  0  0  0  0  0  0  0  0
   13.5384   49.5270   78.3785 H   0  0  0  0  0  0  0  0  0  0  0  0
   15.6016   51.7297   82.7912 H   0  0  0  0  0  0  0  0  0  0  0  0
   16.6409   51.3391   81.3792 H   0  0  0  0  0  0  0  0  0  0  0  0
   15.6522   52.8388   81.3792 H   0  0  0  0  0  0  0  0  0  0  0  0
   13.0436   53.1825   82.7700 H   0  0  0  0  0  0  0  0  0  0  0  0
   12.1423   53.6990   85.0321 H   0  0  0  0  0  0  0  0  0  0  0  0
   10.9779   53.6385   95.8366 H   0  0  0  0  0  0  0  0  0  0  0  0
   10.7946   54.9735   94.6489 H   0  0  0  0  0  0  0  0  0  0  0  0
    9.6308   53.6052   94.6489 H   0  0  0  0  0  0  0  0  0  0  0  0
   11.3181   51.4338   95.1504 H   0  0  0  0  0  0  0  0  0  0  0  0
   10.3914   51.3161   93.6161 H   0  0  0  0  0  0  0  0  0  0  0  0
   12.1670   51.0438   93.6161 H   0  0  0  0  0  0  0  0  0  0  0  0
   13.2078   53.4800   95.2028 H   0  0  0  0  0  0  0  0  0  0  0  0
   13.6954   52.6665   93.6774 H   0  0  0  0  0  0  0  0  0  0  0  0
   13.3162   54.4223   93.6774 H   0  0  0  0  0  0  0  0  0  0  0  0
    9.5711   49.4403   91.4515 H   0  0  0  0  0  0  0  0  0  0  0  0
    8.4823   49.1230   90.0584 H   0  0  0  0  0  0  0  0  0  0  0  0
    9.5413   50.5740   90.0584 H   0  0  0  0  0  0  0  0  0  0  0  0
    5.9196   49.7976   91.9048 H   0  0  0  0  0  0  0  0  0  0  0  0
    5.8726   50.7739   90.3977 H   0  0  0  0  0  0  0  0  0  0  0  0
    6.6600   49.1594   90.3977 H   0  0  0  0  0  0  0  0  0  0  0  0
    7.1706   51.1394   93.4035 H   0  0  0  0  0  0  0  0  0  0  0  0
    7.9758   49.5477   93.1916 H   0  0  0  0  0  0  0  0  0  0  0  0
    8.9524   51.0554   93.1916 H   0  0  0  0  0  0  0  0  0  0  0  0
  1  2  1  0
  2  3  2  0
  2  4  1  0
  4  5  1  0
  5  6  1  0
  6  7  2  0
  6  8  1  0
  8  9  1  0
  9 10  1  0
 10 11  2  0
 10 12  1  0
 12 13  1  0
 13 14  1  0
 14 15  1  0
 14 16  1  0
 16 17  1  0
 17 18  1  0
 18 19  2  0
 18 20  1  0
 20 21  1  0
 21 22  1  0
 22 23  2  0
 23 24  1  0
 24 25  2  0
 25 26  1  0
 26 27  1  0
 27 28  1  0
 28 29  2  0
 29 30  1  0
 30 31  1  0
 25 32  1  0
 32 33  2  0
  9 34  1  0
 34 35  1  0
 34 36  1  0
 34 37  1  0
  5 38  1  0
 38 39  1  0
 38 40  1  0
 38 41  1  0
 17 12  1  0
 33 22  1  0
 30 26  2  0
  1 42  1  0
  1 43  1  0
  1 44  1  0
  4 45  1  0
  5 46  1  6
  8 47  1  0
  9 48  1  1
 13 49  1  0
 13 50  1  0
 14 51  1  1
 15 52  1  0
 16 53  1  0
 16 54  1  0
 17 55  1  1
 20 56  1  0
 21 57  1  0
 21 58  1  0
 23 59  1  0
 24 60  1  0
 28 61  1  0
 31 62  1  0
 31 63  1  0
 31 64  1  0
 32 65  1  0
 33 66  1  0
 35 67  1  0
 35 68  1  0
 35 69  1  0
 36 70  1  0
 36 71  1  0
 36 72  1  0
 37 73  1  0
 37 74  1  0
 37 75  1  0
 39 76  1  0
 39 77  1  0
 39 78  1  0
 40 79  1  0
 40 80  1  0
 40 81  1  0
 41 82  1  0
 41 83  1  0
 41 84  1  0
M  END
>  <meeko>  (6) 
{"is_sidechain": [false], "free_energy": -6.901, "intermolecular_energy": -11.02, "internal_energy": -2.082}

$$$$
4w9l_ligand
     RDKit          3D

 84 86  0  0  0  0  0  0  0  0999 V2000
    6.6230   56.9030   96.4670 C   0  0  0  0  0  0  0  0  0  0  0  0
    7.4720   56.6930   95.2420 C   0  0  0  0  0  0  0  0  0  0  0  0
    7.0330   56.8220   94.1030 O   0  0  0  0  0  0  0  0  0  0  0  0
    8.7720   56.3450   95.5330 N   0  0  0  0  0  0  0  0  0  0  0  0
    9.7900   56.1630   94.4830 C   0  0  2  0  0  0  0  0  0  0  0  0
    9.7610   54.7040   93.9460 C   0  0  0  0  0  0  0  0  0  0  0  0
    9.9480   53.7300   94.6720 O   0  0  0  0  0  0  0  0  0  0  0  0
    9.4300   54.5790   92.6110 N   0  0  0  0  0  0  0  0  0  0  0  0
    9.6500   53.3140   91.8830 C   0  0  2  0  0  0  0  0  0  0  0  0
   10.5700   53.6150   90.6540 C   0  0  0  0  0  0  0  0  0  0  0  0
   10.2190   54.2590   89.6650 O   0  0  0  0  0  0  0  0  0  0  0  0
   11.8180   52.9740   90.6990 N   0  0  0  0  0  0  0  0  0  0  0  0
   12.4430   53.0550   92.0320 C   0  0  0  0  0  0  0  0  0  0  0  0
   12.8620   51.6190   92.3930 C   0  0  2  0  0  0  0  0  0  0  0  0
   14.2220   51.3560   92.0430 O   0  0  0  0  0  0  0  0  0  0  0  0
   11.9370   50.7550   91.5380 C   0  0  0  0  0  0  0  0  0  0  0  0
   11.9080   51.5750   90.2580 C   0  0  1  0  0  0  0  0  0  0  0  0
   11.0040   51.1190   89.0980 C   0  0  0  0  0  0  0  0  0  0  0  0
   10.2690   50.1390   89.2100 O   0  0  0  0  0  0  0  0  0  0  0  0
   11.1660   51.8140   87.9210 N   0  0  0  0  0  0  0  0  0  0  0  0
   10.4550   51.4310   86.7240 C   0  0  0  0  0  0  0  0  0  0  0  0
   11.3680   51.4390   85.5260 C   0  0  0  0  0  0  0  0  0  0  0  0
   11.7800   52.6470   84.9480 C   0  0  0  0  0  0  0  0  0  0  0  0
   12.6100   52.6500   83.8240 C   0  0  0  0  0  0  0  0  0  0  0  0
   13.0350   51.4460   83.2480 C   0  0  0  0  0  0  0  0  0  0  0  0
   13.9120   51.4600   82.0780 C   0  0  0  0  0  0  0  0  0  0  0  0
   13.4810   50.5820   80.6630 S   0  0  0  0  0  0  0  0  0  0  0  0
   14.9030   51.1420   79.8960 C   0  0  0  0  0  0  0  0  0  0  0  0
   15.6750   51.9300   80.6080 N   0  0  0  0  0  0  0  0  0  0  0  0
   15.1160   52.1180   81.8660 C   0  0  0  0  0  0  0  0  0  0  0  0
   15.8490   52.9770   82.8340 C   0  0  0  0  0  0  0  0  0  0  0  0
   12.6140   50.2380   83.8180 C   0  0  0  0  0  0  0  0  0  0  0  0
   11.7850   50.2350   84.9440 C   0  0  0  0  0  0  0  0  0  0  0  0
    8.2940   52.6260   91.5190 C   0  0  0  0  0  0  0  0  0  0  0  0
    8.0510   52.6500   89.9960 C   0  0  0  0  0  0  0  0  0  0  0  0
    8.3350   51.1400   91.9410 C   0  0  0  0  0  0  0  0  0  0  0  0
    7.1040   53.2970   92.2320 C   0  0  0  0  0  0  0  0  0  0  0  0
   11.2070   56.6220   94.9590 C   0  0  0  0  0  0  0  0  0  0  0  0
   12.2850   56.0420   94.0160 C   0  0  0  0  0  0  0  0  0  0  0  0
   11.5000   56.0820   96.3750 C   0  0  0  0  0  0  0  0  0  0  0  0
   11.3500   58.1540   94.9850 C   0  0  0  0  0  0  0  0  0  0  0  0
    7.2355   56.7515   97.3680 H   0  0  0  0  0  0  0  0  0  0  0  0
    6.2222   57.9274   96.4641 H   0  0  0  0  0  0  0  0  0  0  0  0
    5.7908   56.1836   96.4641 H   0  0  0  0  0  0  0  0  0  0  0  0
    9.0480   56.2510   96.5030 H   0  0  0  0  0  0  0  0  0  0  0  0
    9.5419   56.8201   93.6364 H   0  0  0  0  0  0  0  0  0  0  0  0
    9.5710   55.4230   92.0710 H   0  0  0  0  0  0  0  0  0  0  0  0
   10.1669   52.5785   92.5169 H   0  0  0  0  0  0  0  0  0  0  0  0
   13.3235   53.7137   92.0017 H   0  0  0  0  0  0  0  0  0  0  0  0
   11.7492   53.4713   92.7772 H   0  0  0  0  0  0  0  0  0  0  0  0
   12.7850   51.4283   93.4736 H   0  0  0  0  0  0  0  0  0  0  0  0
   14.5190   50.5260   92.4780 H   0  0  0  0  0  0  0  0  0  0  0  0
   12.3567   49.7522   91.3698 H   0  0  0  0  0  0  0  0  0  0  0  0
   10.9499   50.5578   91.9816 H   0  0  0  0  0  0  0  0  0  0  0  0
   12.8326   51.4039   89.6871 H   0  0  0  0  0  0  0  0  0  0  0  0
   12.1160   52.1550   87.7770 H   0  0  0  0  0  0  0  0  0  0  0  0
   10.0459   50.4187   86.8574 H   0  0  0  0  0  0  0  0  0  0  0  0
    9.6452   52.1552   86.5514 H   0  0  0  0  0  0  0  0  0  0  0  0
   11.4472   53.6011   85.3828 H   0  0  0  0  0  0  0  0  0  0  0  0
   12.9327   53.6067   83.3874 H   0  0  0  0  0  0  0  0  0  0  0  0
   15.1567   50.8580   78.8640 H   0  0  0  0  0  0  0  0  0  0  0  0
   15.5916   52.6753   83.8600 H   0  0  0  0  0  0  0  0  0  0  0  0
   16.9320   52.8625   82.6789 H   0  0  0  0  0  0  0  0  0  0  0  0
   15.5656   54.0285   82.6789 H   0  0  0  0  0  0  0  0  0  0  0  0
   12.9380   49.2841   83.3764 H   0  0  0  0  0  0  0  0  0  0  0  0
   11.4572   49.2783   85.3768 H   0  0  0  0  0  0  0  0  0  0  0  0
    6.9742   52.7564   89.7981 H   0  0  0  0  0  0  0  0  0  0  0  0
    8.5910   53.4992   89.5519 H   0  0  0  0  0  0  0  0  0  0  0  0
    8.4145   51.7116   89.5519 H   0  0  0  0  0  0  0  0  0  0  0  0
    8.3369   51.0705   93.0388 H   0  0  0  0  0  0  0  0  0  0  0  0
    7.4508   50.6211   91.5423 H   0  0  0  0  0  0  0  0  0  0  0  0
    9.2464   50.6706   91.5423 H   0  0  0  0  0  0  0  0  0  0  0  0
    7.2388   53.2210   93.3211 H   0  0  0  0  0  0  0  0  0  0  0  0
    7.0530   54.3568   91.9420 H   0  0  0  0  0  0  0  0  0  0  0  0
    6.1707   52.7922   91.9420 H   0  0  0  0  0  0  0  0  0  0  0  0
   13.0981   55.6045   94.6138 H   0  0  0  0  0  0  0  0  0  0  0  0
   11.8366   55.2634   93.3814 H   0  0  0  0  0  0  0  0  0  0  0  0
   12.6877   56.8452   93.3814 H   0  0  0  0  0  0  0  0  0  0  0  0
   11.1159   56.7900   97.1242 H   0  0  0  0  0  0  0  0  0  0  0  0
   11.0070   55.1073   96.5050 H   0  0  0  0  0  0  0  0  0  0  0  0
   12.5859   55.9639   96.5050 H   0  0  0  0  0  0  0  0  0  0  0  0
   11.3824   58.5016   96.0281 H   0  0  0  0  0  0  0  0  0  0  0  0
   12.2791   58.4443   94.4727 H   0  0  0  0  0  0  0  0  0  0  0  0
   10.4906   58.6112   94.4727 H   0  0  0  0  0  0  0  0  0  0  0  0
  1  2  1  0
  2  3  2  0
  2  4  1  0
  4  5  1  0
  5  6  1  0
  6  7  2  0
  6  8  1  0
  8  9  1  0
  9 10  1  0
 10 11  2  0
 10 12  1  0
 12 13  1  0
 13 14  1  0
 14 15  1  0
 14 16  1  0
 16 17  1  0
 17 18  1  0
 18 19  2  0
 18 20  1  0
 20 21  1  0
 21 22  1  0
 22 23  2  0
 23 24  1  0
 24 25  2  0
 25 26  1  0
 26 27  1  0
 27 28  1  0
 28 29  2  0
 29 30  1  0
 30 31  1  0
 25 32  1  0
 32 33  2  0
  9 34  1  0
 34 35  1  0
 34 36  1  0
 34 37  1  0
  5 38  1  0
 38 39  1  0
 38 40  1  0
 38 41  1  0
 17 12  1  0
 33 22  1  0
 30 26  2  0
  1 42  1  0
  1 43  1  0
  1 44  1  0
  4 45  1  0
  5 46  1  6
  8 47  1  0
  9 48  1  1
 13 49  1  0
 13 50  1  0
 14 51  1  1
 15 52  1  0
 16 53  1  0
 16 54  1  0
 17 55  1  6
 20 56  1  0
 21 57  1  0
 21 58  1  0
 23 59  1  0
 24 60  1  0
 28 61  1  0
 31 62  1  0
 31 63  1  0
 31 64  1  0
 32 65  1  0
 33 66  1  0
 35 67  1  0
 35 68  1  0
 35 69  1  0
 36 70  1  0
 36 71  1  0
 36 72  1  0
 37 73  1  0
 37 74  1  0
 37 75  1  0
 39 76  1  0
 39 77  1  0
 39 78  1  0
 40 79  1  0
 40 80  1  0
 40 81  1  0
 41 82  1  0
 41 83  1  0
 41 84  1  0
M  END
>  <meeko>  (7) 
{"is_sidechain": [false], "free_energy": -6.876, "intermolecular_energy": -11.846, "internal_energy": -1.215}

$$$$
4w9l_ligand
     RDKit          3D

 84 86  0  0  0  0  0  0  0  0999 V2000
   12.2380   54.2830   99.4640 C   0  0  0  0  0  0  0  0  0  0  0  0
   11.5820   53.9170   98.1610 C   0  0  0  0  0  0  0  0  0  0  0  0
   11.0560   52.8250   97.9680 O   0  0  0  0  0  0  0  0  0  0  0  0
   11.6360   54.9230   97.2210 N   0  0  0  0  0  0  0  0  0  0  0  0
   10.9900   54.8010   95.9020 C   0  0  2  0  0  0  0  0  0  0  0  0
   11.9810   54.1940   94.8680 C   0  0  0  0  0  0  0  0  0  0  0  0
   13.1950   54.3800   94.9280 O   0  0  0  0  0  0  0  0  0  0  0  0
   11.4060   53.3640   93.9250 N   0  0  0  0  0  0  0  0  0  0  0  0
   12.1420   52.9570   92.7130 C   0  0  2  0  0  0  0  0  0  0  0  0
   11.2900   53.3660   91.4660 C   0  0  0  0  0  0  0  0  0  0  0  0
   10.2970   52.7550   91.0730 O   0  0  0  0  0  0  0  0  0  0  0  0
   11.8240   54.4360   90.7300 N   0  0  0  0  0  0  0  0  0  0  0  0
   12.8420   55.1870   91.4890 C   0  0  0  0  0  0  0  0  0  0  0  0
   14.0640   55.3030   90.5610 C   0  0  2  0  0  0  0  0  0  0  0  0
   14.0620   56.5280   89.8280 O   0  0  0  0  0  0  0  0  0  0  0  0
   13.8890   54.1300   89.5980 C   0  0  0  0  0  0  0  0  0  0  0  0
   12.3820   54.1650   89.3980 C   0  0  1  0  0  0  0  0  0  0  0  0
   11.7160   53.0770   88.5380 C   0  0  0  0  0  0  0  0  0  0  0  0
   12.1510   51.9260   88.5160 O   0  0  0  0  0  0  0  0  0  0  0  0
   10.6880   53.5140   87.7330 N   0  0  0  0  0  0  0  0  0  0  0  0
   10.0380   52.6210   86.8030 C   0  0  0  0  0  0  0  0  0  0  0  0
   10.9240   52.3320   85.6190 C   0  0  0  0  0  0  0  0  0  0  0  0
   11.2630   51.0150   85.2830 C   0  0  0  0  0  0  0  0  0  0  0  0
   12.1020   50.7520   84.1970 C   0  0  0  0  0  0  0  0  0  0  0  0
   12.6280   51.8020   83.4330 C   0  0  0  0  0  0  0  0  0  0  0  0
   13.4980   51.5150   82.2920 C   0  0  0  0  0  0  0  0  0  0  0  0
   12.9680   50.4560   81.0450 S   0  0  0  0  0  0  0  0  0  0  0  0
   14.4410   50.7150   80.2160 C   0  0  0  0  0  0  0  0  0  0  0  0
   15.2980   51.5260   80.7930 N   0  0  0  0  0  0  0  0  0  0  0  0
   14.7680   51.9900   81.9890 C   0  0  0  0  0  0  0  0  0  0  0  0
   15.5940   52.9190   82.8050 C   0  0  0  0  0  0  0  0  0  0  0  0
   12.3000   53.1190   83.7740 C   0  0  0  0  0  0  0  0  0  0  0  0
   11.4580   53.3810   84.8610 C   0  0  0  0  0  0  0  0  0  0  0  0
   12.5220   51.4410   92.7620 C   0  0  0  0  0  0  0  0  0  0  0  0
   12.7900   50.8890   91.3470 C   0  0  0  0  0  0  0  0  0  0  0  0
   13.8300   51.2590   93.5660 C   0  0  0  0  0  0  0  0  0  0  0  0
   11.4220   50.5980   93.4350 C   0  0  0  0  0  0  0  0  0  0  0  0
   10.3580   56.1520   95.4360 C   0  0  0  0  0  0  0  0  0  0  0  0
   11.4230   57.0010   94.7060 C   0  0  0  0  0  0  0  0  0  0  0  0
    9.8780   56.9710   96.6530 C   0  0  0  0  0  0  0  0  0  0  0  0
    9.1620   55.9450   94.4890 C   0  0  0  0  0  0  0  0  0  0  0  0
   11.6133   53.9345  100.2996 H   0  0  0  0  0  0  0  0  0  0  0  0
   13.2278   53.8068   99.5227 H   0  0  0  0  0  0  0  0  0  0  0  0
   12.3526   55.3754   99.5227 H   0  0  0  0  0  0  0  0  0  0  0  0
   12.0990   55.7910   97.4610 H   0  0  0  0  0  0  0  0  0  0  0  0
   10.1463   54.1004   95.9874 H   0  0  0  0  0  0  0  0  0  0  0  0
   10.4110   53.5060   93.8040 H   0  0  0  0  0  0  0  0  0  0  0  0
   13.1081   53.4787   92.6455 H   0  0  0  0  0  0  0  0  0  0  0  0
   12.4639   56.1866   91.7497 H   0  0  0  0  0  0  0  0  0  0  0  0
   13.0982   54.6791   92.4305 H   0  0  0  0  0  0  0  0  0  0  0  0
   15.0096   55.2875   91.1228 H   0  0  0  0  0  0  0  0  0  0  0  0
   13.2360   57.0270   90.0210 H   0  0  0  0  0  0  0  0  0  0  0  0
   14.4288   54.2946   88.6538 H   0  0  0  0  0  0  0  0  0  0  0  0
   14.2826   53.1705   89.9648 H   0  0  0  0  0  0  0  0  0  0  0  0
   12.1196   54.9678   88.6933 H   0  0  0  0  0  0  0  0  0  0  0  0
   10.8030   54.4740   87.4120 H   0  0  0  0  0  0  0  0  0  0  0  0
    9.8041   51.6763   87.3158 H   0  0  0  0  0  0  0  0  0  0  0  0
    9.1176   53.1027   86.4413 H   0  0  0  0  0  0  0  0  0  0  0  0
   10.8652   50.1806   85.8793 H   0  0  0  0  0  0  0  0  0  0  0  0
   12.3516   49.7120   83.9398 H   0  0  0  0  0  0  0  0  0  0  0  0
   14.6587   50.2295   79.2532 H   0  0  0  0  0  0  0  0  0  0  0  0
   15.4195   52.7228   83.8732 H   0  0  0  0  0  0  0  0  0  0  0  0
   16.6580   52.7639   82.5727 H   0  0  0  0  0  0  0  0  0  0  0  0
   15.3156   53.9575   82.5727 H   0  0  0  0  0  0  0  0  0  0  0  0
   12.7065   53.9537   83.1840 H   0  0  0  0  0  0  0  0  0  0  0  0
   11.2135   54.4212   85.1222 H   0  0  0  0  0  0  0  0  0  0  0  0
   13.2693   49.9018   91.4232 H   0  0  0  0  0  0  0  0  0  0  0  0
   11.8380   50.7935   90.8043 H   0  0  0  0  0  0  0  0  0  0  0  0
   13.4539   51.5780   90.8043 H   0  0  0  0  0  0  0  0  0  0  0  0
   13.6060   51.2902   94.6425 H   0  0  0  0  0  0  0  0  0  0  0  0
   14.2835   50.2891   93.3138 H   0  0  0  0  0  0  0  0  0  0  0  0
   14.5311   52.0682   93.3138 H   0  0  0  0  0  0  0  0  0  0  0  0
   11.5198   50.6729   94.5281 H   0  0  0  0  0  0  0  0  0  0  0  0
   10.4341   50.9725   93.1287 H   0  0  0  0  0  0  0  0  0  0  0  0
   11.5267   49.5467   93.1287 H   0  0  0  0  0  0  0  0  0  0  0  0
   12.0588   57.5078   95.4469 H   0  0  0  0  0  0  0  0  0  0  0  0
   12.0440   56.3475   94.0757 H   0  0  0  0  0  0  0  0  0  0  0  0
   10.9243   57.7521   94.0757 H   0  0  0  0  0  0  0  0  0  0  0  0
   10.1775   56.4601   97.5800 H   0  0  0  0  0  0  0  0  0  0  0  0
   10.3321   57.9725   96.6232 H   0  0  0  0  0  0  0  0  0  0  0  0
    8.7824   57.0642   96.6232 H   0  0  0  0  0  0  0  0  0  0  0  0
    8.2485   55.7869   95.0811 H   0  0  0  0  0  0  0  0  0  0  0  0
    9.0383   56.8351   93.8546 H   0  0  0  0  0  0  0  0  0  0  0  0
    9.3446   55.0651   93.8546 H   0  0  0  0  0  0  0  0  0  0  0  0
  1  2  1  0
  2  3  2  0
  2  4  1  0
  4  5  1  0
  5  6  1  0
  6  7  2  0
  6  8  1  0
  8  9  1  0
  9 10  1  0
 10 11  2  0
 10 12  1  0
 12 13  1  0
 13 14  1  0
 14 15  1  0
 14 16  1  0
 16 17  1  0
 17 18  1  0
 18 19  2  0
 18 20  1  0
 20 21  1  0
 21 22  1  0
 22 23  2  0
 23 24  1  0
 24 25  2  0
 25 26  1  0
 26 27  1  0
 27 28  1  0
 28 29  2  0
 29 30  1  0
 30 31  1  0
 25 32  1  0
 32 33  2  0
  9 34  1  0
 34 35  1  0
 34 36  1  0
 34 37  1  0
  5 38  1  0
 38 39  1  0
 38 40  1  0
 38 41  1  0
 17 12  1  0
 33 22  1  0
 30 26  2  0
  1 42  1  0
  1 43  1  0
  1 44  1  0
  4 45  1  0
  5 46  1  1
  8 47  1  0
  9 48  1  6
 13 49  1  0
 13 50  1  0
 14 51  1  1
 15 52  1  0
 16 53  1  0
 16 54  1  0
 17 55  1  6
 20 56  1  0
 21 57  1  0
 21 58  1  0
 23 59  1  0
 24 60  1  0
 28 61  1  0
 31 62  1  0
 31 63  1  0
 31 64  1  0
 32 65  1  0
 33 66  1  0
 35 67  1  0
 35 68  1  0
 35 69  1  0
 36 70  1  0
 36 71  1  0
 36 72  1  0
 37 73  1  0
 37 74  1  0
 37 75  1  0
 39 76  1  0
 39 77  1  0
 39 78  1  0
 40 79  1  0
 40 80  1  0
 40 81  1  0
 41 82  1  0
 41 83  1  0
 41 84  1  0
M  END
>  <meeko>  (8) 
{"is_sidechain": [false], "free_energy": -6.854, "intermolecular_energy": -11.891, "internal_energy": -1.133}

$$$$
4w9l_ligand
     RDKit          3D

 84 86  0  0  0  0  0  0  0  0999 V2000
   13.4490   55.8540   89.6850 C   0  0  0  0  0  0  0  0  0  0  0  0
   13.3890   54.6990   90.6470 C   0  0  0  0  0  0  0  0  0  0  0  0
   14.3560   53.9830   90.8820 O   0  0  0  0  0  0  0  0  0  0  0  0
   12.1490   54.5330   91.2230 N   0  0  0  0  0  0  0  0  0  0  0  0
   11.8900   53.5060   92.2490 C   0  0  2  0  0  0  0  0  0  0  0  0
   10.5260   52.8080   91.9840 C   0  0  0  0  0  0  0  0  0  0  0  0
   10.3580   51.6010   92.1500 O   0  0  0  0  0  0  0  0  0  0  0  0
    9.4960   53.6540   91.6240 N   0  0  0  0  0  0  0  0  0  0  0  0
    8.2400   53.1330   91.0520 C   0  0  2  0  0  0  0  0  0  0  0  0
    8.0570   53.7590   89.6290 C   0  0  0  0  0  0  0  0  0  0  0  0
    8.3010   54.9320   89.3510 O   0  0  0  0  0  0  0  0  0  0  0  0
    7.4560   52.8990   88.6960 N   0  0  0  0  0  0  0  0  0  0  0  0
    6.1200   53.3650   88.2820 C   0  0  0  0  0  0  0  0  0  0  0  0
    6.1170   53.3400   86.7440 C   0  0  2  0  0  0  0  0  0  0  0  0
    5.5800   52.1200   86.2310 O   0  0  0  0  0  0  0  0  0  0  0  0
    7.5990   53.4370   86.3860 C   0  0  0  0  0  0  0  0  0  0  0  0
    8.1980   52.5590   87.4730 C   0  0  1  0  0  0  0  0  0  0  0  0
    9.7280   52.4220   87.5660 C   0  0  0  0  0  0  0  0  0  0  0  0
   10.2510   51.6130   88.3330 O   0  0  0  0  0  0  0  0  0  0  0  0
   10.4440   53.3330   86.8230 N   0  0  0  0  0  0  0  0  0  0  0  0
   11.8860   53.3830   86.8910 C   0  0  0  0  0  0  0  0  0  0  0  0
   12.5040   53.0070   85.5700 C   0  0  0  0  0  0  0  0  0  0  0  0
   13.5140   53.7950   85.0030 C   0  0  0  0  0  0  0  0  0  0  0  0
   14.0710   53.4540   83.7670 C   0  0  0  0  0  0  0  0  0  0  0  0
   13.6210   52.3260   83.0680 C   0  0  0  0  0  0  0  0  0  0  0  0
   14.2170   51.9730   81.7800 C   0  0  0  0  0  0  0  0  0  0  0  0
   15.9190   52.0750   81.5580 S   0  0  0  0  0  0  0  0  0  0  0  0
   15.7320   51.5060   79.9560 C   0  0  0  0  0  0  0  0  0  0  0  0
   14.5040   51.2480   79.5710 N   0  0  0  0  0  0  0  0  0  0  0  0
   13.6230   51.5150   80.6110 C   0  0  0  0  0  0  0  0  0  0  0  0
   12.1720   51.2960   80.3710 C   0  0  0  0  0  0  0  0  0  0  0  0
   12.6030   51.5450   83.6290 C   0  0  0  0  0  0  0  0  0  0  0  0
   12.0470   51.8850   84.8660 C   0  0  0  0  0  0  0  0  0  0  0  0
    7.0350   53.3690   92.0190 C   0  0  0  0  0  0  0  0  0  0  0  0
    5.9560   54.2520   91.3570 C   0  0  0  0  0  0  0  0  0  0  0  0
    6.3610   52.0180   92.3520 C   0  0  0  0  0  0  0  0  0  0  0  0
    7.4830   54.0230   93.3400 C   0  0  0  0  0  0  0  0  0  0  0  0
   12.0220   54.0820   93.6960 C   0  0  0  0  0  0  0  0  0  0  0  0
   10.9160   53.4850   94.5960 C   0  0  0  0  0  0  0  0  0  0  0  0
   11.8260   55.6130   93.6870 C   0  0  0  0  0  0  0  0  0  0  0  0
   13.3900   53.7720   94.3290 C   0  0  0  0  0  0  0  0  0  0  0  0
   13.4980   56.7978   90.2478 H   0  0  0  0  0  0  0  0  0  0  0  0
   14.3434   55.7578   89.0519 H   0  0  0  0  0  0  0  0  0  0  0  0
   12.5495   55.8510   89.0519 H   0  0  0  0  0  0  0  0  0  0  0  0
   11.4010   55.1650   90.9650 H   0  0  0  0  0  0  0  0  0  0  0  0
   12.6666   52.7306   92.1740 H   0  0  0  0  0  0  0  0  0  0  0  0
    9.8050   54.5460   91.2570 H   0  0  0  0  0  0  0  0  0  0  0  0
    8.2841   52.0402   90.9343 H   0  0  0  0  0  0  0  0  0  0  0  0
    5.3426   52.6940   88.6762 H   0  0  0  0  0  0  0  0  0  0  0  0
    5.9087   54.3732   88.6679 H   0  0  0  0  0  0  0  0  0  0  0  0
    5.4975   54.1449   86.3217 H   0  0  0  0  0  0  0  0  0  0  0  0
    4.6010   52.1920   86.1680 H   0  0  0  0  0  0  0  0  0  0  0  0
    7.8022   53.0372   85.3816 H   0  0  0  0  0  0  0  0  0  0  0  0
    7.9981   54.4614   86.3490 H   0  0  0  0  0  0  0  0  0  0  0  0
    8.0574   51.4997   87.2122 H   0  0  0  0  0  0  0  0  0  0  0  0
    9.9770   54.2340   86.7230 H   0  0  0  0  0  0  0  0  0  0  0  0
   12.1981   54.4040   87.1561 H   0  0  0  0  0  0  0  0  0  0  0  0
   12.2252   52.6653   87.6525 H   0  0  0  0  0  0  0  0  0  0  0  0
   13.8716   54.6892   85.5346 H   0  0  0  0  0  0  0  0  0  0  0  0
   14.8701   54.0771   83.3391 H   0  0  0  0  0  0  0  0  0  0  0  0
   16.5927   51.3642   79.2858 H   0  0  0  0  0  0  0  0  0  0  0  0
   11.6487   51.2170   81.3353 H   0  0  0  0  0  0  0  0  0  0  0  0
   11.7629   52.1426   79.8001 H   0  0  0  0  0  0  0  0  0  0  0  0
   12.0310   50.3664   79.8001 H   0  0  0  0  0  0  0  0  0  0  0  0
   12.2379   50.6570   83.0922 H   0  0  0  0  0  0  0  0  0  0  0  0
   11.2431   51.2657   85.2906 H   0  0  0  0  0  0  0  0  0  0  0  0
    5.3554   54.7435   92.1366 H   0  0  0  0  0  0  0  0  0  0  0  0
    6.4406   55.0160   90.7313 H   0  0  0  0  0  0  0  0  0  0  0  0
    5.3030   53.6258   90.7313 H   0  0  0  0  0  0  0  0  0  0  0  0
    6.3009   51.8975   93.4437 H   0  0  0  0  0  0  0  0  0  0  0  0
    5.3476   51.9986   91.9246 H   0  0  0  0  0  0  0  0  0  0  0  0
    6.9550   51.1967   91.9246 H   0  0  0  0  0  0  0  0  0  0  0  0
    7.0871   53.4450   94.1880 H   0  0  0  0  0  0  0  0  0  0  0  0
    8.5819   54.0379   93.3876 H   0  0  0  0  0  0  0  0  0  0  0  0
    7.0999   55.0530   93.3876 H   0  0  0  0  0  0  0  0  0  0  0  0
   11.1850   53.6302   95.6527 H   0  0  0  0  0  0  0  0  0  0  0  0
    9.9614   53.9903   94.3879 H   0  0  0  0  0  0  0  0  0  0  0  0
   10.8146   52.4096   94.3879 H   0  0  0  0  0  0  0  0  0  0  0  0
   11.7787   55.9827   94.7219 H   0  0  0  0  0  0  0  0  0  0  0  0
   12.6707   56.0877   93.1663 H   0  0  0  0  0  0  0  0  0  0  0  0
   10.8889   55.8596   93.1663 H   0  0  0  0  0  0  0  0  0  0  0  0
   13.2999   53.7924   95.4251 H   0  0  0  0  0  0  0  0  0  0  0  0
   13.7255   52.7751   94.0072 H   0  0  0  0  0  0  0  0  0  0  0  0
   14.1225   54.5269   94.0072 H   0  0  0  0  0  0  0  0  0  0  0  0
  1  2  1  0
  2  3  2  0
  2  4  1  0
  4  5  1  0
  5  6  1  0
  6  7  2  0
  6  8  1  0
  8  9  1  0
  9 10  1  0
 10 11  2  0
 10 12  1  0
 12 13  1  0
 13 14  1  0
 14 15  1  0
 14 16  1  0
 16 17  1  0
 17 18  1  0
 18 19  2  0
 18 20  1  0
 20 21  1  0
 21 22  1  0
 22 23  2  0
 23 24  1  0
 24 25  2  0
 25 26  1  0
 26 27  1  0
 27 28  1  0
 28 29  2  0
 29 30  1  0
 30 31  1  0
 25 32  1  0
 32 33  2  0
  9 34  1  0
 34 35  1  0
 34 36  1  0
 34 37  1  0
  5 38  1  0
 38 39  1  0
 38 40  1  0
 38 41  1  0
 17 12  1  0
 33 22  1  0
 30 26  2  0
  1 42  1  0
  1 43  1  0
  1 44  1  0
  4 45  1  0
  5 46  1  1
  8 47  1  0
  9 48  1  6
 13 49  1  0
 13 50  1  0
 14 51  1  6
 15 52  1  0
 16 53  1  0
 16 54  1  0
 17 55  1  6
 20 56  1  0
 21 57  1  0
 21 58  1  0
 23 59  1  0
 24 60  1  0
 28 61  1  0
 31 62  1  0
 31 63  1  0
 31 64  1  0
 32 65  1  0
 33 66  1  0
 35 67  1  0
 35 68  1  0
 35 69  1  0
 36 70  1  0
 36 71  1  0
 36 72  1  0
 37 73  1  0
 37 74  1  0
 37 75  1  0
 39 76  1  0
 39 77  1  0
 39 78  1  0
 40 79  1  0
 40 80  1  0
 40 81  1  0
 41 82  1  0
 41 83  1  0
 41 84  1  0
M  END
>  <meeko>  (9) 
{"is_sidechain": [false], "free_energy": -6.68, "intermolecular_energy": -11.389, "internal_energy": -1.344}

$$$$
