4j21_ligand
     RDKit          3D

 33 35  0  0  0  0  0  0  0  0999 V2000
  -12.3210    5.5870   14.3730 C   0  0  0  0  0  0  0  0  0  0  0  0
  -12.2200    4.1650   13.9040 C   0  0  0  0  0  0  0  0  0  0  0  0
  -12.3080    3.1400   14.7690 C   0  0  0  0  0  0  0  0  0  0  0  0
  -12.2100    1.7270   14.3370 C   0  0  0  0  0  0  0  0  0  0  0  0
  -12.2950    0.8140   15.1510 O   0  0  0  0  0  0  0  0  0  0  0  0
  -12.0240    1.5060   13.0040 N   0  0  0  0  0  0  0  0  0  0  0  0
  -11.9260    2.5320   12.0560 C   0  0  0  0  0  0  0  0  0  0  0  0
  -11.7370    2.1940   10.7120 C   0  0  0  0  0  0  0  0  0  0  0  0
  -11.6330    3.1950    9.7370 C   0  0  0  0  0  0  0  0  0  0  0  0
  -11.4420    2.8520    8.3210 C   0  0  0  0  0  0  0  0  0  0  0  0
  -10.2690    3.2650    7.6690 C   0  0  0  0  0  0  0  0  0  0  0  0
  -10.0480    2.9650    6.3200 C   0  0  0  0  0  0  0  0  0  0  0  0
  -11.0070    2.2800    5.5750 C   0  0  0  0  0  0  0  0  0  0  0  0
  -10.7270    1.8790    4.2650 N   0  0  0  0  0  0  0  0  0  0  0  0
  -12.1480    1.8100    6.2280 C   0  0  0  0  0  0  0  0  0  0  0  0
  -12.3760    2.1080    7.5780 C   0  0  0  0  0  0  0  0  0  0  0  0
  -13.8330    1.5020    8.2920 Cl  0  0  0  0  0  0  0  0  0  0  0  0
  -11.7280    4.5340   10.1430 C   0  0  0  0  0  0  0  0  0  0  0  0
  -11.9180    4.8690   11.4890 C   0  0  0  0  0  0  0  0  0  0  0  0
  -12.0210    3.8720   12.4670 C   0  0  0  0  0  0  0  0  0  0  0  0
  -12.3227    5.6111   15.4727 H   0  0  0  0  0  0  0  0  0  0  0  0
  -11.4613    6.1597   13.9950 H   0  0  0  0  0  0  0  0  0  0  0  0
  -13.2530    6.0324   13.9950 H   0  0  0  0  0  0  0  0  0  0  0  0
  -12.4583    3.3587   15.8365 H   0  0  0  0  0  0  0  0  0  0  0  0
  -11.9540    0.5370   12.7220 H   0  0  0  0  0  0  0  0  0  0  0  0
  -11.6696    1.1360   10.4186 H   0  0  0  0  0  0  0  0  0  0  0  0
   -9.5112    3.8338    8.2278 H   0  0  0  0  0  0  0  0  0  0  0  0
   -9.1066    3.2733    5.8418 H   0  0  0  0  0  0  0  0  0  0  0  0
  -11.2410    1.0580    3.9590 H   0  0  0  0  0  0  0  0  0  0  0  0
  -10.7610    2.6300    3.5820 H   0  0  0  0  0  0  0  0  0  0  0  0
  -12.8768    1.1983    5.6760 H   0  0  0  0  0  0  0  0  0  0  0  0
  -11.6520    5.3339    9.3918 H   0  0  0  0  0  0  0  0  0  0  0  0
  -11.9871    5.9271   11.7816 H   0  0  0  0  0  0  0  0  0  0  0  0
  1  2  1  0
  2  3  2  0
  3  4  1  0
  4  5  2  0
  4  6  1  0
  6  7  1  0
  7  8  2  0
  8  9  1  0
  9 10  1  0
 10 11  2  0
 11 12  1  0
 12 13  2  0
 13 14  1  0
 13 15  1  0
 15 16  2  0
 16 17  1  0
  9 18  2  0
 18 19  1  0
 19 20  2  0
 20  2  1  0
 20  7  1  0
 16 10  1  0
  1 21  1  0
  1 22  1  0
  1 23  1  0
  3 24  1  0
  6 25  1  0
  8 26  1  0
 11 27  1  0
 12 28  1  0
 14 29  1  0
 14 30  1  0
 15 31  1  0
 18 32  1  0
 19 33  1  0
M  END
>  <meeko>  (1) 
{"is_sidechain": [false], "free_energy": -11.942, "intermolecular_energy": -12.989, "internal_energy": -0.309}

$$$$
4j21_ligand
     RDKit          3D

 33 35  0  0  0  0  0  0  0  0999 V2000
  -12.3370    2.7850   15.1750 C   0  0  0  0  0  0  0  0  0  0  0  0
  -12.2710    3.9000   14.1730 C   0  0  0  0  0  0  0  0  0  0  0  0
  -12.3980    5.1830   14.5530 C   0  0  0  0  0  0  0  0  0  0  0  0
  -12.3400    6.3060   13.5890 C   0  0  0  0  0  0  0  0  0  0  0  0
  -12.4580    7.4660   13.9670 O   0  0  0  0  0  0  0  0  0  0  0  0
  -12.1490    5.9770   12.2790 N   0  0  0  0  0  0  0  0  0  0  0  0
  -12.0100    4.6600   11.8230 C   0  0  0  0  0  0  0  0  0  0  0  0
  -11.8170    4.4350   10.4560 C   0  0  0  0  0  0  0  0  0  0  0  0
  -11.6760    3.1300    9.9670 C   0  0  0  0  0  0  0  0  0  0  0  0
  -11.4650    2.8800    8.5330 C   0  0  0  0  0  0  0  0  0  0  0  0
  -10.2940    3.3580    7.9220 C   0  0  0  0  0  0  0  0  0  0  0  0
  -10.0530    3.1470    6.5590 C   0  0  0  0  0  0  0  0  0  0  0  0
  -10.9910    2.4910    5.7620 C   0  0  0  0  0  0  0  0  0  0  0  0
  -10.6890    2.1790    4.4330 N   0  0  0  0  0  0  0  0  0  0  0  0
  -12.1270    1.9580    6.3720 C   0  0  0  0  0  0  0  0  0  0  0  0
  -12.3750    2.1650    7.7350 C   0  0  0  0  0  0  0  0  0  0  0  0
  -13.8260    1.4850    8.3940 Cl  0  0  0  0  0  0  0  0  0  0  0  0
  -11.7280    2.0650   10.8780 C   0  0  0  0  0  0  0  0  0  0  0  0
  -11.9210    2.2940   12.2460 C   0  0  0  0  0  0  0  0  0  0  0  0
  -12.0640    3.5970   12.7400 C   0  0  0  0  0  0  0  0  0  0  0  0
  -12.3122    3.2039   16.1918 H   0  0  0  0  0  0  0  0  0  0  0  0
  -13.2702    2.2199   15.0339 H   0  0  0  0  0  0  0  0  0  0  0  0
  -11.4770    2.1138   15.0339 H   0  0  0  0  0  0  0  0  0  0  0  0
  -12.5506    5.4072   15.6190 H   0  0  0  0  0  0  0  0  0  0  0  0
  -12.1170    6.7520   11.6290 H   0  0  0  0  0  0  0  0  0  0  0  0
  -11.7757    5.2871    9.7616 H   0  0  0  0  0  0  0  0  0  0  0  0
   -9.5546    3.9068    8.5238 H   0  0  0  0  0  0  0  0  0  0  0  0
   -9.1131    3.5027    6.1116 H   0  0  0  0  0  0  0  0  0  0  0  0
  -10.6810    1.1840    4.2280 H   0  0  0  0  0  0  0  0  0  0  0  0
  -11.2220    2.7080    3.7490 H   0  0  0  0  0  0  0  0  0  0  0  0
  -12.8372    1.3674    5.7747 H   0  0  0  0  0  0  0  0  0  0  0  0
  -11.6154    1.0337   10.5123 H   0  0  0  0  0  0  0  0  0  0  0  0
  -11.9607    1.4415   12.9401 H   0  0  0  0  0  0  0  0  0  0  0  0
  1  2  1  0
  2  3  2  0
  3  4  1  0
  4  5  2  0
  4  6  1  0
  6  7  1  0
  7  8  2  0
  8  9  1  0
  9 10  1  0
 10 11  2  0
 11 12  1  0
 12 13  2  0
 13 14  1  0
 13 15  1  0
 15 16  2  0
 16 17  1  0
  9 18  2  0
 18 19  1  0
 19 20  2  0
 20  2  1  0
 20  7  1  0
 16 10  1  0
  1 21  1  0
  1 22  1  0
  1 23  1  0
  3 24  1  0
  6 25  1  0
  8 26  1  0
 11 27  1  0
 12 28  1  0
 14 29  1  0
 14 30  1  0
 15 31  1  0
 18 32  1  0
 19 33  1  0
M  END
>  <meeko>  (2) 
{"is_sidechain": [false], "free_energy": -10.361, "intermolecular_energy": -11.239, "internal_energy": -0.34}

$$$$
4j21_ligand
     RDKit          3D

 33 35  0  0  0  0  0  0  0  0999 V2000
   -9.7780    3.0000    5.7400 C   0  0  0  0  0  0  0  0  0  0  0  0
  -11.0870    2.5910    6.3490 C   0  0  0  0  0  0  0  0  0  0  0  0
  -12.1090    2.1720    5.5820 C   0  0  0  0  0  0  0  0  0  0  0  0
  -13.4130    1.7630    6.1530 C   0  0  0  0  0  0  0  0  0  0  0  0
  -14.3250    1.3830    5.4270 O   0  0  0  0  0  0  0  0  0  0  0  0
  -13.5350    1.8320    7.5100 N   0  0  0  0  0  0  0  0  0  0  0  0
  -12.5080    2.2610    8.3590 C   0  0  0  0  0  0  0  0  0  0  0  0
  -12.7400    2.2920    9.7380 C   0  0  0  0  0  0  0  0  0  0  0  0
  -11.7340    2.7170   10.6160 C   0  0  0  0  0  0  0  0  0  0  0  0
  -11.9630    2.7470   12.0680 C   0  0  0  0  0  0  0  0  0  0  0  0
  -12.0460    1.5350   12.7720 C   0  0  0  0  0  0  0  0  0  0  0  0
  -12.2670    1.5160   14.1540 C   0  0  0  0  0  0  0  0  0  0  0  0
  -12.4520    2.7020   14.8640 C   0  0  0  0  0  0  0  0  0  0  0  0
  -12.5510    2.6790   16.2580 N   0  0  0  0  0  0  0  0  0  0  0  0
  -12.3090    3.9130   14.1850 C   0  0  0  0  0  0  0  0  0  0  0  0
  -12.0890    3.9400   12.8020 C   0  0  0  0  0  0  0  0  0  0  0  0
  -11.9510    5.4930   12.0470 Cl  0  0  0  0  0  0  0  0  0  0  0  0
  -10.4970    3.1020   10.0790 C   0  0  0  0  0  0  0  0  0  0  0  0
  -10.2680    3.0680    8.6980 C   0  0  0  0  0  0  0  0  0  0  0  0
  -11.2710    2.6460    7.8170 C   0  0  0  0  0  0  0  0  0  0  0  0
   -9.0564    3.2255    6.5390 H   0  0  0  0  0  0  0  0  0  0  0  0
   -9.3912    2.1799    5.1173 H   0  0  0  0  0  0  0  0  0  0  0  0
   -9.9269    3.8945    5.1173 H   0  0  0  0  0  0  0  0  0  0  0  0
  -11.9716    2.1316    4.4914 H   0  0  0  0  0  0  0  0  0  0  0  0
  -14.4320    1.5560    7.8870 H   0  0  0  0  0  0  0  0  0  0  0  0
  -13.7174    1.9811   10.1354 H   0  0  0  0  0  0  0  0  0  0  0  0
  -11.9355    0.5850   12.2286 H   0  0  0  0  0  0  0  0  0  0  0  0
  -12.2951    0.5539   14.6866 H   0  0  0  0  0  0  0  0  0  0  0  0
  -11.7000    2.3910   16.7330 H   0  0  0  0  0  0  0  0  0  0  0  0
  -12.9500    3.5220   16.6620 H   0  0  0  0  0  0  0  0  0  0  0  0
  -12.3699    4.8588   14.7434 H   0  0  0  0  0  0  0  0  0  0  0  0
   -9.6943    3.4358   10.7530 H   0  0  0  0  0  0  0  0  0  0  0  0
   -9.2895    3.3762    8.3010 H   0  0  0  0  0  0  0  0  0  0  0  0
  1  2  1  0
  2  3  2  0
  3  4  1  0
  4  5  2  0
  4  6  1  0
  6  7  1  0
  7  8  2  0
  8  9  1  0
  9 10  1  0
 10 11  2  0
 11 12  1  0
 12 13  2  0
 13 14  1  0
 13 15  1  0
 15 16  2  0
 16 17  1  0
  9 18  2  0
 18 19  1  0
 19 20  2  0
 20  2  1  0
 20  7  1  0
 16 10  1  0
  1 21  1  0
  1 22  1  0
  1 23  1  0
  3 24  1  0
  6 25  1  0
  8 26  1  0
 11 27  1  0
 12 28  1  0
 14 29  1  0
 14 30  1  0
 15 31  1  0
 18 32  1  0
 19 33  1  0
M  END
>  <meeko>  (3) 
{"is_sidechain": [false], "free_energy": -9.928, "intermolecular_energy": -10.696, "internal_energy": -0.411}

$$$$
4j21_ligand
     RDKit          3D

 33 35  0  0  0  0  0  0  0  0999 V2000
  -10.8750    3.3040    5.7620 C   0  0  0  0  0  0  0  0  0  0  0  0
  -10.6490    2.3840    6.9260 C   0  0  0  0  0  0  0  0  0  0  0  0
  -10.1350    1.1540    6.7500 C   0  0  0  0  0  0  0  0  0  0  0  0
   -9.9020    0.2220    7.8780 C   0  0  0  0  0  0  0  0  0  0  0  0
   -9.4300   -0.8930    7.6840 O   0  0  0  0  0  0  0  0  0  0  0  0
  -10.2370    0.6720    9.1210 N   0  0  0  0  0  0  0  0  0  0  0  0
  -10.7760    1.9410    9.3670 C   0  0  0  0  0  0  0  0  0  0  0  0
  -11.0830    2.3020   10.6830 C   0  0  0  0  0  0  0  0  0  0  0  0
  -11.6240    3.5630   10.9640 C   0  0  0  0  0  0  0  0  0  0  0  0
  -11.9430    3.9570   12.3440 C   0  0  0  0  0  0  0  0  0  0  0  0
  -11.9980    5.3210   12.6710 C   0  0  0  0  0  0  0  0  0  0  0  0
  -12.2940    5.7410   13.9720 C   0  0  0  0  0  0  0  0  0  0  0  0
  -12.5030    4.8130   14.9910 C   0  0  0  0  0  0  0  0  0  0  0  0
  -12.9170    5.2390   16.2570 N   0  0  0  0  0  0  0  0  0  0  0  0
  -12.5140    3.4560   14.6650 C   0  0  0  0  0  0  0  0  0  0  0  0
  -12.2180    3.0280   13.3640 C   0  0  0  0  0  0  0  0  0  0  0  0
  -12.2320    1.3220   13.0630 Cl  0  0  0  0  0  0  0  0  0  0  0  0
  -11.8430    4.4480    9.8980 C   0  0  0  0  0  0  0  0  0  0  0  0
  -11.5340    4.0840    8.5820 C   0  0  0  0  0  0  0  0  0  0  0  0
  -10.9940    2.8240    8.2960 C   0  0  0  0  0  0  0  0  0  0  0  0
  -11.1221    4.3099    6.1323 H   0  0  0  0  0  0  0  0  0  0  0  0
   -9.9621    3.3525    5.1503 H   0  0  0  0  0  0  0  0  0  0  0  0
  -11.7065    2.9239    5.1503 H   0  0  0  0  0  0  0  0  0  0  0  0
   -9.8781    0.8278    5.7314 H   0  0  0  0  0  0  0  0  0  0  0  0
  -10.0790    0.0250    9.8820 H   0  0  0  0  0  0  0  0  0  0  0  0
  -10.8985    1.5914   11.5021 H   0  0  0  0  0  0  0  0  0  0  0  0
  -11.8051    6.0722   11.8910 H   0  0  0  0  0  0  0  0  0  0  0  0
  -12.3627    6.8163   14.1936 H   0  0  0  0  0  0  0  0  0  0  0  0
  -13.3220    6.1700   16.2740 H   0  0  0  0  0  0  0  0  0  0  0  0
  -13.4860    4.5640   16.7590 H   0  0  0  0  0  0  0  0  0  0  0  0
  -12.7580    2.7133   15.4389 H   0  0  0  0  0  0  0  0  0  0  0  0
  -12.2643    5.4440   10.0993 H   0  0  0  0  0  0  0  0  0  0  0  0
  -11.7174    4.7956    7.7635 H   0  0  0  0  0  0  0  0  0  0  0  0
  1  2  1  0
  2  3  2  0
  3  4  1  0
  4  5  2  0
  4  6  1  0
  6  7  1  0
  7  8  2  0
  8  9  1  0
  9 10  1  0
 10 11  2  0
 11 12  1  0
 12 13  2  0
 13 14  1  0
 13 15  1  0
 15 16  2  0
 16 17  1  0
  9 18  2  0
 18 19  1  0
 19 20  2  0
 20  2  1  0
 20  7  1  0
 16 10  1  0
  1 21  1  0
  1 22  1  0
  1 23  1  0
  3 24  1  0
  6 25  1  0
  8 26  1  0
 11 27  1  0
 12 28  1  0
 14 29  1  0
 14 30  1  0
 15 31  1  0
 18 32  1  0
 19 33  1  0
M  END
>  <meeko>  (4) 
{"is_sidechain": [false], "free_energy": -9.888, "intermolecular_energy": -11.251, "internal_energy": 0.187}

$$$$
