4wiv_ligand
     RDKit          3D

 50 53  0  0  0  0  0  0  0  0999 V2000
   14.5980   -8.6230   -9.9020 C   0  0  0  0  0  0  0  0  0  0  0  0
   13.3490   -8.1350  -10.5320 C   0  0  0  0  0  0  0  0  0  0  0  0
   12.3660   -8.9940  -10.8250 N   0  0  0  0  0  0  0  0  0  0  0  0
   11.3610   -8.2370  -11.3950 O   0  0  0  0  0  0  0  0  0  0  0  0
   11.7390   -6.9310  -11.4370 C   0  0  0  0  0  0  0  0  0  0  0  0
   10.7520   -5.9900  -12.0020 C   0  0  0  0  0  0  0  0  0  0  0  0
   13.0050   -6.8090  -10.9070 C   0  0  0  0  0  0  0  0  0  0  0  0
   13.7350   -5.5680  -10.7770 C   0  0  0  0  0  0  0  0  0  0  0  0
   14.0530   -5.0710   -9.5080 C   0  0  0  0  0  0  0  0  0  0  0  0
   14.7650   -3.8750   -9.3790 C   0  0  0  0  0  0  0  0  0  0  0  0
   15.1810   -3.1690  -10.5140 C   0  0  0  0  0  0  0  0  0  0  0  0
   15.9220   -1.9320  -10.3520 C   0  0  0  0  0  0  0  0  0  0  0  0
   16.4550   -1.5580   -9.1350 N   0  0  0  0  0  0  0  0  0  0  0  0
   16.9970   -0.3870   -9.3730 C   0  0  0  0  0  0  0  0  0  0  0  0
   17.6500    0.4990   -8.4480 C   0  0  0  0  0  0  0  0  0  0  0  0
   18.0950    1.6730   -8.8150 N   0  0  0  0  0  0  0  0  0  0  0  0
   17.9030    2.0440  -10.1360 C   0  0  0  0  0  0  0  0  0  0  0  0
   17.3130    1.2650  -11.0610 C   0  0  0  0  0  0  0  0  0  0  0  0
   16.8650    0.0120  -10.6780 N   0  0  0  0  0  0  0  0  0  0  0  0
   16.2420   -1.0200  -11.3560 C   0  0  0  0  0  0  0  0  0  0  0  0
   15.9970   -0.9690  -12.7080 N   0  0  0  0  0  0  0  0  0  0  0  0
   17.0620   -1.3890  -13.6650 C   0  0  0  0  0  0  0  0  0  0  0  0
   16.3680   -2.2390  -14.7470 C   0  0  0  0  0  0  0  0  0  0  0  0
   17.7450   -0.2000  -14.3520 C   0  0  0  0  0  0  0  0  0  0  0  0
   18.1150   -2.2570  -12.9580 C   0  0  0  0  0  0  0  0  0  0  0  0
   14.8460   -3.6570  -11.7820 C   0  0  0  0  0  0  0  0  0  0  0  0
   14.1320   -4.8540  -11.9140 C   0  0  0  0  0  0  0  0  0  0  0  0
   14.4963   -8.5833   -8.8074 H   0  0  0  0  0  0  0  0  0  0  0  0
   14.7856   -9.6606  -10.2154 H   0  0  0  0  0  0  0  0  0  0  0  0
   15.4393   -7.9875  -10.2154 H   0  0  0  0  0  0  0  0  0  0  0  0
   10.2195   -5.4823  -11.1842 H   0  0  0  0  0  0  0  0  0  0  0  0
   11.2702   -5.2432  -12.6214 H   0  0  0  0  0  0  0  0  0  0  0  0
   10.0307   -6.5433  -12.6214 H   0  0  0  0  0  0  0  0  0  0  0  0
   13.7416   -5.6233   -8.6091 H   0  0  0  0  0  0  0  0  0  0  0  0
   15.0003   -3.4855   -8.3776 H   0  0  0  0  0  0  0  0  0  0  0  0
   17.7789    0.1809   -7.4029 H   0  0  0  0  0  0  0  0  0  0  0  0
   18.2551    3.0382  -10.4484 H   0  0  0  0  0  0  0  0  0  0  0  0
   17.1895    1.6151  -12.0965 H   0  0  0  0  0  0  0  0  0  0  0  0
   15.1640   -1.5030  -12.9650 H   0  0  0  0  0  0  0  0  0  0  0  0
   15.7424   -3.0053  -14.2660 H   0  0  0  0  0  0  0  0  0  0  0  0
   15.7374   -1.5912  -15.3737 H   0  0  0  0  0  0  0  0  0  0  0  0
   17.1288   -2.7273  -15.3737 H   0  0  0  0  0  0  0  0  0  0  0  0
   18.1397    0.4871  -13.5890 H   0  0  0  0  0  0  0  0  0  0  0  0
   18.5714   -0.5645  -14.9799 H   0  0  0  0  0  0  0  0  0  0  0  0
   17.0138    0.3302  -14.9799 H   0  0  0  0  0  0  0  0  0  0  0  0
   17.9981   -2.1606  -11.8685 H   0  0  0  0  0  0  0  0  0  0  0  0
   17.9790   -3.3088  -13.2497 H   0  0  0  0  0  0  0  0  0  0  0  0
   19.1216   -1.9228  -13.2497 H   0  0  0  0  0  0  0  0  0  0  0  0
   15.1454   -3.0969  -12.6802 H   0  0  0  0  0  0  0  0  0  0  0  0
   13.8819   -5.2351  -12.9151 H   0  0  0  0  0  0  0  0  0  0  0  0
  1  2  1  0
  2  3  2  0
  3  4  1  0
  4  5  1  0
  5  6  1  0
  5  7  2  0
  7  8  1  0
  8  9  2  0
  9 10  1  0
 10 11  2  0
 11 12  1  0
 12 13  1  0
 13 14  2  0
 14 15  1  0
 15 16  2  0
 16 17  1  0
 17 18  2  0
 18 19  1  0
 19 20  1  0
 20 21  1  0
 21 22  1  0
 22 23  1  0
 22 24  1  0
 22 25  1  0
 11 26  1  0
 26 27  2  0
  7  2  1  0
 27  8  1  0
 20 12  2  0
 19 14  1  0
  1 28  1  0
  1 29  1  0
  1 30  1  0
  6 31  1  0
  6 32  1  0
  6 33  1  0
  9 34  1  0
 10 35  1  0
 15 36  1  0
 17 37  1  0
 18 38  1  0
 21 39  1  0
 23 40  1  0
 23 41  1  0
 23 42  1  0
 24 43  1  0
 24 44  1  0
 24 45  1  0
 25 46  1  0
 25 47  1  0
 25 48  1  0
 26 49  1  0
 27 50  1  0
M  END
>  <meeko>  (1) 
{"is_sidechain": [false], "free_energy": -8.213, "intermolecular_energy": -10.134, "internal_energy": -0.76}

$$$$
4wiv_ligand
     RDKit          3D

 50 53  0  0  0  0  0  0  0  0999 V2000
   10.7950   -6.1220  -12.0450 C   0  0  0  0  0  0  0  0  0  0  0  0
   11.7590   -7.0510  -11.4100 C   0  0  0  0  0  0  0  0  0  0  0  0
   11.4670   -8.3540  -11.3090 N   0  0  0  0  0  0  0  0  0  0  0  0
   12.5500   -8.9340  -10.6770 O   0  0  0  0  0  0  0  0  0  0  0  0
   13.4850   -7.9840  -10.4060 C   0  0  0  0  0  0  0  0  0  0  0  0
   14.7170   -8.4600   -9.7470 C   0  0  0  0  0  0  0  0  0  0  0  0
   13.0280   -6.7600  -10.8430 C   0  0  0  0  0  0  0  0  0  0  0  0
   13.7540   -5.5150  -10.7340 C   0  0  0  0  0  0  0  0  0  0  0  0
   14.0580   -4.9890   -9.4730 C   0  0  0  0  0  0  0  0  0  0  0  0
   14.7680   -3.7890   -9.3640 C   0  0  0  0  0  0  0  0  0  0  0  0
   15.1940   -3.1090  -10.5110 C   0  0  0  0  0  0  0  0  0  0  0  0
   15.9320   -1.8680  -10.3700 C   0  0  0  0  0  0  0  0  0  0  0  0
   16.4640   -1.4710   -9.1600 N   0  0  0  0  0  0  0  0  0  0  0  0
   17.0020   -0.3030   -9.4170 C   0  0  0  0  0  0  0  0  0  0  0  0
   17.6530    0.6000   -8.5080 C   0  0  0  0  0  0  0  0  0  0  0  0
   18.0950    1.7690   -8.8940 N   0  0  0  0  0  0  0  0  0  0  0  0
   17.9020    2.1170  -10.2210 C   0  0  0  0  0  0  0  0  0  0  0  0
   17.3140    1.3210  -11.1320 C   0  0  0  0  0  0  0  0  0  0  0  0
   16.8700    0.0730  -10.7280 N   0  0  0  0  0  0  0  0  0  0  0  0
   16.2500   -0.9710  -11.3900 C   0  0  0  0  0  0  0  0  0  0  0  0
   16.0040   -0.9440  -12.7420 N   0  0  0  0  0  0  0  0  0  0  0  0
   17.0680   -1.3830  -13.6920 C   0  0  0  0  0  0  0  0  0  0  0  0
   16.3660   -2.2180  -14.7800 C   0  0  0  0  0  0  0  0  0  0  0  0
   17.7800   -0.2070  -14.3720 C   0  0  0  0  0  0  0  0  0  0  0  0
   18.0990   -2.2720  -12.9780 C   0  0  0  0  0  0  0  0  0  0  0  0
   14.8730   -3.6270  -11.7710 C   0  0  0  0  0  0  0  0  0  0  0  0
   14.1620   -4.8270  -11.8820 C   0  0  0  0  0  0  0  0  0  0  0  0
   10.2364   -5.5837  -11.2651 H   0  0  0  0  0  0  0  0  0  0  0  0
   11.3397   -5.3996  -12.6707 H   0  0  0  0  0  0  0  0  0  0  0  0
   10.0932   -6.6930  -12.6707 H   0  0  0  0  0  0  0  0  0  0  0  0
   14.5911   -8.4114   -8.6553 H   0  0  0  0  0  0  0  0  0  0  0  0
   14.9153   -9.4995  -10.0473 H   0  0  0  0  0  0  0  0  0  0  0  0
   15.5627   -7.8239  -10.0473 H   0  0  0  0  0  0  0  0  0  0  0  0
   13.7375   -5.5210   -8.5651 H   0  0  0  0  0  0  0  0  0  0  0  0
   14.9934   -3.3764   -8.3695 H   0  0  0  0  0  0  0  0  0  0  0  0
   17.7833    0.2995   -7.4579 H   0  0  0  0  0  0  0  0  0  0  0  0
   18.2516    3.1066  -10.5504 H   0  0  0  0  0  0  0  0  0  0  0  0
   17.1888    1.6534  -12.1731 H   0  0  0  0  0  0  0  0  0  0  0  0
   15.1700   -1.4810  -12.9890 H   0  0  0  0  0  0  0  0  0  0  0  0
   15.7276   -2.9773  -14.3046 H   0  0  0  0  0  0  0  0  0  0  0  0
   15.7471   -1.5585  -15.4061 H   0  0  0  0  0  0  0  0  0  0  0  0
   17.1220   -2.7144  -15.4061 H   0  0  0  0  0  0  0  0  0  0  0  0
   18.1884    0.4675  -13.6050 H   0  0  0  0  0  0  0  0  0  0  0  0
   18.5995   -0.5877  -14.9994 H   0  0  0  0  0  0  0  0  0  0  0  0
   17.0628    0.3426  -14.9994 H   0  0  0  0  0  0  0  0  0  0  0  0
   17.9801   -2.1695  -11.8893 H   0  0  0  0  0  0  0  0  0  0  0  0
   17.9408   -3.3215  -13.2669 H   0  0  0  0  0  0  0  0  0  0  0  0
   19.1138   -1.9611  -13.2669 H   0  0  0  0  0  0  0  0  0  0  0  0
   15.1813   -3.0878  -12.6789 H   0  0  0  0  0  0  0  0  0  0  0  0
   13.9227   -5.2314  -12.8766 H   0  0  0  0  0  0  0  0  0  0  0  0
  1  2  1  0
  2  3  2  0
  3  4  1  0
  4  5  1  0
  5  6  1  0
  5  7  2  0
  7  8  1  0
  8  9  2  0
  9 10  1  0
 10 11  2  0
 11 12  1  0
 12 13  1  0
 13 14  2  0
 14 15  1  0
 15 16  2  0
 16 17  1  0
 17 18  2  0
 18 19  1  0
 19 20  1  0
 20 21  1  0
 21 22  1  0
 22 23  1  0
 22 24  1  0
 22 25  1  0
 11 26  1  0
 26 27  2  0
  7  2  1  0
 27  8  1  0
 20 12  2  0
 19 14  1  0
  1 28  1  0
  1 29  1  0
  1 30  1  0
  6 31  1  0
  6 32  1  0
  6 33  1  0
  9 34  1  0
 10 35  1  0
 15 36  1  0
 17 37  1  0
 18 38  1  0
 21 39  1  0
 23 40  1  0
 23 41  1  0
 23 42  1  0
 24 43  1  0
 24 44  1  0
 24 45  1  0
 25 46  1  0
 25 47  1  0
 25 48  1  0
 26 49  1  0
 27 50  1  0
M  END
>  <meeko>  (2) 
{"is_sidechain": [false], "free_energy": -8.159, "intermolecular_energy": -10.088, "internal_energy": -0.74}

$$$$
4wiv_ligand
     RDKit          3D

 50 53  0  0  0  0  0  0  0  0999 V2000
   10.5160   -7.0550  -11.5060 C   0  0  0  0  0  0  0  0  0  0  0  0
   11.5880   -8.0500  -11.2640 C   0  0  0  0  0  0  0  0  0  0  0  0
   11.3870   -9.3380  -11.5670 N   0  0  0  0  0  0  0  0  0  0  0  0
   12.5550   -9.9920  -11.2240 O   0  0  0  0  0  0  0  0  0  0  0  0
   13.4510   -9.0980  -10.7260 C   0  0  0  0  0  0  0  0  0  0  0  0
   14.7640   -9.6480  -10.3350 C   0  0  0  0  0  0  0  0  0  0  0  0
   12.8820   -7.8430  -10.7180 C   0  0  0  0  0  0  0  0  0  0  0  0
   13.5380   -6.6370  -10.2650 C   0  0  0  0  0  0  0  0  0  0  0  0
   13.6660   -5.5420  -11.1260 C   0  0  0  0  0  0  0  0  0  0  0  0
   14.2920   -4.3710  -10.6880 C   0  0  0  0  0  0  0  0  0  0  0  0
   14.7850   -4.2750   -9.3820 C   0  0  0  0  0  0  0  0  0  0  0  0
   15.4280   -3.0480   -8.9510 C   0  0  0  0  0  0  0  0  0  0  0  0
   15.9000   -2.1180   -9.8560 N   0  0  0  0  0  0  0  0  0  0  0  0
   16.4450   -1.1910   -9.1030 C   0  0  0  0  0  0  0  0  0  0  0  0
   17.1430   -0.0050   -9.5140 C   0  0  0  0  0  0  0  0  0  0  0  0
   17.6920    0.8070   -8.6480 N   0  0  0  0  0  0  0  0  0  0  0  0
   17.5860    0.4760   -7.3060 C   0  0  0  0  0  0  0  0  0  0  0  0
   16.9390   -0.6090   -6.8460 C   0  0  0  0  0  0  0  0  0  0  0  0
   16.3360   -1.4550   -7.7620 N   0  0  0  0  0  0  0  0  0  0  0  0
   15.6000   -2.6190   -7.6360 C   0  0  0  0  0  0  0  0  0  0  0  0
   15.2610   -3.1460   -6.4120 N   0  0  0  0  0  0  0  0  0  0  0  0
   13.9160   -2.8590   -5.8340 C   0  0  0  0  0  0  0  0  0  0  0  0
   14.1360   -1.8310   -4.7070 C   0  0  0  0  0  0  0  0  0  0  0  0
   12.9470   -2.2530   -6.8560 C   0  0  0  0  0  0  0  0  0  0  0  0
   13.3040   -4.1310   -5.2270 C   0  0  0  0  0  0  0  0  0  0  0  0
   14.6740   -5.3780   -8.5270 C   0  0  0  0  0  0  0  0  0  0  0  0
   14.0480   -6.5510   -8.9640 C   0  0  0  0  0  0  0  0  0  0  0  0
   10.1268   -6.6937  -10.5427 H   0  0  0  0  0  0  0  0  0  0  0  0
   10.9239   -6.2082  -12.0774 H   0  0  0  0  0  0  0  0  0  0  0  0
    9.7019   -7.5248  -12.0774 H   0  0  0  0  0  0  0  0  0  0  0  0
   14.8368   -9.6785   -9.2378 H   0  0  0  0  0  0  0  0  0  0  0  0
   14.8698  -10.6661  -10.7379 H   0  0  0  0  0  0  0  0  0  0  0  0
   15.5638   -9.0093  -10.7379 H   0  0  0  0  0  0  0  0  0  0  0  0
   13.2727   -5.6024  -12.1515 H   0  0  0  0  0  0  0  0  0  0  0  0
   14.3977   -3.5187  -11.3753 H   0  0  0  0  0  0  0  0  0  0  0  0
   17.2179    0.2268  -10.5867 H   0  0  0  0  0  0  0  0  0  0  0  0
   18.0611    1.1429   -6.5715 H   0  0  0  0  0  0  0  0  0  0  0  0
   16.8897   -0.8199   -5.7675 H   0  0  0  0  0  0  0  0  0  0  0  0
   15.3620   -4.1630   -6.3950 H   0  0  0  0  0  0  0  0  0  0  0  0
   14.0296   -2.3280   -3.7315 H   0  0  0  0  0  0  0  0  0  0  0  0
   15.1459   -1.4036   -4.7926 H   0  0  0  0  0  0  0  0  0  0  0  0
   13.3894   -1.0277   -4.7926 H   0  0  0  0  0  0  0  0  0  0  0  0
   12.1291   -1.7415   -6.3273 H   0  0  0  0  0  0  0  0  0  0  0  0
   13.4845   -1.5299   -7.4870 H   0  0  0  0  0  0  0  0  0  0  0  0
   12.5321   -3.0528   -7.4870 H   0  0  0  0  0  0  0  0  0  0  0  0
   13.3356   -4.0653   -4.1294 H   0  0  0  0  0  0  0  0  0  0  0  0
   12.2598   -4.2297   -5.5585 H   0  0  0  0  0  0  0  0  0  0  0  0
   13.8785   -5.0085   -5.5585 H   0  0  0  0  0  0  0  0  0  0  0  0
   15.0809   -5.3224   -7.5065 H   0  0  0  0  0  0  0  0  0  0  0  0
   13.9563   -7.4093   -8.2822 H   0  0  0  0  0  0  0  0  0  0  0  0
  1  2  1  0
  2  3  2  0
  3  4  1  0
  4  5  1  0
  5  6  1  0
  5  7  2  0
  7  8  1  0
  8  9  2  0
  9 10  1  0
 10 11  2  0
 11 12  1  0
 12 13  1  0
 13 14  2  0
 14 15  1  0
 15 16  2  0
 16 17  1  0
 17 18  2  0
 18 19  1  0
 19 20  1  0
 20 21  1  0
 21 22  1  0
 22 23  1  0
 22 24  1  0
 22 25  1  0
 11 26  1  0
 26 27  2  0
  7  2  1  0
 27  8  1  0
 20 12  2  0
 19 14  1  0
  1 28  1  0
  1 29  1  0
  1 30  1  0
  6 31  1  0
  6 32  1  0
  6 33  1  0
  9 34  1  0
 10 35  1  0
 15 36  1  0
 17 37  1  0
 18 38  1  0
 21 39  1  0
 23 40  1  0
 23 41  1  0
 23 42  1  0
 24 43  1  0
 24 44  1  0
 24 45  1  0
 25 46  1  0
 25 47  1  0
 25 48  1  0
 26 49  1  0
 27 50  1  0
M  END
>  <meeko>  (3) 
{"is_sidechain": [false], "free_energy": -8.083, "intermolecular_energy": -9.932, "internal_energy": -0.801}

$$$$
4wiv_ligand
     RDKit          3D

 50 53  0  0  0  0  0  0  0  0999 V2000
   14.6430   -9.5790  -10.3370 C   0  0  0  0  0  0  0  0  0  0  0  0
   13.3750   -8.9860  -10.8230 C   0  0  0  0  0  0  0  0  0  0  0  0
   12.4520   -9.7620  -11.4050 N   0  0  0  0  0  0  0  0  0  0  0  0
   11.4110   -8.9200  -11.7420 O   0  0  0  0  0  0  0  0  0  0  0  0
   11.7070   -7.6480  -11.3580 C   0  0  0  0  0  0  0  0  0  0  0  0
   10.6720   -6.6320  -11.6330 C   0  0  0  0  0  0  0  0  0  0  0  0
   12.9550   -7.6310  -10.7750 C   0  0  0  0  0  0  0  0  0  0  0  0
   13.6030   -6.4560  -10.2370 C   0  0  0  0  0  0  0  0  0  0  0  0
   13.7110   -5.2970  -11.0130 C   0  0  0  0  0  0  0  0  0  0  0  0
   14.3300   -4.1570  -10.4920 C   0  0  0  0  0  0  0  0  0  0  0  0
   14.8360   -4.1550   -9.1870 C   0  0  0  0  0  0  0  0  0  0  0  0
   15.4700   -2.9580   -8.6690 C   0  0  0  0  0  0  0  0  0  0  0  0
   16.0400   -2.0180   -9.5050 N   0  0  0  0  0  0  0  0  0  0  0  0
   16.5430   -1.1270   -8.6830 C   0  0  0  0  0  0  0  0  0  0  0  0
   17.3030    0.0510   -9.0000 C   0  0  0  0  0  0  0  0  0  0  0  0
   17.7970    0.8250   -8.0690 N   0  0  0  0  0  0  0  0  0  0  0  0
   17.5700    0.4620   -6.7510 C   0  0  0  0  0  0  0  0  0  0  0  0
   16.8580   -0.6160   -6.3770 C   0  0  0  0  0  0  0  0  0  0  0  0
   16.3140   -1.4220   -7.3640 N   0  0  0  0  0  0  0  0  0  0  0  0
   15.5410   -2.5680   -7.3330 C   0  0  0  0  0  0  0  0  0  0  0  0
   15.0870   -3.1170   -6.1570 N   0  0  0  0  0  0  0  0  0  0  0  0
   13.6890   -2.8450   -5.7100 C   0  0  0  0  0  0  0  0  0  0  0  0
   13.7880   -1.8120   -4.5710 C   0  0  0  0  0  0  0  0  0  0  0  0
   12.8140   -2.2530   -6.8210 C   0  0  0  0  0  0  0  0  0  0  0  0
   13.0380   -4.1240   -5.1590 C   0  0  0  0  0  0  0  0  0  0  0  0
   14.7440   -5.3210   -8.4190 C   0  0  0  0  0  0  0  0  0  0  0  0
   14.1250   -6.4640   -8.9380 C   0  0  0  0  0  0  0  0  0  0  0  0
   14.6486   -9.5816   -9.2370 H   0  0  0  0  0  0  0  0  0  0  0  0
   14.7303  -10.6114  -10.7066 H   0  0  0  0  0  0  0  0  0  0  0  0
   15.4913   -8.9842  -10.7066 H   0  0  0  0  0  0  0  0  0  0  0  0
   10.2770   -6.2443  -10.6824 H   0  0  0  0  0  0  0  0  0  0  0  0
   11.1130   -5.8064  -12.2108 H   0  0  0  0  0  0  0  0  0  0  0  0
    9.8547   -7.0882  -12.2108 H   0  0  0  0  0  0  0  0  0  0  0  0
   13.3076   -5.2827  -12.0363 H   0  0  0  0  0  0  0  0  0  0  0  0
   14.4202   -3.2536  -11.1131 H   0  0  0  0  0  0  0  0  0  0  0  0
   17.4739    0.3087  -10.0556 H   0  0  0  0  0  0  0  0  0  0  0  0
   17.9992    1.0955   -5.9608 H   0  0  0  0  0  0  0  0  0  0  0  0
   16.7110   -0.8522   -5.3128 H   0  0  0  0  0  0  0  0  0  0  0  0
   15.1910   -4.1330   -6.1460 H   0  0  0  0  0  0  0  0  0  0  0  0
   13.7384   -2.3293   -3.6015 H   0  0  0  0  0  0  0  0  0  0  0  0
   14.7422   -1.2703   -4.6492 H   0  0  0  0  0  0  0  0  0  0  0  0
   12.9541   -1.0989   -4.6492 H   0  0  0  0  0  0  0  0  0  0  0  0
   11.9823   -1.6903   -6.3721 H   0  0  0  0  0  0  0  0  0  0  0  0
   13.4193   -1.5781   -7.4440 H   0  0  0  0  0  0  0  0  0  0  0  0
   12.4127   -3.0659   -7.4440 H   0  0  0  0  0  0  0  0  0  0  0  0
   13.0513   -4.0978   -4.0594 H   0  0  0  0  0  0  0  0  0  0  0  0
   11.9980   -4.1873   -5.5117 H   0  0  0  0  0  0  0  0  0  0  0  0
   13.5988   -5.0021   -5.5117 H   0  0  0  0  0  0  0  0  0  0  0  0
   15.1607   -5.3395   -7.4011 H   0  0  0  0  0  0  0  0  0  0  0  0
   14.0483   -7.3725   -8.3226 H   0  0  0  0  0  0  0  0  0  0  0  0
  1  2  1  0
  2  3  2  0
  3  4  1  0
  4  5  1  0
  5  6  1  0
  5  7  2  0
  7  8  1  0
  8  9  2  0
  9 10  1  0
 10 11  2  0
 11 12  1  0
 12 13  1  0
 13 14  2  0
 14 15  1  0
 15 16  2  0
 16 17  1  0
 17 18  2  0
 18 19  1  0
 19 20  1  0
 20 21  1  0
 21 22  1  0
 22 23  1  0
 22 24  1  0
 22 25  1  0
 11 26  1  0
 26 27  2  0
  7  2  1  0
 27  8  1  0
 20 12  2  0
 19 14  1  0
  1 28  1  0
  1 29  1  0
  1 30  1  0
  6 31  1  0
  6 32  1  0
  6 33  1  0
  9 34  1  0
 10 35  1  0
 15 36  1  0
 17 37  1  0
 18 38  1  0
 21 39  1  0
 23 40  1  0
 23 41  1  0
 23 42  1  0
 24 43  1  0
 24 44  1  0
 24 45  1  0
 25 46  1  0
 25 47  1  0
 25 48  1  0
 26 49  1  0
 27 50  1  0
M  END
>  <meeko>  (4) 
{"is_sidechain": [false], "free_energy": -7.965, "intermolecular_energy": -9.876, "internal_energy": -0.712}

$$$$
4wiv_ligand
     RDKit          3D

 50 53  0  0  0  0  0  0  0  0999 V2000
   12.4600  -10.4320  -11.4500 C   0  0  0  0  0  0  0  0  0  0  0  0
   11.7680   -9.1590  -11.7590 C   0  0  0  0  0  0  0  0  0  0  0  0
   10.7370   -9.1460  -12.6130 N   0  0  0  0  0  0  0  0  0  0  0  0
   10.3250   -7.8290  -12.6850 O   0  0  0  0  0  0  0  0  0  0  0  0
   11.1010   -7.0610  -11.8740 C   0  0  0  0  0  0  0  0  0  0  0  0
   10.7640   -5.6240  -11.8280 C   0  0  0  0  0  0  0  0  0  0  0  0
   12.0470   -7.8570  -11.2660 C   0  0  0  0  0  0  0  0  0  0  0  0
   13.0440   -7.3920  -10.3280 C   0  0  0  0  0  0  0  0  0  0  0  0
   13.5280   -8.2510   -9.3360 C   0  0  0  0  0  0  0  0  0  0  0  0
   14.4980   -7.8070   -8.4320 C   0  0  0  0  0  0  0  0  0  0  0  0
   15.0060   -6.5060   -8.5170 C   0  0  0  0  0  0  0  0  0  0  0  0
   16.0150   -6.0710   -7.5700 C   0  0  0  0  0  0  0  0  0  0  0  0
   17.2990   -6.5800   -7.5890 N   0  0  0  0  0  0  0  0  0  0  0  0
   17.8880   -5.9940   -6.5740 C   0  0  0  0  0  0  0  0  0  0  0  0
   19.2250   -6.1890   -6.0840 C   0  0  0  0  0  0  0  0  0  0  0  0
   19.6650   -5.5740   -5.0170 N   0  0  0  0  0  0  0  0  0  0  0  0
   18.7860   -4.7280   -4.3600 C   0  0  0  0  0  0  0  0  0  0  0  0
   17.5260   -4.4860   -4.7650 C   0  0  0  0  0  0  0  0  0  0  0  0
   17.0690   -5.1180   -5.9100 N   0  0  0  0  0  0  0  0  0  0  0  0
   15.8680   -5.0870   -6.5940 C   0  0  0  0  0  0  0  0  0  0  0  0
   14.8290   -4.2670   -6.2200 N   0  0  0  0  0  0  0  0  0  0  0  0
   14.7310   -2.8940   -6.7980 C   0  0  0  0  0  0  0  0  0  0  0  0
   14.8880   -1.9120   -5.6210 C   0  0  0  0  0  0  0  0  0  0  0  0
   15.8350   -2.6000   -7.8210 C   0  0  0  0  0  0  0  0  0  0  0  0
   13.3530   -2.6750   -7.4420 C   0  0  0  0  0  0  0  0  0  0  0  0
   14.5080   -5.6420   -9.4980 C   0  0  0  0  0  0  0  0  0  0  0  0
   13.5360   -6.0840  -10.4030 C   0  0  0  0  0  0  0  0  0  0  0  0
   12.5280  -10.5570  -10.3592 H   0  0  0  0  0  0  0  0  0  0  0  0
   11.8938  -11.2710  -11.8807 H   0  0  0  0  0  0  0  0  0  0  0  0
   13.4720  -10.4131  -11.8807 H   0  0  0  0  0  0  0  0  0  0  0  0
   10.6877   -5.2986  -10.7800 H   0  0  0  0  0  0  0  0  0  0  0  0
   11.5511   -5.0464  -12.3349 H   0  0  0  0  0  0  0  0  0  0  0  0
    9.8022   -5.4565  -12.3349 H   0  0  0  0  0  0  0  0  0  0  0  0
   13.1442   -9.2795   -9.2667 H   0  0  0  0  0  0  0  0  0  0  0  0
   14.8646   -8.4858   -7.6479 H   0  0  0  0  0  0  0  0  0  0  0  0
   19.8968   -6.8745   -6.6213 H   0  0  0  0  0  0  0  0  0  0  0  0
   19.1408   -4.2223   -3.4498 H   0  0  0  0  0  0  0  0  0  0  0  0
   16.8744   -3.8028   -4.2006 H   0  0  0  0  0  0  0  0  0  0  0  0
   13.9210   -4.7050   -6.3840 H   0  0  0  0  0  0  0  0  0  0  0  0
   14.8003   -2.4606   -4.6716 H   0  0  0  0  0  0  0  0  0  0  0  0
   15.8748   -1.4290   -5.6756 H   0  0  0  0  0  0  0  0  0  0  0  0
   14.1010   -1.1454   -5.6756 H   0  0  0  0  0  0  0  0  0  0  0  0
   16.7675   -2.3517   -7.2930 H   0  0  0  0  0  0  0  0  0  0  0  0
   15.9958   -3.4866   -8.4519 H   0  0  0  0  0  0  0  0  0  0  0  0
   15.5336   -1.7508   -8.4519 H   0  0  0  0  0  0  0  0  0  0  0  0
   12.5950   -2.5545   -6.6540 H   0  0  0  0  0  0  0  0  0  0  0  0
   13.3798   -1.7698   -8.0665 H   0  0  0  0  0  0  0  0  0  0  0  0
   13.0979   -3.5439   -8.0665 H   0  0  0  0  0  0  0  0  0  0  0  0
   14.8824   -4.6094   -9.5585 H   0  0  0  0  0  0  0  0  0  0  0  0
   13.1571   -5.4001  -11.1768 H   0  0  0  0  0  0  0  0  0  0  0  0
  1  2  1  0
  2  3  2  0
  3  4  1  0
  4  5  1  0
  5  6  1  0
  5  7  2  0
  7  8  1  0
  8  9  2  0
  9 10  1  0
 10 11  2  0
 11 12  1  0
 12 13  1  0
 13 14  2  0
 14 15  1  0
 15 16  2  0
 16 17  1  0
 17 18  2  0
 18 19  1  0
 19 20  1  0
 20 21  1  0
 21 22  1  0
 22 23  1  0
 22 24  1  0
 22 25  1  0
 11 26  1  0
 26 27  2  0
  7  2  1  0
 27  8  1  0
 20 12  2  0
 19 14  1  0
  1 28  1  0
  1 29  1  0
  1 30  1  0
  6 31  1  0
  6 32  1  0
  6 33  1  0
  9 34  1  0
 10 35  1  0
 15 36  1  0
 17 37  1  0
 18 38  1  0
 21 39  1  0
 23 40  1  0
 23 41  1  0
 23 42  1  0
 24 43  1  0
 24 44  1  0
 24 45  1  0
 25 46  1  0
 25 47  1  0
 25 48  1  0
 26 49  1  0
 27 50  1  0
M  END
>  <meeko>  (5) 
{"is_sidechain": [false], "free_energy": -7.198, "intermolecular_energy": -9.061, "internal_energy": -0.581}

$$$$
4wiv_ligand
     RDKit          3D

 50 53  0  0  0  0  0  0  0  0999 V2000
   18.5560   -6.9610   -7.3340 C   0  0  0  0  0  0  0  0  0  0  0  0
   17.6750   -7.5770   -6.3140 C   0  0  0  0  0  0  0  0  0  0  0  0
   18.1620   -7.8870   -5.1060 N   0  0  0  0  0  0  0  0  0  0  0  0
   17.1070   -8.4370   -4.4050 O   0  0  0  0  0  0  0  0  0  0  0  0
   15.9940   -8.4510   -5.1870 C   0  0  0  0  0  0  0  0  0  0  0  0
   14.7710   -8.9920   -4.5620 C   0  0  0  0  0  0  0  0  0  0  0  0
   16.3020   -7.9220   -6.4210 C   0  0  0  0  0  0  0  0  0  0  0  0
   15.3680   -7.7660   -7.5140 C   0  0  0  0  0  0  0  0  0  0  0  0
   15.2100   -8.7910   -8.4530 C   0  0  0  0  0  0  0  0  0  0  0  0
   14.3020   -8.6460   -9.5060 C   0  0  0  0  0  0  0  0  0  0  0  0
   13.5300   -7.4850   -9.6250 C   0  0  0  0  0  0  0  0  0  0  0  0
   12.5920   -7.3610  -10.7250 C   0  0  0  0  0  0  0  0  0  0  0  0
   11.8070   -8.4210  -11.1330 N   0  0  0  0  0  0  0  0  0  0  0  0
   11.1410   -7.9460  -12.1600 C   0  0  0  0  0  0  0  0  0  0  0  0
   10.2120   -8.6310  -13.0150 C   0  0  0  0  0  0  0  0  0  0  0  0
    9.6620   -8.0450  -14.0470 N   0  0  0  0  0  0  0  0  0  0  0  0
   10.0190   -6.7290  -14.2970 C   0  0  0  0  0  0  0  0  0  0  0  0
   10.8710   -6.0200  -13.5360 C   0  0  0  0  0  0  0  0  0  0  0  0
   11.4330   -6.6340  -12.4290 N   0  0  0  0  0  0  0  0  0  0  0  0
   12.3130   -6.2050  -11.4520 C   0  0  0  0  0  0  0  0  0  0  0  0
   12.7760   -4.9120  -11.3950 N   0  0  0  0  0  0  0  0  0  0  0  0
   14.1210   -4.5870  -11.9530 C   0  0  0  0  0  0  0  0  0  0  0  0
   14.6950   -3.4540  -11.0800 C   0  0  0  0  0  0  0  0  0  0  0  0
   15.0900   -5.7750  -11.8980 C   0  0  0  0  0  0  0  0  0  0  0  0
   14.0000   -4.0800  -13.3990 C   0  0  0  0  0  0  0  0  0  0  0  0
   13.7020   -6.4530   -8.6950 C   0  0  0  0  0  0  0  0  0  0  0  0
   14.6110   -6.5950   -7.6410 C   0  0  0  0  0  0  0  0  0  0  0  0
   19.3590   -6.3995   -6.8341 H   0  0  0  0  0  0  0  0  0  0  0  0
   18.9961   -7.7492   -7.9625 H   0  0  0  0  0  0  0  0  0  0  0  0
   17.9668   -6.2770   -7.9625 H   0  0  0  0  0  0  0  0  0  0  0  0
   14.8688   -8.9487   -3.4672 H   0  0  0  0  0  0  0  0  0  0  0  0
   13.9031   -8.3938   -4.8765 H   0  0  0  0  0  0  0  0  0  0  0  0
   14.6298  -10.0366   -4.8765 H   0  0  0  0  0  0  0  0  0  0  0  0
   15.8020   -9.7137   -8.3625 H   0  0  0  0  0  0  0  0  0  0  0  0
   14.1935   -9.4514  -10.2473 H   0  0  0  0  0  0  0  0  0  0  0  0
    9.9559   -9.6780  -12.7957 H   0  0  0  0  0  0  0  0  0  0  0  0
    9.5770   -6.2332  -15.1739 H   0  0  0  0  0  0  0  0  0  0  0  0
   11.1158   -4.9773  -13.7866 H   0  0  0  0  0  0  0  0  0  0  0  0
   12.1260   -4.2550  -11.8320 H   0  0  0  0  0  0  0  0  0  0  0  0
   14.5661   -3.7085  -10.0176 H   0  0  0  0  0  0  0  0  0  0  0  0
   15.7655   -3.3283  -11.2996 H   0  0  0  0  0  0  0  0  0  0  0  0
   14.1631   -2.5165  -11.2996 H   0  0  0  0  0  0  0  0  0  0  0  0
   15.2981   -6.0301  -10.8484 H   0  0  0  0  0  0  0  0  0  0  0  0
   14.6374   -6.6410  -12.4031 H   0  0  0  0  0  0  0  0  0  0  0  0
   16.0293   -5.5057  -12.4031 H   0  0  0  0  0  0  0  0  0  0  0  0
   13.7447   -3.0101  -13.3922 H   0  0  0  0  0  0  0  0  0  0  0  0
   14.9580   -4.2251  -13.9198 H   0  0  0  0  0  0  0  0  0  0  0  0
   13.2108   -4.6420  -13.9198 H   0  0  0  0  0  0  0  0  0  0  0  0
   13.1192   -5.5253   -8.7934 H   0  0  0  0  0  0  0  0  0  0  0  0
   14.7315   -5.7830   -6.9088 H   0  0  0  0  0  0  0  0  0  0  0  0
  1  2  1  0
  2  3  2  0
  3  4  1  0
  4  5  1  0
  5  6  1  0
  5  7  2  0
  7  8  1  0
  8  9  2  0
  9 10  1  0
 10 11  2  0
 11 12  1  0
 12 13  1  0
 13 14  2  0
 14 15  1  0
 15 16  2  0
 16 17  1  0
 17 18  2  0
 18 19  1  0
 19 20  1  0
 20 21  1  0
 21 22  1  0
 22 23  1  0
 22 24  1  0
 22 25  1  0
 11 26  1  0
 26 27  2  0
  7  2  1  0
 27  8  1  0
 20 12  2  0
 19 14  1  0
  1 28  1  0
  1 29  1  0
  1 30  1  0
  6 31  1  0
  6 32  1  0
  6 33  1  0
  9 34  1  0
 10 35  1  0
 15 36  1  0
 17 37  1  0
 18 38  1  0
 21 39  1  0
 23 40  1  0
 23 41  1  0
 23 42  1  0
 24 43  1  0
 24 44  1  0
 24 45  1  0
 25 46  1  0
 25 47  1  0
 25 48  1  0
 26 49  1  0
 27 50  1  0
M  END
>  <meeko>  (6) 
{"is_sidechain": [false], "free_energy": -7.081, "intermolecular_energy": -8.785, "internal_energy": -0.712}

$$$$
4wiv_ligand
     RDKit          3D

 50 53  0  0  0  0  0  0  0  0999 V2000
   10.8370   -5.6810  -11.6590 C   0  0  0  0  0  0  0  0  0  0  0  0
   11.3310   -7.0770  -11.7200 C   0  0  0  0  0  0  0  0  0  0  0  0
   10.7510   -7.9570  -12.5450 N   0  0  0  0  0  0  0  0  0  0  0  0
   11.4290   -9.1470  -12.3640 O   0  0  0  0  0  0  0  0  0  0  0  0
   12.4130   -8.9770  -11.4400 C   0  0  0  0  0  0  0  0  0  0  0  0
   13.2440  -10.1640  -11.1550 C   0  0  0  0  0  0  0  0  0  0  0  0
   12.3890   -7.6770  -10.9870 C   0  0  0  0  0  0  0  0  0  0  0  0
   13.2930   -7.1230  -10.0040 C   0  0  0  0  0  0  0  0  0  0  0  0
   13.7060   -7.8990   -8.9150 C   0  0  0  0  0  0  0  0  0  0  0  0
   14.5870   -7.3690   -7.9680 C   0  0  0  0  0  0  0  0  0  0  0  0
   15.0770   -6.0650   -8.1040 C   0  0  0  0  0  0  0  0  0  0  0  0
   15.9930   -5.5410   -7.1090 C   0  0  0  0  0  0  0  0  0  0  0  0
   17.3230   -5.9110   -7.0770 N   0  0  0  0  0  0  0  0  0  0  0  0
   17.8040   -5.2810   -6.0320 C   0  0  0  0  0  0  0  0  0  0  0  0
   19.1320   -5.3400   -5.4860 C   0  0  0  0  0  0  0  0  0  0  0  0
   19.4580   -4.6990   -4.3940 N   0  0  0  0  0  0  0  0  0  0  0  0
   18.4670   -3.9610   -3.7670 C   0  0  0  0  0  0  0  0  0  0  0  0
   17.2080   -3.8470   -4.2240 C   0  0  0  0  0  0  0  0  0  0  0  0
   16.8690   -4.5060   -5.3940 N   0  0  0  0  0  0  0  0  0  0  0  0
   15.7010   -4.5920   -6.1300 C   0  0  0  0  0  0  0  0  0  0  0  0
   14.5670   -3.8920   -5.7930 N   0  0  0  0  0  0  0  0  0  0  0  0
   14.3700   -2.5110   -6.3220 C   0  0  0  0  0  0  0  0  0  0  0  0
   12.9920   -2.4970   -7.0100 C   0  0  0  0  0  0  0  0  0  0  0  0
   14.3680   -1.4460   -5.2180 C   0  0  0  0  0  0  0  0  0  0  0  0
   15.4450   -2.1730   -7.3680 C   0  0  0  0  0  0  0  0  0  0  0  0
   14.6490   -5.2840   -9.1830 C   0  0  0  0  0  0  0  0  0  0  0  0
   13.7670   -5.8120  -10.1320 C   0  0  0  0  0  0  0  0  0  0  0  0
   10.7290   -5.3759  -10.6077 H   0  0  0  0  0  0  0  0  0  0  0  0
   11.5544   -5.0159  -12.1620 H   0  0  0  0  0  0  0  0  0  0  0  0
    9.8610   -5.6151  -12.1620 H   0  0  0  0  0  0  0  0  0  0  0  0
   13.3355  -10.2948  -10.0666 H   0  0  0  0  0  0  0  0  0  0  0  0
   12.7720  -11.0558  -11.5930 H   0  0  0  0  0  0  0  0  0  0  0  0
   14.2435  -10.0256  -11.5930 H   0  0  0  0  0  0  0  0  0  0  0  0
   13.3362   -8.9290   -8.8040 H   0  0  0  0  0  0  0  0  0  0  0  0
   14.8977   -7.9817   -7.1089 H   0  0  0  0  0  0  0  0  0  0  0  0
   19.8956   -5.9412   -6.0012 H   0  0  0  0  0  0  0  0  0  0  0  0
   18.7269   -3.4352   -2.8364 H   0  0  0  0  0  0  0  0  0  0  0  0
   16.4645   -3.2445   -3.6815 H   0  0  0  0  0  0  0  0  0  0  0  0
   13.7170   -4.4060   -6.0330 H   0  0  0  0  0  0  0  0  0  0  0  0
   12.2007   -2.4890   -6.2459 H   0  0  0  0  0  0  0  0  0  0  0  0
   12.9047   -1.5979   -7.6377 H   0  0  0  0  0  0  0  0  0  0  0  0
   12.8864   -3.3941   -7.6377 H   0  0  0  0  0  0  0  0  0  0  0  0
   14.3689   -1.9378   -4.2341 H   0  0  0  0  0  0  0  0  0  0  0  0
   15.2650   -0.8165   -5.3141 H   0  0  0  0  0  0  0  0  0  0  0  0
   13.4687   -0.8199   -5.3141 H   0  0  0  0  0  0  0  0  0  0  0  0
   16.3744   -1.8808   -6.8573 H   0  0  0  0  0  0  0  0  0  0  0  0
   15.6342   -3.0550   -7.9975 H   0  0  0  0  0  0  0  0  0  0  0  0
   15.0954   -1.3414   -7.9975 H   0  0  0  0  0  0  0  0  0  0  0  0
   15.0079   -4.2493   -9.2857 H   0  0  0  0  0  0  0  0  0  0  0  0
   13.4444   -5.1940  -10.9829 H   0  0  0  0  0  0  0  0  0  0  0  0
  1  2  1  0
  2  3  2  0
  3  4  1  0
  4  5  1  0
  5  6  1  0
  5  7  2  0
  7  8  1  0
  8  9  2  0
  9 10  1  0
 10 11  2  0
 11 12  1  0
 12 13  1  0
 13 14  2  0
 14 15  1  0
 15 16  2  0
 16 17  1  0
 17 18  2  0
 18 19  1  0
 19 20  1  0
 20 21  1  0
 21 22  1  0
 22 23  1  0
 22 24  1  0
 22 25  1  0
 11 26  1  0
 26 27  2  0
  7  2  1  0
 27  8  1  0
 20 12  2  0
 19 14  1  0
  1 28  1  0
  1 29  1  0
  1 30  1  0
  6 31  1  0
  6 32  1  0
  6 33  1  0
  9 34  1  0
 10 35  1  0
 15 36  1  0
 17 37  1  0
 18 38  1  0
 21 39  1  0
 23 40  1  0
 23 41  1  0
 23 42  1  0
 24 43  1  0
 24 44  1  0
 24 45  1  0
 25 46  1  0
 25 47  1  0
 25 48  1  0
 26 49  1  0
 27 50  1  0
M  END
>  <meeko>  (7) 
{"is_sidechain": [false], "free_energy": -6.954, "intermolecular_energy": -8.65, "internal_energy": -0.69}

$$$$
4wiv_ligand
     RDKit          3D

 50 53  0  0  0  0  0  0  0  0999 V2000
   18.7510   -0.6820   -8.5600 C   0  0  0  0  0  0  0  0  0  0  0  0
   18.1990    0.1110   -9.6830 C   0  0  0  0  0  0  0  0  0  0  0  0
   18.7080    1.3170   -9.9660 N   0  0  0  0  0  0  0  0  0  0  0  0
   17.9840    1.7870  -11.0440 O   0  0  0  0  0  0  0  0  0  0  0  0
   17.0520    0.8660  -11.4080 C   0  0  0  0  0  0  0  0  0  0  0  0
   16.2120    1.2190  -12.5690 C   0  0  0  0  0  0  0  0  0  0  0  0
   17.1370   -0.2210  -10.5660 C   0  0  0  0  0  0  0  0  0  0  0  0
   16.3100   -1.4040  -10.6500 C   0  0  0  0  0  0  0  0  0  0  0  0
   16.2520   -2.1350  -11.8420 C   0  0  0  0  0  0  0  0  0  0  0  0
   15.4590   -3.2840  -11.9240 C   0  0  0  0  0  0  0  0  0  0  0  0
   14.7280   -3.7240  -10.8150 C   0  0  0  0  0  0  0  0  0  0  0  0
   13.9170   -4.9220  -10.9260 C   0  0  0  0  0  0  0  0  0  0  0  0
   12.7820   -4.9610  -11.7110 N   0  0  0  0  0  0  0  0  0  0  0  0
   12.3050   -6.1680  -11.5190 C   0  0  0  0  0  0  0  0  0  0  0  0
   11.1000   -6.7460  -12.0470 C   0  0  0  0  0  0  0  0  0  0  0  0
   10.7130   -7.9520  -11.7220 N   0  0  0  0  0  0  0  0  0  0  0  0
   11.5070   -8.6590  -10.8330 C   0  0  0  0  0  0  0  0  0  0  0  0
   12.6530   -8.1910  -10.3080 C   0  0  0  0  0  0  0  0  0  0  0  0
   13.0750   -6.9220  -10.6730 N   0  0  0  0  0  0  0  0  0  0  0  0
   14.1790   -6.1590  -10.3400 C   0  0  0  0  0  0  0  0  0  0  0  0
   15.1880   -6.6350   -9.5360 N   0  0  0  0  0  0  0  0  0  0  0  0
   15.0830   -6.4790   -8.0550 C   0  0  0  0  0  0  0  0  0  0  0  0
   16.4550   -5.9700   -7.5710 C   0  0  0  0  0  0  0  0  0  0  0  0
   14.0160   -5.4590   -7.6390 C   0  0  0  0  0  0  0  0  0  0  0  0
   14.7980   -7.8330   -7.3870 C   0  0  0  0  0  0  0  0  0  0  0  0
   14.7730   -2.9820   -9.6300 C   0  0  0  0  0  0  0  0  0  0  0  0
   15.5650   -1.8310   -9.5450 C   0  0  0  0  0  0  0  0  0  0  0  0
   18.4385   -0.2330   -7.6057 H   0  0  0  0  0  0  0  0  0  0  0  0
   18.3751   -1.7140   -8.6202 H   0  0  0  0  0  0  0  0  0  0  0  0
   19.8493   -0.6878   -8.6202 H   0  0  0  0  0  0  0  0  0  0  0  0
   15.2512    1.6228  -12.2172 H   0  0  0  0  0  0  0  0  0  0  0  0
   16.7273    1.9767  -13.1776 H   0  0  0  0  0  0  0  0  0  0  0  0
   16.0314    0.3207  -13.1776 H   0  0  0  0  0  0  0  0  0  0  0  0
   16.8317   -1.8049  -12.7167 H   0  0  0  0  0  0  0  0  0  0  0  0
   15.4095   -3.8464  -12.8680 H   0  0  0  0  0  0  0  0  0  0  0  0
   10.4858   -6.1573  -12.7443 H   0  0  0  0  0  0  0  0  0  0  0  0
   11.1790   -9.6667  -10.5382 H   0  0  0  0  0  0  0  0  0  0  0  0
   13.2413   -8.8002   -9.6060 H   0  0  0  0  0  0  0  0  0  0  0  0
   15.3700   -7.6270   -9.7000 H   0  0  0  0  0  0  0  0  0  0  0  0
   16.4761   -5.9622   -6.4712 H   0  0  0  0  0  0  0  0  0  0  0  0
   17.2464   -6.6343   -7.9482 H   0  0  0  0  0  0  0  0  0  0  0  0
   16.6216   -4.9502   -7.9482 H   0  0  0  0  0  0  0  0  0  0  0  0
   13.9642   -5.4095   -6.5413 H   0  0  0  0  0  0  0  0  0  0  0  0
   14.2798   -4.4687   -8.0386 H   0  0  0  0  0  0  0  0  0  0  0  0
   13.0386   -5.7672   -8.0386 H   0  0  0  0  0  0  0  0  0  0  0  0
   14.8229   -7.7149   -6.2936 H   0  0  0  0  0  0  0  0  0  0  0  0
   13.8047   -8.1917   -7.6946 H   0  0  0  0  0  0  0  0  0  0  0  0
   15.5624   -8.5617   -7.6946 H   0  0  0  0  0  0  0  0  0  0  0  0
   14.1825   -3.3049   -8.7599 H   0  0  0  0  0  0  0  0  0  0  0  0
   15.6020   -1.2597   -8.6057 H   0  0  0  0  0  0  0  0  0  0  0  0
  1  2  1  0
  2  3  2  0
  3  4  1  0
  4  5  1  0
  5  6  1  0
  5  7  2  0
  7  8  1  0
  8  9  2  0
  9 10  1  0
 10 11  2  0
 11 12  1  0
 12 13  1  0
 13 14  2  0
 14 15  1  0
 15 16  2  0
 16 17  1  0
 17 18  2  0
 18 19  1  0
 19 20  1  0
 20 21  1  0
 21 22  1  0
 22 23  1  0
 22 24  1  0
 22 25  1  0
 11 26  1  0
 26 27  2  0
  7  2  1  0
 27  8  1  0
 20 12  2  0
 19 14  1  0
  1 28  1  0
  1 29  1  0
  1 30  1  0
  6 31  1  0
  6 32  1  0
  6 33  1  0
  9 34  1  0
 10 35  1  0
 15 36  1  0
 17 37  1  0
 18 38  1  0
 21 39  1  0
 23 40  1  0
 23 41  1  0
 23 42  1  0
 24 43  1  0
 24 44  1  0
 24 45  1  0
 25 46  1  0
 25 47  1  0
 25 48  1  0
 26 49  1  0
 27 50  1  0
M  END
>  <meeko>  (8) 
{"is_sidechain": [false], "free_energy": -6.841, "intermolecular_energy": -8.437, "internal_energy": -0.764}

$$$$
4wiv_ligand
     RDKit          3D

 50 53  0  0  0  0  0  0  0  0999 V2000
   16.2890    1.0830  -12.1750 C   0  0  0  0  0  0  0  0  0  0  0  0
   16.0630   -0.2390  -12.8050 C   0  0  0  0  0  0  0  0  0  0  0  0
   16.1560   -0.3730  -14.1330 N   0  0  0  0  0  0  0  0  0  0  0  0
   15.8900   -1.7030  -14.3970 O   0  0  0  0  0  0  0  0  0  0  0  0
   15.6460   -2.3610  -13.2320 C   0  0  0  0  0  0  0  0  0  0  0  0
   15.3670   -3.8060  -13.3520 C   0  0  0  0  0  0  0  0  0  0  0  0
   15.7320   -1.4720  -12.1830 C   0  0  0  0  0  0  0  0  0  0  0  0
   15.5420   -1.8110  -10.7910 C   0  0  0  0  0  0  0  0  0  0  0  0
   14.4370   -2.5740  -10.3990 C   0  0  0  0  0  0  0  0  0  0  0  0
   14.2540   -2.9090   -9.0540 C   0  0  0  0  0  0  0  0  0  0  0  0
   15.1800   -2.5000   -8.0870 C   0  0  0  0  0  0  0  0  0  0  0  0
   14.9690   -2.8660   -6.6990 C   0  0  0  0  0  0  0  0  0  0  0  0
   15.2060   -1.9770   -5.6690 N   0  0  0  0  0  0  0  0  0  0  0  0
   14.9550   -2.6720   -4.5860 C   0  0  0  0  0  0  0  0  0  0  0  0
   15.0880   -2.2670   -3.2140 C   0  0  0  0  0  0  0  0  0  0  0  0
   14.8560   -3.0900   -2.2250 N   0  0  0  0  0  0  0  0  0  0  0  0
   14.4830   -4.3860   -2.5480 C   0  0  0  0  0  0  0  0  0  0  0  0
   14.3250   -4.8340   -3.8050 C   0  0  0  0  0  0  0  0  0  0  0  0
   14.5470   -3.9540   -4.8520 N   0  0  0  0  0  0  0  0  0  0  0  0
   14.4650   -4.0770   -6.2270 C   0  0  0  0  0  0  0  0  0  0  0  0
   14.0370   -5.2310   -6.8380 N   0  0  0  0  0  0  0  0  0  0  0  0
   15.0370   -6.2600   -7.2500 C   0  0  0  0  0  0  0  0  0  0  0  0
   14.7930   -6.5310   -8.7470 C   0  0  0  0  0  0  0  0  0  0  0  0
   16.4840   -5.7840   -7.0770 C   0  0  0  0  0  0  0  0  0  0  0  0
   14.8210   -7.5670   -6.4720 C   0  0  0  0  0  0  0  0  0  0  0  0
   16.2750   -1.7220   -8.4770 C   0  0  0  0  0  0  0  0  0  0  0  0
   16.4590   -1.3840   -9.8230 C   0  0  0  0  0  0  0  0  0  0  0  0
   16.2706    0.9755  -11.0804 H   0  0  0  0  0  0  0  0  0  0  0  0
   17.2674    1.4761  -12.4884 H   0  0  0  0  0  0  0  0  0  0  0  0
   15.4968    1.7788  -12.4884 H   0  0  0  0  0  0  0  0  0  0  0  0
   15.2817   -4.2476  -12.3481 H   0  0  0  0  0  0  0  0  0  0  0  0
   14.4238   -3.9532  -13.8986 H   0  0  0  0  0  0  0  0  0  0  0  0
   16.1876   -4.2937  -13.8986 H   0  0  0  0  0  0  0  0  0  0  0  0
   13.7094   -2.9117  -11.1517 H   0  0  0  0  0  0  0  0  0  0  0  0
   13.3754   -3.4986   -8.7532 H   0  0  0  0  0  0  0  0  0  0  0  0
   15.3939   -1.2346   -2.9891 H   0  0  0  0  0  0  0  0  0  0  0  0
   14.3053   -5.0918   -1.7232 H   0  0  0  0  0  0  0  0  0  0  0  0
   14.0264   -5.8749   -3.9982 H   0  0  0  0  0  0  0  0  0  0  0  0
   13.3430   -5.7250   -6.2750 H   0  0  0  0  0  0  0  0  0  0  0  0
   14.0607   -7.3443   -8.8578 H   0  0  0  0  0  0  0  0  0  0  0  0
   14.4046   -5.6201   -9.2260 H   0  0  0  0  0  0  0  0  0  0  0  0
   15.7395   -6.8220   -9.2260 H   0  0  0  0  0  0  0  0  0  0  0  0
   16.7189   -5.7067   -6.0052 H   0  0  0  0  0  0  0  0  0  0  0  0
   17.1663   -6.5050   -7.5509 H   0  0  0  0  0  0  0  0  0  0  0  0
   16.6050   -4.7987   -7.5509 H   0  0  0  0  0  0  0  0  0  0  0  0
   14.8551   -7.3608   -5.3920 H   0  0  0  0  0  0  0  0  0  0  0  0
   13.8405   -7.9916   -6.7335 H   0  0  0  0  0  0  0  0  0  0  0  0
   15.6128   -8.2845   -6.7335 H   0  0  0  0  0  0  0  0  0  0  0  0
   16.9954   -1.3739   -7.7221 H   0  0  0  0  0  0  0  0  0  0  0  0
   17.3284   -0.7799  -10.1216 H   0  0  0  0  0  0  0  0  0  0  0  0
  1  2  1  0
  2  3  2  0
  3  4  1  0
  4  5  1  0
  5  6  1  0
  5  7  2  0
  7  8  1  0
  8  9  2  0
  9 10  1  0
 10 11  2  0
 11 12  1  0
 12 13  1  0
 13 14  2  0
 14 15  1  0
 15 16  2  0
 16 17  1  0
 17 18  2  0
 18 19  1  0
 19 20  1  0
 20 21  1  0
 21 22  1  0
 22 23  1  0
 22 24  1  0
 22 25  1  0
 11 26  1  0
 26 27  2  0
  7  2  1  0
 27  8  1  0
 20 12  2  0
 19 14  1  0
  1 28  1  0
  1 29  1  0
  1 30  1  0
  6 31  1  0
  6 32  1  0
  6 33  1  0
  9 34  1  0
 10 35  1  0
 15 36  1  0
 17 37  1  0
 18 38  1  0
 21 39  1  0
 23 40  1  0
 23 41  1  0
 23 42  1  0
 24 43  1  0
 24 44  1  0
 24 45  1  0
 25 46  1  0
 25 47  1  0
 25 48  1  0
 26 49  1  0
 27 50  1  0
M  END
>  <meeko>  (9) 
{"is_sidechain": [false], "free_energy": -6.731, "intermolecular_energy": -8.377, "internal_energy": -0.688}

$$$$
