4j3l_ligand
     RDKit          3D

 45 47  0  0  0  0  0  0  0  0999 V2000
    3.8130   -6.3790   -2.1050 C   0  0  0  0  0  0  0  0  0  0  0  0
    3.8130   -7.6890   -2.6610 O   0  0  0  0  0  0  0  0  0  0  0  0
    3.2210   -8.6560   -1.7910 C   0  0  0  0  0  0  0  0  0  0  0  0
    2.0070   -9.3310   -2.4360 C   0  0  0  0  0  0  0  0  0  0  0  0
    2.2030   -9.6300   -3.8430 N   0  0  0  0  0  0  0  0  0  0  0  0
    2.3890  -10.9280   -4.2690 C   0  0  0  0  0  0  0  0  0  0  0  0
    2.3750  -11.8930   -3.5150 O   0  0  0  0  0  0  0  0  0  0  0  0
    2.6580  -11.1190   -5.7210 C   0  0  0  0  0  0  0  0  0  0  0  0
    3.4150  -10.2070   -6.4620 C   0  0  0  0  0  0  0  0  0  0  0  0
    3.6350  -10.4270   -7.8260 C   0  0  0  0  0  0  0  0  0  0  0  0
    3.1000  -11.5530   -8.4770 C   0  0  0  0  0  0  0  0  0  0  0  0
    3.3630  -11.7360   -9.9120 C   0  0  0  0  0  0  0  0  0  0  0  0
    4.6700  -11.9250  -10.3840 C   0  0  0  0  0  0  0  0  0  0  0  0
    4.9260  -12.0900  -11.7510 C   0  0  0  0  0  0  0  0  0  0  0  0
    3.8820  -12.0690  -12.6820 C   0  0  0  0  0  0  0  0  0  0  0  0
    4.0920  -12.2380  -14.1380 C   0  0  0  0  0  0  0  0  0  0  0  0
    5.4770  -12.4490  -14.6770 C   0  0  0  0  0  0  0  0  0  0  0  0
    3.0270  -12.2010  -14.9560 C   0  0  0  0  0  0  0  0  0  0  0  0
    1.6480  -11.9970  -14.4550 C   0  0  0  0  0  0  0  0  0  0  0  0
    0.6970  -11.9660  -15.2270 O   0  0  0  0  0  0  0  0  0  0  0  0
    1.5030  -11.8470  -13.1070 N   0  0  0  0  0  0  0  0  0  0  0  0
    2.5740  -11.8770  -12.2050 C   0  0  0  0  0  0  0  0  0  0  0  0
    2.3140  -11.7120  -10.8410 C   0  0  0  0  0  0  0  0  0  0  0  0
    2.3240  -12.4510   -7.7200 C   0  0  0  0  0  0  0  0  0  0  0  0
    1.6000  -13.8530   -8.4320 Cl  0  0  0  0  0  0  0  0  0  0  0  0
    2.1010  -12.2350   -6.3560 C   0  0  0  0  0  0  0  0  0  0  0  0
    4.8501   -6.0415   -1.9617 H   0  0  0  0  0  0  0  0  0  0  0  0
    3.2945   -5.6906   -2.7885 H   0  0  0  0  0  0  0  0  0  0  0  0
    3.2945   -6.3924   -1.1350 H   0  0  0  0  0  0  0  0  0  0  0  0
    3.9701   -9.4247   -1.5503 H   0  0  0  0  0  0  0  0  0  0  0  0
    2.8820   -8.1372   -0.8822 H   0  0  0  0  0  0  0  0  0  0  0  0
    1.8051  -10.2718   -1.9029 H   0  0  0  0  0  0  0  0  0  0  0  0
    1.1639   -8.6281   -2.3642 H   0  0  0  0  0  0  0  0  0  0  0  0
    2.4340   -8.8610   -4.4560 H   0  0  0  0  0  0  0  0  0  0  0  0
    3.8375   -9.3169   -5.9730 H   0  0  0  0  0  0  0  0  0  0  0  0
    4.2370   -9.7066   -8.3993 H   0  0  0  0  0  0  0  0  0  0  0  0
    5.5065  -11.9439   -9.6699 H   0  0  0  0  0  0  0  0  0  0  0  0
    5.9598  -12.2378  -12.0966 H   0  0  0  0  0  0  0  0  0  0  0  0
    6.1835  -12.5566  -13.8407 H   0  0  0  0  0  0  0  0  0  0  0  0
    5.4960  -13.3604  -15.2926 H   0  0  0  0  0  0  0  0  0  0  0  0
    5.7665  -11.5846  -15.2926 H   0  0  0  0  0  0  0  0  0  0  0  0
    3.1848  -12.3268  -16.0373 H   0  0  0  0  0  0  0  0  0  0  0  0
    0.5570  -11.7160  -12.7780 H   0  0  0  0  0  0  0  0  0  0  0  0
    1.2805  -11.5626  -10.4953 H   0  0  0  0  0  0  0  0  0  0  0  0
    1.4866  -12.9437   -5.7813 H   0  0  0  0  0  0  0  0  0  0  0  0
  1  2  1  0
  2  3  1  0
  3  4  1  0
  4  5  1  0
  5  6  1  0
  6  7  2  0
  6  8  1  0
  8  9  2  0
  9 10  1  0
 10 11  2  0
 11 12  1  0
 12 13  2  0
 13 14  1  0
 14 15  2  0
 15 16  1  0
 16 17  1  0
 16 18  2  0
 18 19  1  0
 19 20  2  0
 19 21  1  0
 21 22  1  0
 22 23  2  0
 11 24  1  0
 24 25  1  0
 24 26  2  0
 26  8  1  0
 23 12  1  0
 22 15  1  0
  1 27  1  0
  1 28  1  0
  1 29  1  0
  3 30  1  0
  3 31  1  0
  4 32  1  0
  4 33  1  0
  5 34  1  0
  9 35  1  0
 10 36  1  0
 13 37  1  0
 14 38  1  0
 17 39  1  0
 17 40  1  0
 17 41  1  0
 18 42  1  0
 21 43  1  0
 23 44  1  0
 26 45  1  0
M  END
>  <meeko>  (1) 
{"is_sidechain": [false], "free_energy": -11.366, "intermolecular_energy": -14.688, "internal_energy": -0.599}

$$$$
4j3l_ligand
     RDKit          3D

 45 47  0  0  0  0  0  0  0  0999 V2000
   -0.1630  -14.7950   -2.3360 C   0  0  0  0  0  0  0  0  0  0  0  0
    1.0200  -14.0390   -2.5740 O   0  0  0  0  0  0  0  0  0  0  0  0
    1.3000  -13.1130   -1.5230 C   0  0  0  0  0  0  0  0  0  0  0  0
    2.2650  -12.0150   -1.9770 C   0  0  0  0  0  0  0  0  0  0  0  0
    2.5650  -12.0710   -3.3960 N   0  0  0  0  0  0  0  0  0  0  0  0
    2.4300  -10.9530   -4.1910 C   0  0  0  0  0  0  0  0  0  0  0  0
    2.0830   -9.8590   -3.7610 O   0  0  0  0  0  0  0  0  0  0  0  0
    2.6870  -11.1350   -5.6450 C   0  0  0  0  0  0  0  0  0  0  0  0
    3.4090  -10.2010   -6.3950 C   0  0  0  0  0  0  0  0  0  0  0  0
    3.6180  -10.4140   -7.7610 C   0  0  0  0  0  0  0  0  0  0  0  0
    3.1080  -11.5540   -8.4080 C   0  0  0  0  0  0  0  0  0  0  0  0
    3.3600  -11.7290   -9.8450 C   0  0  0  0  0  0  0  0  0  0  0  0
    4.6660  -11.8750  -10.3340 C   0  0  0  0  0  0  0  0  0  0  0  0
    4.9110  -12.0310  -11.7030 C   0  0  0  0  0  0  0  0  0  0  0  0
    3.8550  -12.0450  -12.6220 C   0  0  0  0  0  0  0  0  0  0  0  0
    4.0530  -12.2070  -14.0800 C   0  0  0  0  0  0  0  0  0  0  0  0
    5.4370  -12.3720  -14.6370 C   0  0  0  0  0  0  0  0  0  0  0  0
    2.9770  -12.2050  -14.8850 C   0  0  0  0  0  0  0  0  0  0  0  0
    1.5990  -12.0470  -14.3670 C   0  0  0  0  0  0  0  0  0  0  0  0
    0.6380  -12.0480  -15.1270 O   0  0  0  0  0  0  0  0  0  0  0  0
    1.4660  -11.9030  -13.0170 N   0  0  0  0  0  0  0  0  0  0  0  0
    2.5480  -11.8960  -12.1290 C   0  0  0  0  0  0  0  0  0  0  0  0
    2.3000  -11.7400  -10.7610 C   0  0  0  0  0  0  0  0  0  0  0  0
    2.3680  -12.4750   -7.6420 C   0  0  0  0  0  0  0  0  0  0  0  0
    1.6770  -13.8970   -8.3470 Cl  0  0  0  0  0  0  0  0  0  0  0  0
    2.1560  -12.2660   -6.2750 C   0  0  0  0  0  0  0  0  0  0  0  0
   -0.3216  -14.8963   -1.2522 H   0  0  0  0  0  0  0  0  0  0  0  0
   -1.0243  -14.2795   -2.7860 H   0  0  0  0  0  0  0  0  0  0  0  0
   -0.0570  -15.7931   -2.7860 H   0  0  0  0  0  0  0  0  0  0  0  0
    0.3579  -12.6474   -1.1979 H   0  0  0  0  0  0  0  0  0  0  0  0
    1.7729  -13.6648   -0.6972 H   0  0  0  0  0  0  0  0  0  0  0  0
    1.8131  -11.0374   -1.7531 H   0  0  0  0  0  0  0  0  0  0  0  0
    3.2108  -12.1655   -1.4358 H   0  0  0  0  0  0  0  0  0  0  0  0
    2.6410  -12.9840   -3.8220 H   0  0  0  0  0  0  0  0  0  0  0  0
    3.8121   -9.2995   -5.9105 H   0  0  0  0  0  0  0  0  0  0  0  0
    4.1921   -9.6761   -8.3406 H   0  0  0  0  0  0  0  0  0  0  0  0
    5.5115  -11.8668   -9.6304 H   0  0  0  0  0  0  0  0  0  0  0  0
    5.9450  -12.1439  -12.0610 H   0  0  0  0  0  0  0  0  0  0  0  0
    6.1572  -12.4579  -13.8100 H   0  0  0  0  0  0  0  0  0  0  0  0
    5.4777  -13.2814  -15.2546 H   0  0  0  0  0  0  0  0  0  0  0  0
    5.6903  -11.4977  -15.2546 H   0  0  0  0  0  0  0  0  0  0  0  0
    3.1254  -12.3251  -15.9683 H   0  0  0  0  0  0  0  0  0  0  0  0
    0.5190  -11.8030  -12.6770 H   0  0  0  0  0  0  0  0  0  0  0  0
    1.2664  -11.6253  -10.4024 H   0  0  0  0  0  0  0  0  0  0  0  0
    1.5700  -12.9931   -5.6936 H   0  0  0  0  0  0  0  0  0  0  0  0
  1  2  1  0
  2  3  1  0
  3  4  1  0
  4  5  1  0
  5  6  1  0
  6  7  2  0
  6  8  1  0
  8  9  2  0
  9 10  1  0
 10 11  2  0
 11 12  1  0
 12 13  2  0
 13 14  1  0
 14 15  2  0
 15 16  1  0
 16 17  1  0
 16 18  2  0
 18 19  1  0
 19 20  2  0
 19 21  1  0
 21 22  1  0
 22 23  2  0
 11 24  1  0
 24 25  1  0
 24 26  2  0
 26  8  1  0
 23 12  1  0
 22 15  1  0
  1 27  1  0
  1 28  1  0
  1 29  1  0
  3 30  1  0
  3 31  1  0
  4 32  1  0
  4 33  1  0
  5 34  1  0
  9 35  1  0
 10 36  1  0
 13 37  1  0
 14 38  1  0
 17 39  1  0
 17 40  1  0
 17 41  1  0
 18 42  1  0
 21 43  1  0
 23 44  1  0
 26 45  1  0
M  END
>  <meeko>  (2) 
{"is_sidechain": [false], "free_energy": -10.989, "intermolecular_energy": -14.182, "internal_energy": -0.619}

$$$$
4j3l_ligand
     RDKit          3D

 45 47  0  0  0  0  0  0  0  0999 V2000
    3.8340   -6.0260   -2.5810 C   0  0  0  0  0  0  0  0  0  0  0  0
    3.1260   -7.2310   -2.8500 O   0  0  0  0  0  0  0  0  0  0  0  0
    3.2110   -8.1700   -1.7770 C   0  0  0  0  0  0  0  0  0  0  0  0
    2.7030   -9.5540   -2.1920 C   0  0  0  0  0  0  0  0  0  0  0  0
    2.7840   -9.7840   -3.6230 N   0  0  0  0  0  0  0  0  0  0  0  0
    2.4620  -11.0130   -4.1580 C   0  0  0  0  0  0  0  0  0  0  0  0
    2.0710  -11.9590   -3.4860 O   0  0  0  0  0  0  0  0  0  0  0  0
    2.6510  -11.1690   -5.6260 C   0  0  0  0  0  0  0  0  0  0  0  0
    3.2740  -10.1870   -6.4030 C   0  0  0  0  0  0  0  0  0  0  0  0
    3.4230  -10.3760   -7.7810 C   0  0  0  0  0  0  0  0  0  0  0  0
    2.9500  -11.5410   -8.4110 C   0  0  0  0  0  0  0  0  0  0  0  0
    3.1340  -11.6900   -9.8620 C   0  0  0  0  0  0  0  0  0  0  0  0
    2.0390  -11.6320  -10.7350 C   0  0  0  0  0  0  0  0  0  0  0  0
    2.2090  -11.7830  -12.1170 C   0  0  0  0  0  0  0  0  0  0  0  0
    3.4800  -11.9980  -12.6610 C   0  0  0  0  0  0  0  0  0  0  0  0
    3.7210  -12.1640  -14.1130 C   0  0  0  0  0  0  0  0  0  0  0  0
    2.5730  -12.1020  -15.0770 C   0  0  0  0  0  0  0  0  0  0  0  0
    4.9780  -12.3680  -14.5430 C   0  0  0  0  0  0  0  0  0  0  0  0
    6.1330  -12.4320  -13.6180 C   0  0  0  0  0  0  0  0  0  0  0  0
    7.2670  -12.6220  -14.0410 O   0  0  0  0  0  0  0  0  0  0  0  0
    5.8620  -12.2720  -12.2900 N   0  0  0  0  0  0  0  0  0  0  0  0
    4.5750  -12.0570  -11.7830 C   0  0  0  0  0  0  0  0  0  0  0  0
    4.4090  -11.9060  -10.4020 C   0  0  0  0  0  0  0  0  0  0  0  0
    2.3090  -12.5110   -7.6170 C   0  0  0  0  0  0  0  0  0  0  0  0
    1.6700  -13.9680   -8.2990 Cl  0  0  0  0  0  0  0  0  0  0  0  0
    2.1580  -12.3260   -6.2390 C   0  0  0  0  0  0  0  0  0  0  0  0
    3.9171   -5.8846   -1.4933 H   0  0  0  0  0  0  0  0  0  0  0  0
    4.8404   -6.0860   -3.0209 H   0  0  0  0  0  0  0  0  0  0  0  0
    3.2917   -5.1761   -3.0209 H   0  0  0  0  0  0  0  0  0  0  0  0
    4.2612   -8.2560   -1.4612 H   0  0  0  0  0  0  0  0  0  0  0  0
    2.5794   -7.8064   -0.9531 H   0  0  0  0  0  0  0  0  0  0  0  0
    3.3076  -10.3170   -1.6799 H   0  0  0  0  0  0  0  0  0  0  0  0
    1.6415   -9.6124   -1.9096 H   0  0  0  0  0  0  0  0  0  0  0  0
    3.2980   -9.1130   -4.1760 H   0  0  0  0  0  0  0  0  0  0  0  0
    3.6468   -9.2662   -5.9306 H   0  0  0  0  0  0  0  0  0  0  0  0
    3.9188   -9.5998   -8.3824 H   0  0  0  0  0  0  0  0  0  0  0  0
    1.0306  -11.4653  -10.3285 H   0  0  0  0  0  0  0  0  0  0  0  0
    1.3340  -11.7320  -12.7817 H   0  0  0  0  0  0  0  0  0  0  0  0
    1.6271  -12.0509  -14.5179 H   0  0  0  0  0  0  0  0  0  0  0  0
    2.6736  -11.2080  -15.7099 H   0  0  0  0  0  0  0  0  0  0  0  0
    2.5767  -13.0017  -15.7099 H   0  0  0  0  0  0  0  0  0  0  0  0
    5.1555  -12.4920  -15.6215 H   0  0  0  0  0  0  0  0  0  0  0  0
    6.6600  -12.3110  -11.6710 H   0  0  0  0  0  0  0  0  0  0  0  0
    5.2836  -11.9571   -9.7368 H   0  0  0  0  0  0  0  0  0  0  0  0
    1.6501  -13.0925   -5.6353 H   0  0  0  0  0  0  0  0  0  0  0  0
  1  2  1  0
  2  3  1  0
  3  4  1  0
  4  5  1  0
  5  6  1  0
  6  7  2  0
  6  8  1  0
  8  9  2  0
  9 10  1  0
 10 11  2  0
 11 12  1  0
 12 13  2  0
 13 14  1  0
 14 15  2  0
 15 16  1  0
 16 17  1  0
 16 18  2  0
 18 19  1  0
 19 20  2  0
 19 21  1  0
 21 22  1  0
 22 23  2  0
 11 24  1  0
 24 25  1  0
 24 26  2  0
 26  8  1  0
 23 12  1  0
 22 15  1  0
  1 27  1  0
  1 28  1  0
  1 29  1  0
  3 30  1  0
  3 31  1  0
  4 32  1  0
  4 33  1  0
  5 34  1  0
  9 35  1  0
 10 36  1  0
 13 37  1  0
 14 38  1  0
 17 39  1  0
 17 40  1  0
 17 41  1  0
 18 42  1  0
 21 43  1  0
 23 44  1  0
 26 45  1  0
M  END
>  <meeko>  (3) 
{"is_sidechain": [false], "free_energy": -10.127, "intermolecular_energy": -13.048, "internal_energy": -0.639}

$$$$
4j3l_ligand
     RDKit          3D

 45 47  0  0  0  0  0  0  0  0999 V2000
    0.2710  -13.5290   -0.8180 C   0  0  0  0  0  0  0  0  0  0  0  0
    1.4630  -14.2580   -1.0890 O   0  0  0  0  0  0  0  0  0  0  0  0
    2.5880  -13.4070   -1.3190 C   0  0  0  0  0  0  0  0  0  0  0  0
    2.1850  -12.1160   -2.0370 C   0  0  0  0  0  0  0  0  0  0  0  0
    2.4260  -12.1620   -3.4680 N   0  0  0  0  0  0  0  0  0  0  0  0
    2.4650  -11.0030   -4.2140 C   0  0  0  0  0  0  0  0  0  0  0  0
    2.3280   -9.8860   -3.7310 O   0  0  0  0  0  0  0  0  0  0  0  0
    2.6410  -11.1640   -5.6830 C   0  0  0  0  0  0  0  0  0  0  0  0
    3.2960  -10.2050   -6.4620 C   0  0  0  0  0  0  0  0  0  0  0  0
    3.4310  -10.3980   -7.8410 C   0  0  0  0  0  0  0  0  0  0  0  0
    2.9120  -11.5440   -8.4700 C   0  0  0  0  0  0  0  0  0  0  0  0
    3.0840  -11.6970   -9.9220 C   0  0  0  0  0  0  0  0  0  0  0  0
    1.9760  -11.6820  -10.7820 C   0  0  0  0  0  0  0  0  0  0  0  0
    2.1340  -11.8380  -12.1640 C   0  0  0  0  0  0  0  0  0  0  0  0
    3.4050  -12.0150  -12.7230 C   0  0  0  0  0  0  0  0  0  0  0  0
    3.6340  -12.1830  -14.1770 C   0  0  0  0  0  0  0  0  0  0  0  0
    2.4720  -12.1660  -15.1260 C   0  0  0  0  0  0  0  0  0  0  0  0
    4.8910  -12.3490  -14.6200 C   0  0  0  0  0  0  0  0  0  0  0  0
    6.0590  -12.3680  -13.7090 C   0  0  0  0  0  0  0  0  0  0  0  0
    7.1940  -12.5230  -14.1450 O   0  0  0  0  0  0  0  0  0  0  0  0
    5.7990  -12.2070  -12.3800 N   0  0  0  0  0  0  0  0  0  0  0  0
    4.5120  -12.0310  -11.8580 C   0  0  0  0  0  0  0  0  0  0  0  0
    4.3580  -11.8750  -10.4760 C   0  0  0  0  0  0  0  0  0  0  0  0
    2.2390  -12.4900   -7.6740 C   0  0  0  0  0  0  0  0  0  0  0  0
    1.5430  -13.9210   -8.3550 Cl  0  0  0  0  0  0  0  0  0  0  0  0
    2.1020  -12.3010   -6.2950 C   0  0  0  0  0  0  0  0  0  0  0  0
    0.1324  -13.4442    0.2699 H   0  0  0  0  0  0  0  0  0  0  0  0
    0.3483  -12.5235   -1.2572 H   0  0  0  0  0  0  0  0  0  0  0  0
   -0.5889  -14.0559   -1.2572 H   0  0  0  0  0  0  0  0  0  0  0  0
    3.0436  -13.1494   -0.3515 H   0  0  0  0  0  0  0  0  0  0  0  0
    3.3008  -13.9470   -1.9595 H   0  0  0  0  0  0  0  0  0  0  0  0
    1.1122  -11.9415   -1.8679 H   0  0  0  0  0  0  0  0  0  0  0  0
    2.8037  -11.3047   -1.6258 H   0  0  0  0  0  0  0  0  0  0  0  0
    2.3290  -13.0550   -3.9300 H   0  0  0  0  0  0  0  0  0  0  0  0
    3.7050   -9.2992   -5.9906 H   0  0  0  0  0  0  0  0  0  0  0  0
    3.9523   -9.6400   -8.4441 H   0  0  0  0  0  0  0  0  0  0  0  0
    0.9677  -11.5456  -10.3640 H   0  0  0  0  0  0  0  0  0  0  0  0
    1.2496  -11.8213  -12.8179 H   0  0  0  0  0  0  0  0  0  0  0  0
    1.5321  -12.1523  -14.5546 H   0  0  0  0  0  0  0  0  0  0  0  0
    2.5291  -11.2686  -15.7596 H   0  0  0  0  0  0  0  0  0  0  0  0
    2.5028  -13.0647  -15.7596 H   0  0  0  0  0  0  0  0  0  0  0  0
    5.0595  -12.4756  -15.6996 H   0  0  0  0  0  0  0  0  0  0  0  0
    6.6060  -12.2150  -11.7700 H   0  0  0  0  0  0  0  0  0  0  0  0
    5.2419  -11.8922   -9.8214 H   0  0  0  0  0  0  0  0  0  0  0  0
    1.5687  -13.0487   -5.6895 H   0  0  0  0  0  0  0  0  0  0  0  0
  1  2  1  0
  2  3  1  0
  3  4  1  0
  4  5  1  0
  5  6  1  0
  6  7  2  0
  6  8  1  0
  8  9  2  0
  9 10  1  0
 10 11  2  0
 11 12  1  0
 12 13  2  0
 13 14  1  0
 14 15  2  0
 15 16  1  0
 16 17  1  0
 16 18  2  0
 18 19  1  0
 19 20  2  0
 19 21  1  0
 21 22  1  0
 22 23  2  0
 11 24  1  0
 24 25  1  0
 24 26  2  0
 26  8  1  0
 23 12  1  0
 22 15  1  0
  1 27  1  0
  1 28  1  0
  1 29  1  0
  3 30  1  0
  3 31  1  0
  4 32  1  0
  4 33  1  0
  5 34  1  0
  9 35  1  0
 10 36  1  0
 13 37  1  0
 14 38  1  0
 17 39  1  0
 17 40  1  0
 17 41  1  0
 18 42  1  0
 21 43  1  0
 23 44  1  0
 26 45  1  0
M  END
>  <meeko>  (4) 
{"is_sidechain": [false], "free_energy": -9.873, "intermolecular_energy": -12.753, "internal_energy": -0.605}

$$$$
4j3l_ligand
     RDKit          3D

 45 47  0  0  0  0  0  0  0  0999 V2000
    3.7790  -12.4160  -15.9150 C   0  0  0  0  0  0  0  0  0  0  0  0
    2.8280  -13.4680  -15.7970 O   0  0  0  0  0  0  0  0  0  0  0  0
    2.0260  -13.3550  -14.6210 C   0  0  0  0  0  0  0  0  0  0  0  0
    1.8110  -11.8930  -14.2190 C   0  0  0  0  0  0  0  0  0  0  0  0
    1.8480  -11.6870  -12.7820 N   0  0  0  0  0  0  0  0  0  0  0  0
    3.0260  -11.8280  -12.0800 C   0  0  0  0  0  0  0  0  0  0  0  0
    4.0960  -12.1040  -12.6080 O   0  0  0  0  0  0  0  0  0  0  0  0
    2.9420  -11.6710  -10.6020 C   0  0  0  0  0  0  0  0  0  0  0  0
    3.8760  -10.9220   -9.8810 C   0  0  0  0  0  0  0  0  0  0  0  0
    3.7590  -10.8100   -8.4910 C   0  0  0  0  0  0  0  0  0  0  0  0
    2.7150  -11.4460   -7.7950 C   0  0  0  0  0  0  0  0  0  0  0  0
    2.6380  -11.2930   -6.3350 C   0  0  0  0  0  0  0  0  0  0  0  0
    2.4550  -12.4080   -5.5050 C   0  0  0  0  0  0  0  0  0  0  0  0
    2.3710  -12.2660   -4.1140 C   0  0  0  0  0  0  0  0  0  0  0  0
    2.4660  -11.0030   -3.5170 C   0  0  0  0  0  0  0  0  0  0  0  0
    2.3850  -10.7920   -2.0540 C   0  0  0  0  0  0  0  0  0  0  0  0
    2.1950  -11.9630   -1.1350 C   0  0  0  0  0  0  0  0  0  0  0  0
    2.4850   -9.5410   -1.5730 C   0  0  0  0  0  0  0  0  0  0  0  0
    2.6750   -8.3650   -2.4530 C   0  0  0  0  0  0  0  0  0  0  0  0
    2.7600   -7.2360   -1.9830 O   0  0  0  0  0  0  0  0  0  0  0  0
    2.7450   -8.6090   -3.7930 N   0  0  0  0  0  0  0  0  0  0  0  0
    2.6470   -9.8880   -4.3530 C   0  0  0  0  0  0  0  0  0  0  0  0
    2.7320  -10.0270   -5.7420 C   0  0  0  0  0  0  0  0  0  0  0  0
    1.7940  -12.2110   -8.5350 C   0  0  0  0  0  0  0  0  0  0  0  0
    0.4890  -13.0540   -7.7700 Cl  0  0  0  0  0  0  0  0  0  0  0  0
    1.9090  -12.3270   -9.9240 C   0  0  0  0  0  0  0  0  0  0  0  0
    4.0817  -12.0811  -14.9119 H   0  0  0  0  0  0  0  0  0  0  0  0
    4.6615  -12.7791  -16.4622 H   0  0  0  0  0  0  0  0  0  0  0  0
    3.3289  -11.5745  -16.4622 H   0  0  0  0  0  0  0  0  0  0  0  0
    1.0473  -13.8198  -14.8112 H   0  0  0  0  0  0  0  0  0  0  0  0
    2.5510  -13.8627  -13.7984 H   0  0  0  0  0  0  0  0  0  0  0  0
    2.6013  -11.2829  -14.6808 H   0  0  0  0  0  0  0  0  0  0  0  0
    0.8093  -11.6006  -14.5670 H   0  0  0  0  0  0  0  0  0  0  0  0
    0.9670  -11.6740  -12.2890 H   0  0  0  0  0  0  0  0  0  0  0  0
    4.7026  -10.4208  -10.4058 H   0  0  0  0  0  0  0  0  0  0  0  0
    4.4963  -10.2142   -7.9329 H   0  0  0  0  0  0  0  0  0  0  0  0
    2.3762  -13.4096   -5.9529 H   0  0  0  0  0  0  0  0  0  0  0  0
    2.2289  -13.1563   -3.4838 H   0  0  0  0  0  0  0  0  0  0  0  0
    2.2503  -11.6222   -0.0906 H   0  0  0  0  0  0  0  0  0  0  0  0
    1.2112  -12.4187   -1.3204 H   0  0  0  0  0  0  0  0  0  0  0  0
    2.9843  -12.7064   -1.3204 H   0  0  0  0  0  0  0  0  0  0  0  0
    2.4235   -9.3848   -0.4859 H   0  0  0  0  0  0  0  0  0  0  0  0
    2.8820   -7.7980   -4.3810 H   0  0  0  0  0  0  0  0  0  0  0  0
    2.8735   -9.1370   -6.3728 H   0  0  0  0  0  0  0  0  0  0  0  0
    1.1849  -12.9360  -10.4851 H   0  0  0  0  0  0  0  0  0  0  0  0
  1  2  1  0
  2  3  1  0
  3  4  1  0
  4  5  1  0
  5  6  1  0
  6  7  2  0
  6  8  1  0
  8  9  2  0
  9 10  1  0
 10 11  2  0
 11 12  1  0
 12 13  2  0
 13 14  1  0
 14 15  2  0
 15 16  1  0
 16 17  1  0
 16 18  2  0
 18 19  1  0
 19 20  2  0
 19 21  1  0
 21 22  1  0
 22 23  2  0
 11 24  1  0
 24 25  1  0
 24 26  2  0
 26  8  1  0
 23 12  1  0
 22 15  1  0
  1 27  1  0
  1 28  1  0
  1 29  1  0
  3 30  1  0
  3 31  1  0
  4 32  1  0
  4 33  1  0
  5 34  1  0
  9 35  1  0
 10 36  1  0
 13 37  1  0
 14 38  1  0
 17 39  1  0
 17 40  1  0
 17 41  1  0
 18 42  1  0
 21 43  1  0
 23 44  1  0
 26 45  1  0
M  END
>  <meeko>  (5) 
{"is_sidechain": [false], "free_energy": -9.367, "intermolecular_energy": -12.458, "internal_energy": -0.247}

$$$$
4j3l_ligand
     RDKit          3D

 45 47  0  0  0  0  0  0  0  0999 V2000
    3.7980  -11.9360  -15.9330 C   0  0  0  0  0  0  0  0  0  0  0  0
    2.4040  -11.9980  -16.2100 O   0  0  0  0  0  0  0  0  0  0  0  0
    1.6020  -11.6620  -15.0760 C   0  0  0  0  0  0  0  0  0  0  0  0
    1.5970  -12.7830  -14.0330 C   0  0  0  0  0  0  0  0  0  0  0  0
    1.7540  -12.2970  -12.6740 N   0  0  0  0  0  0  0  0  0  0  0  0
    3.0080  -12.0750  -12.1460 C   0  0  0  0  0  0  0  0  0  0  0  0
    4.0450  -12.2430  -12.7770 O   0  0  0  0  0  0  0  0  0  0  0  0
    3.0640  -11.6500  -10.7200 C   0  0  0  0  0  0  0  0  0  0  0  0
    3.7230  -10.4850  -10.3180 C   0  0  0  0  0  0  0  0  0  0  0  0
    3.7530  -10.1310   -8.9650 C   0  0  0  0  0  0  0  0  0  0  0  0
    3.1350  -10.9330   -7.9880 C   0  0  0  0  0  0  0  0  0  0  0  0
    3.1960  -10.5140   -6.5810 C   0  0  0  0  0  0  0  0  0  0  0  0
    2.1050   -9.8760   -5.9740 C   0  0  0  0  0  0  0  0  0  0  0  0
    2.1620   -9.4650   -4.6360 C   0  0  0  0  0  0  0  0  0  0  0  0
    3.3140   -9.6810   -3.8710 C   0  0  0  0  0  0  0  0  0  0  0  0
    3.4320   -9.2700   -2.4530 C   0  0  0  0  0  0  0  0  0  0  0  0
    2.2810   -8.5900   -1.7700 C   0  0  0  0  0  0  0  0  0  0  0  0
    4.5800   -9.5170   -1.7990 C   0  0  0  0  0  0  0  0  0  0  0  0
    5.7320  -10.1880   -2.4440 C   0  0  0  0  0  0  0  0  0  0  0  0
    6.7660  -10.3980   -1.8210 O   0  0  0  0  0  0  0  0  0  0  0  0
    5.5760  -10.5500   -3.7500 N   0  0  0  0  0  0  0  0  0  0  0  0
    4.4060  -10.3180   -4.4830 C   0  0  0  0  0  0  0  0  0  0  0  0
    4.3520  -10.7300   -5.8190 C   0  0  0  0  0  0  0  0  0  0  0  0
    2.4920  -12.1120   -8.4090 C   0  0  0  0  0  0  0  0  0  0  0  0
    1.7230  -13.1810   -7.2840 Cl  0  0  0  0  0  0  0  0  0  0  0  0
    2.4600  -12.4700   -9.7610 C   0  0  0  0  0  0  0  0  0  0  0  0
    3.9556  -11.9290  -14.8444 H   0  0  0  0  0  0  0  0  0  0  0  0
    4.2981  -12.8128  -16.3702 H   0  0  0  0  0  0  0  0  0  0  0  0
    4.2183  -11.0183  -16.3702 H   0  0  0  0  0  0  0  0  0  0  0  0
    2.0028  -10.7475  -14.6144 H   0  0  0  0  0  0  0  0  0  0  0  0
    0.5684  -11.5097  -15.4203 H   0  0  0  0  0  0  0  0  0  0  0  0
    0.6411  -13.3226  -14.1036 H   0  0  0  0  0  0  0  0  0  0  0  0
    2.4554  -13.4360  -14.2491 H   0  0  0  0  0  0  0  0  0  0  0  0
    0.9530  -12.3520  -12.0620 H   0  0  0  0  0  0  0  0  0  0  0  0
    4.2178   -9.8469  -11.0650 H   0  0  0  0  0  0  0  0  0  0  0  0
    4.2691   -9.2089   -8.6594 H   0  0  0  0  0  0  0  0  0  0  0  0
    1.1901   -9.6954   -6.5574 H   0  0  0  0  0  0  0  0  0  0  0  0
    1.2924   -8.9674   -4.1819 H   0  0  0  0  0  0  0  0  0  0  0  0
    2.4061   -8.6639   -0.6796 H   0  0  0  0  0  0  0  0  0  0  0  0
    2.2536   -7.5306   -2.0650 H   0  0  0  0  0  0  0  0  0  0  0  0
    1.3399   -9.0772   -2.0650 H   0  0  0  0  0  0  0  0  0  0  0  0
    4.6670   -9.2096   -0.7464 H   0  0  0  0  0  0  0  0  0  0  0  0
    6.3670  -11.0130   -4.1760 H   0  0  0  0  0  0  0  0  0  0  0  0
    5.2220  -11.2263   -6.2738 H   0  0  0  0  0  0  0  0  0  0  0  0
    1.9586  -13.3988  -10.0708 H   0  0  0  0  0  0  0  0  0  0  0  0
  1  2  1  0
  2  3  1  0
  3  4  1  0
  4  5  1  0
  5  6  1  0
  6  7  2  0
  6  8  1  0
  8  9  2  0
  9 10  1  0
 10 11  2  0
 11 12  1  0
 12 13  2  0
 13 14  1  0
 14 15  2  0
 15 16  1  0
 16 17  1  0
 16 18  2  0
 18 19  1  0
 19 20  2  0
 19 21  1  0
 21 22  1  0
 22 23  2  0
 11 24  1  0
 24 25  1  0
 24 26  2  0
 26  8  1  0
 23 12  1  0
 22 15  1  0
  1 27  1  0
  1 28  1  0
  1 29  1  0
  3 30  1  0
  3 31  1  0
  4 32  1  0
  4 33  1  0
  5 34  1  0
  9 35  1  0
 10 36  1  0
 13 37  1  0
 14 38  1  0
 17 39  1  0
 17 40  1  0
 17 41  1  0
 18 42  1  0
 21 43  1  0
 23 44  1  0
 26 45  1  0
M  END
>  <meeko>  (6) 
{"is_sidechain": [false], "free_energy": -9.347, "intermolecular_energy": -12.056, "internal_energy": -0.623}

$$$$
4j3l_ligand
     RDKit          3D

 45 47  0  0  0  0  0  0  0  0999 V2000
    4.6860  -14.6350   -2.1540 C   0  0  0  0  0  0  0  0  0  0  0  0
    4.5290  -13.3000   -2.6220 O   0  0  0  0  0  0  0  0  0  0  0  0
    3.6430  -12.5320   -1.8060 C   0  0  0  0  0  0  0  0  0  0  0  0
    2.8930  -11.4750   -2.6220 C   0  0  0  0  0  0  0  0  0  0  0  0
    3.0990  -11.6090   -4.0520 N   0  0  0  0  0  0  0  0  0  0  0  0
    2.6150  -10.6590   -4.9260 C   0  0  0  0  0  0  0  0  0  0  0  0
    2.0190   -9.6520   -4.5640 O   0  0  0  0  0  0  0  0  0  0  0  0
    2.8110  -10.9280   -6.3770 C   0  0  0  0  0  0  0  0  0  0  0  0
    2.7750  -12.2230   -6.9030 C   0  0  0  0  0  0  0  0  0  0  0  0
    2.9720  -12.4260   -8.2730 C   0  0  0  0  0  0  0  0  0  0  0  0
    3.2150  -11.3470   -9.1420 C   0  0  0  0  0  0  0  0  0  0  0  0
    3.4130  -11.6160  -10.5730 C   0  0  0  0  0  0  0  0  0  0  0  0
    4.6760  -11.9660  -11.0700 C   0  0  0  0  0  0  0  0  0  0  0  0
    4.8720  -12.2140  -12.4350 C   0  0  0  0  0  0  0  0  0  0  0  0
    3.8080  -12.1170  -13.3380 C   0  0  0  0  0  0  0  0  0  0  0  0
    3.9540  -12.3690  -14.7900 C   0  0  0  0  0  0  0  0  0  0  0  0
    5.2900  -12.7510  -15.3560 C   0  0  0  0  0  0  0  0  0  0  0  0
    2.8740  -12.2500  -15.5810 C   0  0  0  0  0  0  0  0  0  0  0  0
    1.5410  -11.8770  -15.0540 C   0  0  0  0  0  0  0  0  0  0  0  0
    0.5760  -11.7750  -15.8020 O   0  0  0  0  0  0  0  0  0  0  0  0
    1.4550  -11.6570  -13.7100 N   0  0  0  0  0  0  0  0  0  0  0  0
    2.5430  -11.7650  -12.8360 C   0  0  0  0  0  0  0  0  0  0  0  0
    2.3450  -11.5170  -11.4740 C   0  0  0  0  0  0  0  0  0  0  0  0
    3.2660  -10.0520   -8.5920 C   0  0  0  0  0  0  0  0  0  0  0  0
    3.5840   -8.6590   -9.5710 Cl  0  0  0  0  0  0  0  0  0  0  0  0
    3.0710   -9.8440   -7.2230 C   0  0  0  0  0  0  0  0  0  0  0  0
    4.6866  -14.6402   -1.0540 H   0  0  0  0  0  0  0  0  0  0  0  0
    3.8544  -15.2531   -2.5232 H   0  0  0  0  0  0  0  0  0  0  0  0
    5.6384  -15.0433   -2.5232 H   0  0  0  0  0  0  0  0  0  0  0  0
    2.9110  -13.2083   -1.3405 H   0  0  0  0  0  0  0  0  0  0  0  0
    4.2425  -12.0139   -1.0430 H   0  0  0  0  0  0  0  0  0  0  0  0
    1.8172  -11.5694   -2.4128 H   0  0  0  0  0  0  0  0  0  0  0  0
    3.2853  -10.4913   -2.3246 H   0  0  0  0  0  0  0  0  0  0  0  0
    3.3870  -12.5120   -4.4010 H   0  0  0  0  0  0  0  0  0  0  0  0
    2.5919  -13.0815   -6.2401 H   0  0  0  0  0  0  0  0  0  0  0  0
    2.9362  -13.4481   -8.6781 H   0  0  0  0  0  0  0  0  0  0  0  0
    5.5267  -12.0473  -10.3774 H   0  0  0  0  0  0  0  0  0  0  0  0
    5.8728  -12.4878  -12.8003 H   0  0  0  0  0  0  0  0  0  0  0  0
    5.9926  -12.9519  -14.5338 H   0  0  0  0  0  0  0  0  0  0  0  0
    5.1815  -13.6541  -15.9746 H   0  0  0  0  0  0  0  0  0  0  0  0
    5.6753  -11.9270  -15.9746 H   0  0  0  0  0  0  0  0  0  0  0  0
    2.9841  -12.4365  -16.6595 H   0  0  0  0  0  0  0  0  0  0  0  0
    0.5380  -11.4100  -13.3630 H   0  0  0  0  0  0  0  0  0  0  0  0
    1.3446  -11.2426  -11.1080 H   0  0  0  0  0  0  0  0  0  0  0  0
    3.1221   -8.8257   -6.8101 H   0  0  0  0  0  0  0  0  0  0  0  0
  1  2  1  0
  2  3  1  0
  3  4  1  0
  4  5  1  0
  5  6  1  0
  6  7  2  0
  6  8  1  0
  8  9  2  0
  9 10  1  0
 10 11  2  0
 11 12  1  0
 12 13  2  0
 13 14  1  0
 14 15  2  0
 15 16  1  0
 16 17  1  0
 16 18  2  0
 18 19  1  0
 19 20  2  0
 19 21  1  0
 21 22  1  0
 22 23  2  0
 11 24  1  0
 24 25  1  0
 24 26  2  0
 26  8  1  0
 23 12  1  0
 22 15  1  0
  1 27  1  0
  1 28  1  0
  1 29  1  0
  3 30  1  0
  3 31  1  0
  4 32  1  0
  4 33  1  0
  5 34  1  0
  9 35  1  0
 10 36  1  0
 13 37  1  0
 14 38  1  0
 17 39  1  0
 17 40  1  0
 17 41  1  0
 18 42  1  0
 21 43  1  0
 23 44  1  0
 26 45  1  0
M  END
>  <meeko>  (7) 
{"is_sidechain": [false], "free_energy": -8.878, "intermolecular_energy": -11.332, "internal_energy": -0.74}

$$$$
4j3l_ligand
     RDKit          3D

 45 47  0  0  0  0  0  0  0  0999 V2000
    3.5800  -12.0860  -15.5180 C   0  0  0  0  0  0  0  0  0  0  0  0
    2.3860  -12.8600  -15.4850 O   0  0  0  0  0  0  0  0  0  0  0  0
    1.7500  -12.8360  -14.2060 C   0  0  0  0  0  0  0  0  0  0  0  0
    2.3410  -11.7540  -13.2980 C   0  0  0  0  0  0  0  0  0  0  0  0
    2.1670  -12.0390  -11.8860 N   0  0  0  0  0  0  0  0  0  0  0  0
    2.5520  -11.1240  -10.9290 C   0  0  0  0  0  0  0  0  0  0  0  0
    3.0280  -10.0280  -11.1990 O   0  0  0  0  0  0  0  0  0  0  0  0
    2.4020  -11.5440   -9.5090 C   0  0  0  0  0  0  0  0  0  0  0  0
    1.4230  -12.4560   -9.1030 C   0  0  0  0  0  0  0  0  0  0  0  0
    1.3180  -12.8140   -7.7550 C   0  0  0  0  0  0  0  0  0  0  0  0
    2.1780  -12.2670   -6.7870 C   0  0  0  0  0  0  0  0  0  0  0  0
    2.0250  -12.6800   -5.3850 C   0  0  0  0  0  0  0  0  0  0  0  0
    2.5170  -11.8810   -4.3420 C   0  0  0  0  0  0  0  0  0  0  0  0
    2.3820  -12.2760   -3.0060 C   0  0  0  0  0  0  0  0  0  0  0  0
    1.7520  -13.4810   -2.6760 C   0  0  0  0  0  0  0  0  0  0  0  0
    1.5800  -13.9490   -1.2820 C   0  0  0  0  0  0  0  0  0  0  0  0
    2.0890  -13.1170   -0.1420 C   0  0  0  0  0  0  0  0  0  0  0  0
    0.9630  -15.1230   -1.0630 C   0  0  0  0  0  0  0  0  0  0  0  0
    0.4480  -15.9660   -2.1660 C   0  0  0  0  0  0  0  0  0  0  0  0
   -0.1090  -17.0330   -1.9340 O   0  0  0  0  0  0  0  0  0  0  0  0
    0.6280  -15.4930   -3.4330 N   0  0  0  0  0  0  0  0  0  0  0  0
    1.2620  -14.2800   -3.7230 C   0  0  0  0  0  0  0  0  0  0  0  0
    1.3950  -13.8880   -5.0590 C   0  0  0  0  0  0  0  0  0  0  0  0
    3.1460  -11.3360   -7.2100 C   0  0  0  0  0  0  0  0  0  0  0  0
    4.2370  -10.5860   -6.0940 Cl  0  0  0  0  0  0  0  0  0  0  0  0
    3.2550  -10.9740   -8.5570 C   0  0  0  0  0  0  0  0  0  0  0  0
    3.9078  -11.8735  -14.4897 H   0  0  0  0  0  0  0  0  0  0  0  0
    4.3661  -12.6468  -16.0449 H   0  0  0  0  0  0  0  0  0  0  0  0
    3.3890  -11.1395  -16.0449 H   0  0  0  0  0  0  0  0  0  0  0  0
    0.6772  -12.6371  -14.3454 H   0  0  0  0  0  0  0  0  0  0  0  0
    1.9116  -13.8120  -13.7251 H   0  0  0  0  0  0  0  0  0  0  0  0
    3.4175  -11.6700  -13.5082 H   0  0  0  0  0  0  0  0  0  0  0  0
    1.8055  -10.8173  -13.5122 H   0  0  0  0  0  0  0  0  0  0  0  0
    1.9850  -12.9970  -11.6210 H   0  0  0  0  0  0  0  0  0  0  0  0
    0.7358  -12.8917   -9.8433 H   0  0  0  0  0  0  0  0  0  0  0  0
    0.5483  -13.5369   -7.4467 H   0  0  0  0  0  0  0  0  0  0  0  0
    3.0164  -10.9297   -4.5778 H   0  0  0  0  0  0  0  0  0  0  0  0
    2.7758  -11.6316   -2.2062 H   0  0  0  0  0  0  0  0  0  0  0  0
    1.8022  -13.5859    0.8108 H   0  0  0  0  0  0  0  0  0  0  0  0
    3.1852  -13.0463   -0.2005 H   0  0  0  0  0  0  0  0  0  0  0  0
    1.6529  -12.1088   -0.2005 H   0  0  0  0  0  0  0  0  0  0  0  0
    0.8361  -15.4700   -0.0269 H   0  0  0  0  0  0  0  0  0  0  0  0
    0.2650  -16.0760   -4.1750 H   0  0  0  0  0  0  0  0  0  0  0  0
    1.0023  -14.5326   -5.8591 H   0  0  0  0  0  0  0  0  0  0  0  0
    4.0127  -10.2399   -8.8685 H   0  0  0  0  0  0  0  0  0  0  0  0
  1  2  1  0
  2  3  1  0
  3  4  1  0
  4  5  1  0
  5  6  1  0
  6  7  2  0
  6  8  1  0
  8  9  2  0
  9 10  1  0
 10 11  2  0
 11 12  1  0
 12 13  2  0
 13 14  1  0
 14 15  2  0
 15 16  1  0
 16 17  1  0
 16 18  2  0
 18 19  1  0
 19 20  2  0
 19 21  1  0
 21 22  1  0
 22 23  2  0
 11 24  1  0
 24 25  1  0
 24 26  2  0
 26  8  1  0
 23 12  1  0
 22 15  1  0
  1 27  1  0
  1 28  1  0
  1 29  1  0
  3 30  1  0
  3 31  1  0
  4 32  1  0
  4 33  1  0
  5 34  1  0
  9 35  1  0
 10 36  1  0
 13 37  1  0
 14 38  1  0
 17 39  1  0
 17 40  1  0
 17 41  1  0
 18 42  1  0
 21 43  1  0
 23 44  1  0
 26 45  1  0
M  END
>  <meeko>  (8) 
{"is_sidechain": [false], "free_energy": -8.573, "intermolecular_energy": -11.703, "internal_energy": 0.025}

$$$$
