2al5_ligand
     RDKit          3D

 23 23  0  0  0  0  0  0  0  0999 V2000
    7.8320   77.9030   29.0420 N   0  0  0  0  0  0  0  0  0  0  0  0
    6.6760   78.3850   28.1830 C   0  0  1  0  0  0  0  0  0  0  0  0
    5.5830   77.3210   28.0260 C   0  0  0  0  0  0  0  0  0  0  0  0
    5.3540   76.8290   26.6550 N   0  0  0  0  0  0  0  0  0  0  0  0
    4.9980   77.7370   25.6690 C   0  0  0  0  0  0  0  0  0  0  0  0
    4.8000   77.3570   24.4070 C   0  0  0  0  0  0  0  0  0  0  0  0
    4.4600   78.2210   23.4330 F   0  0  0  0  0  0  0  0  0  0  0  0
    4.9650   75.9390   24.0350 C   0  0  0  0  0  0  0  0  0  0  0  0
    4.8100   75.5230   22.8930 O   0  0  0  0  0  0  0  0  0  0  0  0
    5.3120   75.1070   25.0700 N   0  0  0  0  0  0  0  0  0  0  0  0
    5.4710   75.4740   26.3780 C   0  0  0  0  0  0  0  0  0  0  0  0
    5.6670   74.6370   27.2620 O   0  0  0  0  0  0  0  0  0  0  0  0
    6.0520   79.6550   28.8040 C   0  0  0  0  0  0  0  0  0  0  0  0
    6.2970   80.6590   28.0600 O   0  0  0  0  0  0  0  0  0  0  0  0
    5.4460   79.5270   29.8900 O   0  0  0  0  0  0  0  0  0  0  0  0
    7.4410   76.9970   29.4020 H   0  0  0  0  0  0  0  0  0  0  0  0
    8.0080   78.4820   29.8620 H   0  0  0  0  0  0  0  0  0  0  0  0
    8.6910   77.6800   28.5160 H   0  0  0  0  0  0  0  0  0  0  0  0
    7.0857   78.6033   27.1858 H   0  0  0  0  0  0  0  0  0  0  0  0
    5.8595   76.4593   28.6513 H   0  0  0  0  0  0  0  0  0  0  0  0
    4.6453   77.8116   28.3262 H   0  0  0  0  0  0  0  0  0  0  0  0
    4.8760   78.7973   25.9352 H   0  0  0  0  0  0  0  0  0  0  0  0
    5.3910   74.1280   24.8430 H   0  0  0  0  0  0  0  0  0  0  0  0
  1  2  1  0
  2  3  1  0
  3  4  1  0
  4  5  1  0
  5  6  2  0
  6  7  1  0
  6  8  1  0
  8  9  2  0
  8 10  1  0
 10 11  1  0
 11 12  2  0
  2 13  1  0
 13 14  2  0
 13 15  1  0
 11  4  1  0
  1 16  1  0
  1 17  1  0
  1 18  1  0
  2 19  1  6
  3 20  1  0
  3 21  1  0
  5 22  1  0
 10 23  1  0
M  CHG  2   1   1  15  -1
M  END
>  <meeko>  (1) 
{"is_sidechain": [false], "free_energy": -6.005, "intermolecular_energy": -7.233, "internal_energy": -0.244}

$$$$
2al5_ligand
     RDKit          3D

 23 23  0  0  0  0  0  0  0  0999 V2000
    7.9000   78.4380   25.0300 N   0  0  0  0  0  0  0  0  0  0  0  0
    6.6940   77.9810   25.8330 C   0  0  1  0  0  0  0  0  0  0  0  0
    5.6160   79.0670   25.9350 C   0  0  0  0  0  0  0  0  0  0  0  0
    5.3920   79.6290   27.2800 N   0  0  0  0  0  0  0  0  0  0  0  0
    5.1180   78.7650   28.3290 C   0  0  0  0  0  0  0  0  0  0  0  0
    4.9290   79.2110   29.5710 C   0  0  0  0  0  0  0  0  0  0  0  0
    4.6690   78.3900   30.6050 F   0  0  0  0  0  0  0  0  0  0  0  0
    5.0160   80.6560   29.8500 C   0  0  0  0  0  0  0  0  0  0  0  0
    4.8640   81.1340   30.9690 O   0  0  0  0  0  0  0  0  0  0  0  0
    5.2840   81.4420   28.7570 N   0  0  0  0  0  0  0  0  0  0  0  0
    5.4320   81.0030   27.4700 C   0  0  0  0  0  0  0  0  0  0  0  0
    5.5530   81.7930   26.5310 O   0  0  0  0  0  0  0  0  0  0  0  0
    6.0760   76.7230   25.1840 C   0  0  0  0  0  0  0  0  0  0  0  0
    6.3210   75.7040   25.9090 O   0  0  0  0  0  0  0  0  0  0  0  0
    5.4740   76.8700   24.0990 O   0  0  0  0  0  0  0  0  0  0  0  0
    7.8800   77.7460   24.2400 H   0  0  0  0  0  0  0  0  0  0  0  0
    8.7900   78.3010   25.5060 H   0  0  0  0  0  0  0  0  0  0  0  0
    7.8060   79.3790   24.6160 H   0  0  0  0  0  0  0  0  0  0  0  0
    7.0502   77.7570   26.8493 H   0  0  0  0  0  0  0  0  0  0  0  0
    5.9058   79.8929   25.2688 H   0  0  0  0  0  0  0  0  0  0  0  0
    4.6719   78.5758   25.6570 H   0  0  0  0  0  0  0  0  0  0  0  0
    5.0550   77.6847   28.1316 H   0  0  0  0  0  0  0  0  0  0  0  0
    5.3080   82.4360   28.9210 H   0  0  0  0  0  0  0  0  0  0  0  0
  1  2  1  0
  2  3  1  0
  3  4  1  0
  4  5  1  0
  5  6  2  0
  6  7  1  0
  6  8  1  0
  8  9  2  0
  8 10  1  0
 10 11  1  0
 11 12  2  0
  2 13  1  0
 13 14  2  0
 13 15  1  0
 11  4  1  0
  1 16  1  0
  1 17  1  0
  1 18  1  0
  2 19  1  1
  3 20  1  0
  3 21  1  0
  5 22  1  0
 10 23  1  0
M  CHG  2   1   1  15  -1
M  END
>  <meeko>  (2) 
{"is_sidechain": [false], "free_energy": -6.0, "intermolecular_energy": -7.235, "internal_energy": -0.237}

$$$$
2al5_ligand
     RDKit          3D

 23 23  0  0  0  0  0  0  0  0999 V2000
    7.7150   78.0300   28.9110 N   0  0  0  0  0  0  0  0  0  0  0  0
    6.3160   78.5690   28.6670 C   0  0  1  0  0  0  0  0  0  0  0  0
    5.5910   77.8190   27.5420 C   0  0  0  0  0  0  0  0  0  0  0  0
    5.5520   78.5000   26.2350 N   0  0  0  0  0  0  0  0  0  0  0  0
    4.4500   79.2820   25.9200 C   0  0  0  0  0  0  0  0  0  0  0  0
    4.3670   79.9400   24.7640 C   0  0  0  0  0  0  0  0  0  0  0  0
    3.3110   80.7080   24.4410 F   0  0  0  0  0  0  0  0  0  0  0  0
    5.4700   79.8480   23.7890 C   0  0  0  0  0  0  0  0  0  0  0  0
    5.4650   80.4350   22.7130 O   0  0  0  0  0  0  0  0  0  0  0  0
    6.5190   79.0510   24.1750 N   0  0  0  0  0  0  0  0  0  0  0  0
    6.5960   78.3310   25.3360 C   0  0  0  0  0  0  0  0  0  0  0  0
    7.5240   77.5480   25.5470 O   0  0  0  0  0  0  0  0  0  0  0  0
    5.4780   78.4610   29.9600 C   0  0  0  0  0  0  0  0  0  0  0  0
    5.1020   79.6220   30.3240 O   0  0  0  0  0  0  0  0  0  0  0  0
    5.3110   77.3210   30.4460 O   0  0  0  0  0  0  0  0  0  0  0  0
    7.4930   77.1300   29.4050 H   0  0  0  0  0  0  0  0  0  0  0  0
    8.2640   78.5850   29.5660 H   0  0  0  0  0  0  0  0  0  0  0  0
    8.2360   77.7890   28.0540 H   0  0  0  0  0  0  0  0  0  0  0  0
    6.4243   79.6205   28.3626 H   0  0  0  0  0  0  0  0  0  0  0  0
    6.0949   76.8512   27.4028 H   0  0  0  0  0  0  0  0  0  0  0  0
    4.5431   77.7368   27.8662 H   0  0  0  0  0  0  0  0  0  0  0  0
    3.6242   79.3608   26.6424 H   0  0  0  0  0  0  0  0  0  0  0  0
    7.2640   78.9440   23.5050 H   0  0  0  0  0  0  0  0  0  0  0  0
  1  2  1  0
  2  3  1  0
  3  4  1  0
  4  5  1  0
  5  6  2  0
  6  7  1  0
  6  8  1  0
  8  9  2  0
  8 10  1  0
 10 11  1  0
 11 12  2  0
  2 13  1  0
 13 14  2  0
 13 15  1  0
 11  4  1  0
  1 16  1  0
  1 17  1  0
  1 18  1  0
  2 19  1  6
  3 20  1  0
  3 21  1  0
  5 22  1  0
 10 23  1  0
M  CHG  2   1   1  15  -1
M  END
>  <meeko>  (3) 
{"is_sidechain": [false], "free_energy": -5.811, "intermolecular_energy": -6.913, "internal_energy": -0.331}

$$$$
2al5_ligand
     RDKit          3D

 23 23  0  0  0  0  0  0  0  0999 V2000
    7.9100   78.4320   25.0820 N   0  0  0  0  0  0  0  0  0  0  0  0
    6.4610   78.0390   25.3140 C   0  0  1  0  0  0  0  0  0  0  0  0
    5.8350   78.7940   26.4940 C   0  0  0  0  0  0  0  0  0  0  0  0
    5.6720   78.0210   27.7390 N   0  0  0  0  0  0  0  0  0  0  0  0
    4.5390   77.2350   27.8960 C   0  0  0  0  0  0  0  0  0  0  0  0
    4.3460   76.4970   28.9890 C   0  0  0  0  0  0  0  0  0  0  0  0
    3.2590   75.7230   29.1590 F   0  0  0  0  0  0  0  0  0  0  0  0
    5.3570   76.5020   30.0630 C   0  0  0  0  0  0  0  0  0  0  0  0
    5.2500   75.8400   31.0890 O   0  0  0  0  0  0  0  0  0  0  0  0
    6.4430   77.3100   29.8320 N   0  0  0  0  0  0  0  0  0  0  0  0
    6.6310   78.1100   28.7380 C   0  0  0  0  0  0  0  0  0  0  0  0
    7.5800   78.8930   28.6700 O   0  0  0  0  0  0  0  0  0  0  0  0
    5.6290   78.3210   24.0430 C   0  0  0  0  0  0  0  0  0  0  0  0
    4.9890   77.2710   23.7100 O   0  0  0  0  0  0  0  0  0  0  0  0
    5.7090   79.4640   23.5430 O   0  0  0  0  0  0  0  0  0  0  0  0
    8.4010   77.5690   25.4230 H   0  0  0  0  0  0  0  0  0  0  0  0
    8.2310   79.1960   25.6750 H   0  0  0  0  0  0  0  0  0  0  0  0
    8.1650   78.5590   24.0900 H   0  0  0  0  0  0  0  0  0  0  0  0
    6.4526   76.9650   25.5514 H   0  0  0  0  0  0  0  0  0  0  0  0
    6.4743   79.6610   26.7168 H   0  0  0  0  0  0  0  0  0  0  0  0
    4.8169   79.0583   26.1721 H   0  0  0  0  0  0  0  0  0  0  0  0
    3.7814   77.2207   27.0986 H   0  0  0  0  0  0  0  0  0  0  0  0
    7.1250   77.3570   30.5720 H   0  0  0  0  0  0  0  0  0  0  0  0
  1  2  1  0
  2  3  1  0
  3  4  1  0
  4  5  1  0
  5  6  2  0
  6  7  1  0
  6  8  1  0
  8  9  2  0
  8 10  1  0
 10 11  1  0
 11 12  2  0
  2 13  1  0
 13 14  2  0
 13 15  1  0
 11  4  1  0
  1 16  1  0
  1 17  1  0
  1 18  1  0
  2 19  1  1
  3 20  1  0
  3 21  1  0
  5 22  1  0
 10 23  1  0
M  CHG  2   1   1  15  -1
M  END
>  <meeko>  (4) 
{"is_sidechain": [false], "free_energy": -5.802, "intermolecular_energy": -6.956, "internal_energy": -0.277}

$$$$
2al5_ligand
     RDKit          3D

 23 23  0  0  0  0  0  0  0  0999 V2000
    5.1440   74.3250   26.3270 N   0  0  0  0  0  0  0  0  0  0  0  0
    4.8500   75.4460   25.3440 C   0  0  1  0  0  0  0  0  0  0  0  0
    6.0330   76.4100   25.1900 C   0  0  0  0  0  0  0  0  0  0  0  0
    6.0840   77.5260   26.1520 N   0  0  0  0  0  0  0  0  0  0  0  0
    6.2760   77.2430   27.4960 C   0  0  0  0  0  0  0  0  0  0  0  0
    6.3540   78.2100   28.4110 C   0  0  0  0  0  0  0  0  0  0  0  0
    6.5460   77.9580   29.7180 F   0  0  0  0  0  0  0  0  0  0  0  0
    6.2410   79.6200   27.9950 C   0  0  0  0  0  0  0  0  0  0  0  0
    6.3140   80.5590   28.7790 O   0  0  0  0  0  0  0  0  0  0  0  0
    6.0460   79.8130   26.6500 N   0  0  0  0  0  0  0  0  0  0  0  0
    5.9160   78.8300   25.7080 C   0  0  0  0  0  0  0  0  0  0  0  0
    5.6240   79.0940   24.5390 O   0  0  0  0  0  0  0  0  0  0  0  0
    4.5030   74.8540   23.9600 C   0  0  0  0  0  0  0  0  0  0  0  0
    4.7930   75.6980   23.0500 O   0  0  0  0  0  0  0  0  0  0  0  0
    4.0040   73.7090   23.9310 O   0  0  0  0  0  0  0  0  0  0  0  0
    5.9000   73.8090   25.8120 H   0  0  0  0  0  0  0  0  0  0  0  0
    4.3770   73.6640   26.4420 H   0  0  0  0  0  0  0  0  0  0  0  0
    5.5430   74.6380   27.2260 H   0  0  0  0  0  0  0  0  0  0  0  0
    3.9977   76.0130   25.7465 H   0  0  0  0  0  0  0  0  0  0  0  0
    6.9593   75.8271   25.3007 H   0  0  0  0  0  0  0  0  0  0  0  0
    5.9109   76.8753   24.2007 H   0  0  0  0  0  0  0  0  0  0  0  0
    6.3662   76.1943   27.8154 H   0  0  0  0  0  0  0  0  0  0  0  0
    5.9270   80.7690   26.3520 H   0  0  0  0  0  0  0  0  0  0  0  0
  1  2  1  0
  2  3  1  0
  3  4  1  0
  4  5  1  0
  5  6  2  0
  6  7  1  0
  6  8  1  0
  8  9  2  0
  8 10  1  0
 10 11  1  0
 11 12  2  0
  2 13  1  0
 13 14  2  0
 13 15  1  0
 11  4  1  0
  1 16  1  0
  1 17  1  0
  1 18  1  0
  2 19  1  1
  3 20  1  0
  3 21  1  0
  5 22  1  0
 10 23  1  0
M  CHG  2   1   1  15  -1
M  END
>  <meeko>  (5) 
{"is_sidechain": [false], "free_energy": -5.723, "intermolecular_energy": -7.0, "internal_energy": -0.138}

$$$$
2al5_ligand
     RDKit          3D

 23 23  0  0  0  0  0  0  0  0999 V2000
    5.5840   76.5310   28.8580 N   0  0  0  0  0  0  0  0  0  0  0  0
    5.9370   77.4560   27.7070 C   0  0  1  0  0  0  0  0  0  0  0  0
    4.7910   78.4140   27.3570 C   0  0  0  0  0  0  0  0  0  0  0  0
    4.9120   79.1210   26.0690 N   0  0  0  0  0  0  0  0  0  0  0  0
    4.8130   78.3920   24.8930 C   0  0  0  0  0  0  0  0  0  0  0  0
    4.8920   78.9770   23.6980 C   0  0  0  0  0  0  0  0  0  0  0  0
    4.7930   78.2910   22.5460 F   0  0  0  0  0  0  0  0  0  0  0  0
    5.0840   80.4370   23.6100 C   0  0  0  0  0  0  0  0  0  0  0  0
    5.1540   81.0420   22.5470 O   0  0  0  0  0  0  0  0  0  0  0  0
    5.1780   81.0820   24.8180 N   0  0  0  0  0  0  0  0  0  0  0  0
    5.1470   80.4890   26.0500 C   0  0  0  0  0  0  0  0  0  0  0  0
    5.3580   81.1330   27.0800 O   0  0  0  0  0  0  0  0  0  0  0  0
    7.1900   78.2860   28.0640 C   0  0  0  0  0  0  0  0  0  0  0  0
    8.1450   77.9750   27.2800 O   0  0  0  0  0  0  0  0  0  0  0  0
    7.1000   79.0840   29.0210 O   0  0  0  0  0  0  0  0  0  0  0  0
    5.7860   77.1550   29.6780 H   0  0  0  0  0  0  0  0  0  0  0  0
    6.2060   75.7300   28.9510 H   0  0  0  0  0  0  0  0  0  0  0  0
    4.5860   76.2720   28.9090 H   0  0  0  0  0  0  0  0  0  0  0  0
    6.1309   76.8199   26.8308 H   0  0  0  0  0  0  0  0  0  0  0  0
    3.8590   77.8302   27.3345 H   0  0  0  0  0  0  0  0  0  0  0  0
    4.8121   79.1972   28.1291 H   0  0  0  0  0  0  0  0  0  0  0  0
    4.6655   77.3033   24.9481 H   0  0  0  0  0  0  0  0  0  0  0  0
    5.3490   82.0750   24.7780 H   0  0  0  0  0  0  0  0  0  0  0  0
  1  2  1  0
  2  3  1  0
  3  4  1  0
  4  5  1  0
  5  6  2  0
  6  7  1  0
  6  8  1  0
  8  9  2  0
  8 10  1  0
 10 11  1  0
 11 12  2  0
  2 13  1  0
 13 14  2  0
 13 15  1  0
 11  4  1  0
  1 16  1  0
  1 17  1  0
  1 18  1  0
  2 19  1  6
  3 20  1  0
  3 21  1  0
  5 22  1  0
 10 23  1  0
M  CHG  2   1   1  15  -1
M  END
>  <meeko>  (6) 
{"is_sidechain": [false], "free_energy": -5.537, "intermolecular_energy": -6.543, "internal_energy": -0.371}

$$$$
2al5_ligand
     RDKit          3D

 23 23  0  0  0  0  0  0  0  0999 V2000
    5.2450   82.0580   27.4740 N   0  0  0  0  0  0  0  0  0  0  0  0
    4.5130   81.0780   28.3750 C   0  0  1  0  0  0  0  0  0  0  0  0
    3.7040   80.0470   27.5780 C   0  0  0  0  0  0  0  0  0  0  0  0
    4.4880   79.0080   26.8850 N   0  0  0  0  0  0  0  0  0  0  0  0
    5.1700   79.3470   25.7260 C   0  0  0  0  0  0  0  0  0  0  0  0
    5.9140   78.4580   25.0680 C   0  0  0  0  0  0  0  0  0  0  0  0
    6.5890   78.7670   23.9460 F   0  0  0  0  0  0  0  0  0  0  0  0
    6.0270   77.0790   25.5770 C   0  0  0  0  0  0  0  0  0  0  0  0
    6.7010   76.2150   25.0290 O   0  0  0  0  0  0  0  0  0  0  0  0
    5.3170   76.8250   26.7230 N   0  0  0  0  0  0  0  0  0  0  0  0
    4.5110   77.7130   27.3830 C   0  0  0  0  0  0  0  0  0  0  0  0
    3.8170   77.3640   28.3390 O   0  0  0  0  0  0  0  0  0  0  0  0
    5.5250   80.3330   29.2740 C   0  0  0  0  0  0  0  0  0  0  0  0
    4.9400   79.9270   30.3300 O   0  0  0  0  0  0  0  0  0  0  0  0
    6.7050   80.2530   28.8690 O   0  0  0  0  0  0  0  0  0  0  0  0
    6.1040   82.2440   28.0490 H   0  0  0  0  0  0  0  0  0  0  0  0
    4.7730   82.9550   27.3700 H   0  0  0  0  0  0  0  0  0  0  0  0
    5.5560   81.6610   26.5740 H   0  0  0  0  0  0  0  0  0  0  0  0
    3.8113   81.6645   28.9863 H   0  0  0  0  0  0  0  0  0  0  0  0
    3.0197   79.5429   28.2764 H   0  0  0  0  0  0  0  0  0  0  0  0
    3.1973   80.6158   26.7844 H   0  0  0  0  0  0  0  0  0  0  0  0
    5.0952   80.3745   25.3403 H   0  0  0  0  0  0  0  0  0  0  0  0
    5.3500   75.8770   27.0650 H   0  0  0  0  0  0  0  0  0  0  0  0
  1  2  1  0
  2  3  1  0
  3  4  1  0
  4  5  1  0
  5  6  2  0
  6  7  1  0
  6  8  1  0
  8  9  2  0
  8 10  1  0
 10 11  1  0
 11 12  2  0
  2 13  1  0
 13 14  2  0
 13 15  1  0
 11  4  1  0
  1 16  1  0
  1 17  1  0
  1 18  1  0
  2 19  1  1
  3 20  1  0
  3 21  1  0
  5 22  1  0
 10 23  1  0
M  CHG  2   1   1  15  -1
M  END
>  <meeko>  (7) 
{"is_sidechain": [false], "free_energy": -5.53, "intermolecular_energy": -6.842, "internal_energy": -0.064}

$$$$
2al5_ligand
     RDKit          3D

 23 23  0  0  0  0  0  0  0  0999 V2000
    4.1560   78.6140   31.0190 N   0  0  0  0  0  0  0  0  0  0  0  0
    4.6410   77.5700   30.0280 C   0  0  1  0  0  0  0  0  0  0  0  0
    6.0190   77.9120   29.4490 C   0  0  0  0  0  0  0  0  0  0  0  0
    6.0680   78.1360   27.9920 N   0  0  0  0  0  0  0  0  0  0  0  0
    6.0450   77.0380   27.1450 C   0  0  0  0  0  0  0  0  0  0  0  0
    6.0640   77.1770   25.8190 C   0  0  0  0  0  0  0  0  0  0  0  0
    6.0350   76.1270   24.9790 F   0  0  0  0  0  0  0  0  0  0  0  0
    6.1060   78.5270   25.2260 C   0  0  0  0  0  0  0  0  0  0  0  0
    6.1140   78.7280   24.0170 O   0  0  0  0  0  0  0  0  0  0  0  0
    6.1330   79.5570   26.1330 N   0  0  0  0  0  0  0  0  0  0  0  0
    6.1630   79.4280   27.4940 C   0  0  0  0  0  0  0  0  0  0  0  0
    6.3070   80.4070   28.2300 O   0  0  0  0  0  0  0  0  0  0  0  0
    4.7170   76.1880   30.7160 C   0  0  0  0  0  0  0  0  0  0  0  0
    5.8720   76.0300   31.2300 O   0  0  0  0  0  0  0  0  0  0  0  0
    3.7030   75.4600   30.6610 O   0  0  0  0  0  0  0  0  0  0  0  0
    4.1030   79.4600   30.3980 H   0  0  0  0  0  0  0  0  0  0  0  0
    4.8320   78.8380   31.7480 H   0  0  0  0  0  0  0  0  0  0  0  0
    3.2070   78.4450   31.3890 H   0  0  0  0  0  0  0  0  0  0  0  0
    3.9176   77.5513   29.1995 H   0  0  0  0  0  0  0  0  0  0  0  0
    6.3741   78.8284   29.9430 H   0  0  0  0  0  0  0  0  0  0  0  0
    6.6478   77.0290   29.6357 H   0  0  0  0  0  0  0  0  0  0  0  0
    6.0102   76.0274   27.5779 H   0  0  0  0  0  0  0  0  0  0  0  0
    6.2020   80.4860   25.7470 H   0  0  0  0  0  0  0  0  0  0  0  0
  1  2  1  0
  2  3  1  0
  3  4  1  0
  4  5  1  0
  5  6  2  0
  6  7  1  0
  6  8  1  0
  8  9  2  0
  8 10  1  0
 10 11  1  0
 11 12  2  0
  2 13  1  0
 13 14  2  0
 13 15  1  0
 11  4  1  0
  1 16  1  0
  1 17  1  0
  1 18  1  0
  2 19  1  6
  3 20  1  0
  3 21  1  0
  5 22  1  0
 10 23  1  0
M  CHG  2   1   1  15  -1
M  END
>  <meeko>  (8) 
{"is_sidechain": [false], "free_energy": -5.49, "intermolecular_energy": -6.584, "internal_energy": -0.274}

$$$$
2al5_ligand
     RDKit          3D

 23 23  0  0  0  0  0  0  0  0999 V2000
    2.6460   81.3900   28.1660 N   0  0  0  0  0  0  0  0  0  0  0  0
    4.0110   81.1290   28.7790 C   0  0  1  0  0  0  0  0  0  0  0  0
    5.1470   81.2880   27.7610 C   0  0  0  0  0  0  0  0  0  0  0  0
    5.5730   80.0560   27.0730 N   0  0  0  0  0  0  0  0  0  0  0  0
    5.0590   79.7800   25.8150 C   0  0  0  0  0  0  0  0  0  0  0  0
    5.4230   78.6940   25.1330 C   0  0  0  0  0  0  0  0  0  0  0  0
    4.9420   78.4100   23.9100 F   0  0  0  0  0  0  0  0  0  0  0  0
    6.4010   77.7570   25.7180 C   0  0  0  0  0  0  0  0  0  0  0  0
    6.7880   76.7470   25.1440 O   0  0  0  0  0  0  0  0  0  0  0  0
    6.8560   78.1000   26.9670 N   0  0  0  0  0  0  0  0  0  0  0  0
    6.4550   79.1850   27.6980 C   0  0  0  0  0  0  0  0  0  0  0  0
    6.8280   79.3510   28.8610 O   0  0  0  0  0  0  0  0  0  0  0  0
    4.2530   82.1010   29.9550 C   0  0  0  0  0  0  0  0  0  0  0  0
    5.1180   81.6050   30.7480 O   0  0  0  0  0  0  0  0  0  0  0  0
    3.5960   83.1640   29.9690 O   0  0  0  0  0  0  0  0  0  0  0  0
    2.8990   82.0790   27.4150 H   0  0  0  0  0  0  0  0  0  0  0  0
    1.9990   81.8730   28.7870 H   0  0  0  0  0  0  0  0  0  0  0  0
    2.2220   80.5710   27.7020 H   0  0  0  0  0  0  0  0  0  0  0  0
    4.0125   80.0870   29.1315 H   0  0  0  0  0  0  0  0  0  0  0  0
    4.8150   82.0041   26.9949 H   0  0  0  0  0  0  0  0  0  0  0  0
    6.0205   81.6224   28.3400 H   0  0  0  0  0  0  0  0  0  0  0  0
    4.3325   80.4748   25.3685 H   0  0  0  0  0  0  0  0  0  0  0  0
    7.4940   77.4520   27.3990 H   0  0  0  0  0  0  0  0  0  0  0  0
  1  2  1  0
  2  3  1  0
  3  4  1  0
  4  5  1  0
  5  6  2  0
  6  7  1  0
  6  8  1  0
  8  9  2  0
  8 10  1  0
 10 11  1  0
 11 12  2  0
  2 13  1  0
 13 14  2  0
 13 15  1  0
 11  4  1  0
  1 16  1  0
  1 17  1  0
  1 18  1  0
  2 19  1  1
  3 20  1  0
  3 21  1  0
  5 22  1  0
 10 23  1  0
M  CHG  2   1   1  15  -1
M  END
>  <meeko>  (9) 
{"is_sidechain": [false], "free_energy": -5.475, "intermolecular_energy": -6.607, "internal_energy": -0.232}

$$$$
