3r88_ligand
     RDKit          3D

 24 24  0  0  0  0  0  0  0  0999 V2000
  -13.6720  -42.1770   11.9840 C   0  0  0  0  0  0  0  0  0  0  0  0
  -13.8540  -41.1700   12.9690 O   0  0  0  0  0  0  0  0  0  0  0  0
  -12.7220  -40.5500   13.4430 C   0  0  0  0  0  0  0  0  0  0  0  0
  -11.8680  -39.7600   12.6650 C   0  0  0  0  0  0  0  0  0  0  0  0
  -10.7150  -39.1790   13.2110 C   0  0  0  0  0  0  0  0  0  0  0  0
   -9.9730  -38.2880   12.3850 N   0  0  0  0  0  0  0  0  0  0  0  0
  -10.4420  -39.3150   14.5850 C   0  0  0  0  0  0  0  0  0  0  0  0
   -9.2480  -38.6540   15.2520 C   0  0  0  0  0  0  0  0  0  0  0  0
   -9.4810  -37.8710   16.2270 O   0  0  0  0  0  0  0  0  0  0  0  0
   -8.0950  -38.9280   14.7830 O   0  0  0  0  0  0  0  0  0  0  0  0
  -11.3120  -40.1080   15.3620 C   0  0  0  0  0  0  0  0  0  0  0  0
  -12.4400  -40.7280   14.8080 C   0  0  0  0  0  0  0  0  0  0  0  0
  -13.3200  -41.5110   15.5160 O   0  0  0  0  0  0  0  0  0  0  0  0
  -12.7940  -42.6840   16.1200 C   0  0  0  0  0  0  0  0  0  0  0  0
  -13.4971  -43.1447   12.4769 H   0  0  0  0  0  0  0  0  0  0  0  0
  -14.5728  -42.2428   11.3561 H   0  0  0  0  0  0  0  0  0  0  0  0
  -12.8051  -41.9233   11.3561 H   0  0  0  0  0  0  0  0  0  0  0  0
  -12.1062  -39.5917   11.6044 H   0  0  0  0  0  0  0  0  0  0  0  0
   -9.2920  -38.8360   11.8640 H   0  0  0  0  0  0  0  0  0  0  0  0
  -10.6400  -37.9850   11.6410 H   0  0  0  0  0  0  0  0  0  0  0  0
  -11.0991  -40.2435   16.4327 H   0  0  0  0  0  0  0  0  0  0  0  0
  -12.8387  -42.5844   17.2146 H   0  0  0  0  0  0  0  0  0  0  0  0
  -13.3875  -43.5555   15.8066 H   0  0  0  0  0  0  0  0  0  0  0  0
  -11.7485  -42.8205   15.8066 H   0  0  0  0  0  0  0  0  0  0  0  0
  1  2  1  0
  2  3  1  0
  3  4  2  0
  4  5  1  0
  5  6  1  0
  5  7  2  0
  7  8  1  0
  8  9  2  0
  8 10  1  0
  7 11  1  0
 11 12  2  0
 12 13  1  0
 13 14  1  0
 12  3  1  0
  1 15  1  0
  1 16  1  0
  1 17  1  0
  4 18  1  0
  6 19  1  0
  6 20  1  0
 11 21  1  0
 14 22  1  0
 14 23  1  0
 14 24  1  0
M  CHG  1  10  -1
M  END
>  <meeko>  (1) 
{"is_sidechain": [false], "free_energy": -6.7, "intermolecular_energy": -8.071, "internal_energy": -0.435}

$$$$
3r88_ligand
     RDKit          3D

 24 24  0  0  0  0  0  0  0  0999 V2000
  -10.5990  -39.7630   14.9440 C   0  0  0  0  0  0  0  0  0  0  0  0
  -10.1310  -40.5540   13.8610 O   0  0  0  0  0  0  0  0  0  0  0  0
  -11.0770  -41.2320   13.1290 C   0  0  0  0  0  0  0  0  0  0  0  0
  -11.8550  -42.2840   13.6250 C   0  0  0  0  0  0  0  0  0  0  0  0
  -12.7830  -42.9480   12.8100 C   0  0  0  0  0  0  0  0  0  0  0  0
  -13.6220  -43.9190   13.4270 N   0  0  0  0  0  0  0  0  0  0  0  0
  -13.0080  -42.5060   11.4930 C   0  0  0  0  0  0  0  0  0  0  0  0
  -14.0480  -43.1370   10.5830 C   0  0  0  0  0  0  0  0  0  0  0  0
  -15.1850  -43.4010   11.0870 O   0  0  0  0  0  0  0  0  0  0  0  0
  -13.7030  -43.3630    9.3770 O   0  0  0  0  0  0  0  0  0  0  0  0
  -12.2230  -41.4400   11.0060 C   0  0  0  0  0  0  0  0  0  0  0  0
  -11.2610  -40.8050   11.8030 C   0  0  0  0  0  0  0  0  0  0  0  0
  -10.4680  -39.7650   11.3810 O   0  0  0  0  0  0  0  0  0  0  0  0
  -10.6790  -39.2930   10.0570 C   0  0  0  0  0  0  0  0  0  0  0  0
  -10.3172  -40.2394   15.8946 H   0  0  0  0  0  0  0  0  0  0  0  0
  -10.1481  -38.7612   14.8880 H   0  0  0  0  0  0  0  0  0  0  0  0
  -11.6941  -39.6759   14.8880 H   0  0  0  0  0  0  0  0  0  0  0  0
  -11.7365  -42.5958   14.6732 H   0  0  0  0  0  0  0  0  0  0  0  0
  -13.4050  -44.8260   13.0210 H   0  0  0  0  0  0  0  0  0  0  0  0
  -13.2620  -44.0130   14.4030 H   0  0  0  0  0  0  0  0  0  0  0  0
  -12.3701  -41.0974    9.9711 H   0  0  0  0  0  0  0  0  0  0  0  0
  -11.1277  -38.2893   10.0927 H   0  0  0  0  0  0  0  0  0  0  0  0
   -9.7164  -39.2457    9.5268 H   0  0  0  0  0  0  0  0  0  0  0  0
  -11.3562  -39.9787    9.5268 H   0  0  0  0  0  0  0  0  0  0  0  0
  1  2  1  0
  2  3  1  0
  3  4  2  0
  4  5  1  0
  5  6  1  0
  5  7  2  0
  7  8  1  0
  8  9  2  0
  8 10  1  0
  7 11  1  0
 11 12  2  0
 12 13  1  0
 13 14  1  0
 12  3  1  0
  1 15  1  0
  1 16  1  0
  1 17  1  0
  4 18  1  0
  6 19  1  0
  6 20  1  0
 11 21  1  0
 14 22  1  0
 14 23  1  0
 14 24  1  0
M  CHG  1  10  -1
M  END
>  <meeko>  (2) 
{"is_sidechain": [false], "free_energy": -6.678, "intermolecular_energy": -8.1, "internal_energy": -0.379}

$$$$
3r88_ligand
     RDKit          3D

 24 24  0  0  0  0  0  0  0  0999 V2000
   -9.1310  -39.3570   12.5020 C   0  0  0  0  0  0  0  0  0  0  0  0
   -9.8980  -40.3330   13.1920 O   0  0  0  0  0  0  0  0  0  0  0  0
  -10.9160  -40.9370   12.4920 C   0  0  0  0  0  0  0  0  0  0  0  0
  -11.2830  -40.6000   11.1840 C   0  0  0  0  0  0  0  0  0  0  0  0
  -12.3510  -41.2420   10.5400 C   0  0  0  0  0  0  0  0  0  0  0  0
  -12.5760  -40.9300    9.1700 N   0  0  0  0  0  0  0  0  0  0  0  0
  -13.0210  -42.3040   11.1770 C   0  0  0  0  0  0  0  0  0  0  0  0
  -14.1390  -43.0860   10.5090 C   0  0  0  0  0  0  0  0  0  0  0  0
  -15.1700  -43.3440   11.2070 O   0  0  0  0  0  0  0  0  0  0  0  0
  -13.9600  -43.4330    9.2960 O   0  0  0  0  0  0  0  0  0  0  0  0
  -12.6380  -42.6400   12.4930 C   0  0  0  0  0  0  0  0  0  0  0  0
  -11.6020  -41.9680   13.1550 C   0  0  0  0  0  0  0  0  0  0  0  0
  -11.1880  -42.2520   14.4350 O   0  0  0  0  0  0  0  0  0  0  0  0
  -11.6640  -43.4600   15.0110 C   0  0  0  0  0  0  0  0  0  0  0  0
   -8.6216  -38.7088   13.2303 H   0  0  0  0  0  0  0  0  0  0  0  0
   -8.3825  -39.8581   11.8706 H   0  0  0  0  0  0  0  0  0  0  0  0
   -9.7948  -38.7481   11.8706 H   0  0  0  0  0  0  0  0  0  0  0  0
  -10.7234  -39.8171   10.6511 H   0  0  0  0  0  0  0  0  0  0  0  0
  -11.9650  -41.5200    8.6090 H   0  0  0  0  0  0  0  0  0  0  0  0
  -13.5240  -41.3120    8.9540 H   0  0  0  0  0  0  0  0  0  0  0  0
  -13.1673  -43.4518   13.0134 H   0  0  0  0  0  0  0  0  0  0  0  0
  -11.6327  -43.3806   16.1077 H   0  0  0  0  0  0  0  0  0  0  0  0
  -12.6996  -43.6382   14.6857 H   0  0  0  0  0  0  0  0  0  0  0  0
  -11.0283  -44.2967   14.6857 H   0  0  0  0  0  0  0  0  0  0  0  0
  1  2  1  0
  2  3  1  0
  3  4  2  0
  4  5  1  0
  5  6  1  0
  5  7  2  0
  7  8  1  0
  8  9  2  0
  8 10  1  0
  7 11  1  0
 11 12  2  0
 12 13  1  0
 13 14  1  0
 12  3  1  0
  1 15  1  0
  1 16  1  0
  1 17  1  0
  4 18  1  0
  6 19  1  0
  6 20  1  0
 11 21  1  0
 14 22  1  0
 14 23  1  0
 14 24  1  0
M  CHG  1  10  -1
M  END
>  <meeko>  (3) 
{"is_sidechain": [false], "free_energy": -6.662, "intermolecular_energy": -8.089, "internal_energy": -0.371}

$$$$
3r88_ligand
     RDKit          3D

 24 24  0  0  0  0  0  0  0  0999 V2000
   -9.8830  -38.9590   10.5480 C   0  0  0  0  0  0  0  0  0  0  0  0
  -10.6240  -40.1670   10.4500 O   0  0  0  0  0  0  0  0  0  0  0  0
  -11.0650  -40.7260   11.6260 C   0  0  0  0  0  0  0  0  0  0  0  0
  -10.7760  -40.2200   12.8980 C   0  0  0  0  0  0  0  0  0  0  0  0
  -11.2390  -40.8590   14.0570 C   0  0  0  0  0  0  0  0  0  0  0  0
  -11.0100  -40.2090   15.3020 N   0  0  0  0  0  0  0  0  0  0  0  0
  -12.0800  -41.9830   13.9530 C   0  0  0  0  0  0  0  0  0  0  0  0
  -12.6710  -42.6790   15.1670 C   0  0  0  0  0  0  0  0  0  0  0  0
  -12.1730  -43.8020   15.4970 O   0  0  0  0  0  0  0  0  0  0  0  0
  -13.6300  -42.0910   15.7650 O   0  0  0  0  0  0  0  0  0  0  0  0
  -12.3700  -42.4810   12.6650 C   0  0  0  0  0  0  0  0  0  0  0  0
  -11.8700  -41.8710   11.5070 C   0  0  0  0  0  0  0  0  0  0  0  0
  -12.1190  -42.3130   10.2290 O   0  0  0  0  0  0  0  0  0  0  0  0
  -13.4330  -42.7780    9.9550 C   0  0  0  0  0  0  0  0  0  0  0  0
   -9.7291  -38.7082   11.6079 H   0  0  0  0  0  0  0  0  0  0  0  0
   -8.9074  -39.0863   10.0560 H   0  0  0  0  0  0  0  0  0  0  0  0
  -10.4386  -38.1471   10.0560 H   0  0  0  0  0  0  0  0  0  0  0  0
  -10.1743  -39.3038   12.9905 H   0  0  0  0  0  0  0  0  0  0  0  0
  -10.7290  -39.2500   15.1100 H   0  0  0  0  0  0  0  0  0  0  0  0
  -11.9560  -40.0890   15.7280 H   0  0  0  0  0  0  0  0  0  0  0  0
  -13.0063  -43.3729   12.5674 H   0  0  0  0  0  0  0  0  0  0  0  0
  -13.9607  -42.9648   10.9019 H   0  0  0  0  0  0  0  0  0  0  0  0
  -13.9775  -42.0180    9.3755 H   0  0  0  0  0  0  0  0  0  0  0  0
  -13.3783  -43.7114    9.3755 H   0  0  0  0  0  0  0  0  0  0  0  0
  1  2  1  0
  2  3  1  0
  3  4  2  0
  4  5  1  0
  5  6  1  0
  5  7  2  0
  7  8  1  0
  8  9  2  0
  8 10  1  0
  7 11  1  0
 11 12  2  0
 12 13  1  0
 13 14  1  0
 12  3  1  0
  1 15  1  0
  1 16  1  0
  1 17  1  0
  4 18  1  0
  6 19  1  0
  6 20  1  0
 11 21  1  0
 14 22  1  0
 14 23  1  0
 14 24  1  0
M  CHG  1  10  -1
M  END
>  <meeko>  (4) 
{"is_sidechain": [false], "free_energy": -6.47, "intermolecular_energy": -7.857, "internal_energy": -0.371}

$$$$
3r88_ligand
     RDKit          3D

 24 24  0  0  0  0  0  0  0  0999 V2000
  -13.6940  -42.5740    9.6670 C   0  0  0  0  0  0  0  0  0  0  0  0
  -14.0430  -41.6270   10.6670 O   0  0  0  0  0  0  0  0  0  0  0  0
  -13.5680  -41.8580   11.9370 C   0  0  0  0  0  0  0  0  0  0  0  0
  -13.2290  -43.1210   12.4360 C   0  0  0  0  0  0  0  0  0  0  0  0
  -12.7740  -43.2840   13.7520 C   0  0  0  0  0  0  0  0  0  0  0  0
  -12.3310  -44.5800   14.1380 N   0  0  0  0  0  0  0  0  0  0  0  0
  -12.5710  -42.1580   14.5720 C   0  0  0  0  0  0  0  0  0  0  0  0
  -12.0160  -42.2600   15.9820 C   0  0  0  0  0  0  0  0  0  0  0  0
  -11.3130  -41.2890   16.4070 O   0  0  0  0  0  0  0  0  0  0  0  0
  -12.2910  -43.3180   16.6390 O   0  0  0  0  0  0  0  0  0  0  0  0
  -12.9100  -40.8890   14.0560 C   0  0  0  0  0  0  0  0  0  0  0  0
  -13.4080  -40.7290   12.7570 C   0  0  0  0  0  0  0  0  0  0  0  0
  -13.7550  -39.5190   12.2040 O   0  0  0  0  0  0  0  0  0  0  0  0
  -12.6930  -38.6990   11.7370 C   0  0  0  0  0  0  0  0  0  0  0  0
  -13.3515  -43.5033   10.1456 H   0  0  0  0  0  0  0  0  0  0  0  0
  -14.5729  -42.7865    9.0406 H   0  0  0  0  0  0  0  0  0  0  0  0
  -12.8874  -42.1654    9.0406 H   0  0  0  0  0  0  0  0  0  0  0  0
  -13.3213  -44.0018   11.7836 H   0  0  0  0  0  0  0  0  0  0  0  0
  -12.8860  -45.2670   13.6320 H   0  0  0  0  0  0  0  0  0  0  0  0
  -11.3850  -44.6870   13.7060 H   0  0  0  0  0  0  0  0  0  0  0  0
  -12.7794  -40.0009   14.6918 H   0  0  0  0  0  0  0  0  0  0  0  0
  -12.1491  -38.2790   12.5959 H   0  0  0  0  0  0  0  0  0  0  0  0
  -12.0049  -39.3024   11.1267 H   0  0  0  0  0  0  0  0  0  0  0  0
  -13.1027  -37.8806   11.1267 H   0  0  0  0  0  0  0  0  0  0  0  0
  1  2  1  0
  2  3  1  0
  3  4  2  0
  4  5  1  0
  5  6  1  0
  5  7  2  0
  7  8  1  0
  8  9  2  0
  8 10  1  0
  7 11  1  0
 11 12  2  0
 12 13  1  0
 13 14  1  0
 12  3  1  0
  1 15  1  0
  1 16  1  0
  1 17  1  0
  4 18  1  0
  6 19  1  0
  6 20  1  0
 11 21  1  0
 14 22  1  0
 14 23  1  0
 14 24  1  0
M  CHG  1  10  -1
M  END
>  <meeko>  (5) 
{"is_sidechain": [false], "free_energy": -6.432, "intermolecular_energy": -7.852, "internal_energy": -0.331}

$$$$
3r88_ligand
     RDKit          3D

 24 24  0  0  0  0  0  0  0  0999 V2000
  -13.5620  -42.9340   12.3780 C   0  0  0  0  0  0  0  0  0  0  0  0
  -13.7440  -41.5540   12.6620 O   0  0  0  0  0  0  0  0  0  0  0  0
  -12.7550  -40.9290   13.3860 C   0  0  0  0  0  0  0  0  0  0  0  0
  -12.5730  -41.0770   14.7650 C   0  0  0  0  0  0  0  0  0  0  0  0
  -11.5580  -40.3870   15.4430 C   0  0  0  0  0  0  0  0  0  0  0  0
  -11.3610  -40.6920   16.8190 N   0  0  0  0  0  0  0  0  0  0  0  0
  -10.6450  -39.5940   14.7230 C   0  0  0  0  0  0  0  0  0  0  0  0
   -9.4820  -38.8760   15.3860 C   0  0  0  0  0  0  0  0  0  0  0  0
   -9.7030  -38.3130   16.5050 O   0  0  0  0  0  0  0  0  0  0  0  0
   -8.3660  -38.8840   14.7690 O   0  0  0  0  0  0  0  0  0  0  0  0
  -10.8330  -39.4570   13.3310 C   0  0  0  0  0  0  0  0  0  0  0  0
  -11.8760  -40.1080   12.6590 C   0  0  0  0  0  0  0  0  0  0  0  0
  -12.1080  -40.0110   11.3080 O   0  0  0  0  0  0  0  0  0  0  0  0
  -12.6400  -38.7810   10.8350 C   0  0  0  0  0  0  0  0  0  0  0  0
  -13.4879  -43.4957   13.3209 H   0  0  0  0  0  0  0  0  0  0  0  0
  -14.4190  -43.3048   11.7966 H   0  0  0  0  0  0  0  0  0  0  0  0
  -12.6381  -43.0700   11.7966 H   0  0  0  0  0  0  0  0  0  0  0  0
  -13.2388  -41.7474   15.3282 H   0  0  0  0  0  0  0  0  0  0  0  0
  -11.7300  -41.6240   16.9900 H   0  0  0  0  0  0  0  0  0  0  0  0
  -10.3310  -40.8310   16.9250 H   0  0  0  0  0  0  0  0  0  0  0  0
  -10.1417  -38.8217   12.7579 H   0  0  0  0  0  0  0  0  0  0  0  0
  -12.9143  -38.1468   11.6909 H   0  0  0  0  0  0  0  0  0  0  0  0
  -11.8844  -38.2655   10.2240 H   0  0  0  0  0  0  0  0  0  0  0  0
  -13.5331  -38.9786   10.2240 H   0  0  0  0  0  0  0  0  0  0  0  0
  1  2  1  0
  2  3  1  0
  3  4  2  0
  4  5  1  0
  5  6  1  0
  5  7  2  0
  7  8  1  0
  8  9  2  0
  8 10  1  0
  7 11  1  0
 11 12  2  0
 12 13  1  0
 13 14  1  0
 12  3  1  0
  1 15  1  0
  1 16  1  0
  1 17  1  0
  4 18  1  0
  6 19  1  0
  6 20  1  0
 11 21  1  0
 14 22  1  0
 14 23  1  0
 14 24  1  0
M  CHG  1  10  -1
M  END
>  <meeko>  (6) 
{"is_sidechain": [false], "free_energy": -6.313, "intermolecular_energy": -7.665, "internal_energy": -0.375}

$$$$
3r88_ligand
     RDKit          3D

 24 24  0  0  0  0  0  0  0  0999 V2000
  -11.3530  -43.0630   15.7940 C   0  0  0  0  0  0  0  0  0  0  0  0
  -11.0200  -42.0900   14.8150 O   0  0  0  0  0  0  0  0  0  0  0  0
  -11.6580  -42.1820   13.6000 C   0  0  0  0  0  0  0  0  0  0  0  0
  -12.8590  -42.8680   13.3890 C   0  0  0  0  0  0  0  0  0  0  0  0
  -13.4400  -42.9420   12.1140 C   0  0  0  0  0  0  0  0  0  0  0  0
  -14.7240  -43.5480   12.0110 N   0  0  0  0  0  0  0  0  0  0  0  0
  -12.8590  -42.2500   11.0350 C   0  0  0  0  0  0  0  0  0  0  0  0
  -13.4740  -42.2340    9.6460 C   0  0  0  0  0  0  0  0  0  0  0  0
  -13.9770  -43.3200    9.2150 O   0  0  0  0  0  0  0  0  0  0  0  0
  -13.4380  -41.1310    9.0080 O   0  0  0  0  0  0  0  0  0  0  0  0
  -11.6510  -41.5570   11.2600 C   0  0  0  0  0  0  0  0  0  0  0  0
  -11.0450  -41.5200   12.5230 C   0  0  0  0  0  0  0  0  0  0  0  0
   -9.8700  -40.8620   12.8000 O   0  0  0  0  0  0  0  0  0  0  0  0
   -9.7040  -39.5740   12.2240 C   0  0  0  0  0  0  0  0  0  0  0  0
  -11.2075  -42.6377   16.7980 H   0  0  0  0  0  0  0  0  0  0  0  0
  -12.4045  -43.3617   15.6712 H   0  0  0  0  0  0  0  0  0  0  0  0
  -10.7050  -43.9434   15.6712 H   0  0  0  0  0  0  0  0  0  0  0  0
  -13.3570  -43.3584   14.2384 H   0  0  0  0  0  0  0  0  0  0  0  0
  -15.4250  -42.8210   12.1340 H   0  0  0  0  0  0  0  0  0  0  0  0
  -14.8290  -43.7980   11.0020 H   0  0  0  0  0  0  0  0  0  0  0  0
  -11.1716  -41.0313   10.4211 H   0  0  0  0  0  0  0  0  0  0  0  0
   -9.6074  -38.8245   13.0234 H   0  0  0  0  0  0  0  0  0  0  0  0
   -8.7973  -39.5649   11.6013 H   0  0  0  0  0  0  0  0  0  0  0  0
  -10.5788  -39.3353   11.6013 H   0  0  0  0  0  0  0  0  0  0  0  0
  1  2  1  0
  2  3  1  0
  3  4  2  0
  4  5  1  0
  5  6  1  0
  5  7  2  0
  7  8  1  0
  8  9  2  0
  8 10  1  0
  7 11  1  0
 11 12  2  0
 12 13  1  0
 13 14  1  0
 12  3  1  0
  1 15  1  0
  1 16  1  0
  1 17  1  0
  4 18  1  0
  6 19  1  0
  6 20  1  0
 11 21  1  0
 14 22  1  0
 14 23  1  0
 14 24  1  0
M  CHG  1  10  -1
M  END
>  <meeko>  (7) 
{"is_sidechain": [false], "free_energy": -6.226, "intermolecular_energy": -7.544, "internal_energy": -0.39}

$$$$
3r88_ligand
     RDKit          3D

 24 24  0  0  0  0  0  0  0  0999 V2000
  -12.2680  -40.0000    9.5320 C   0  0  0  0  0  0  0  0  0  0  0  0
  -11.3360  -40.8620   10.1700 O   0  0  0  0  0  0  0  0  0  0  0  0
  -11.7230  -41.4250   11.3630 C   0  0  0  0  0  0  0  0  0  0  0  0
  -12.7890  -42.3200   11.5060 C   0  0  0  0  0  0  0  0  0  0  0  0
  -13.1430  -42.8360   12.7610 C   0  0  0  0  0  0  0  0  0  0  0  0
  -14.1550  -43.8360   12.7990 N   0  0  0  0  0  0  0  0  0  0  0  0
  -12.3700  -42.5210   13.8940 C   0  0  0  0  0  0  0  0  0  0  0  0
  -12.6580  -43.1000   15.2690 C   0  0  0  0  0  0  0  0  0  0  0  0
  -13.7770  -42.8130   15.8020 O   0  0  0  0  0  0  0  0  0  0  0  0
  -11.7540  -43.8280   15.7940 O   0  0  0  0  0  0  0  0  0  0  0  0
  -11.2930  -41.6230   13.7380 C   0  0  0  0  0  0  0  0  0  0  0  0
  -10.9660  -41.0700   12.4930 C   0  0  0  0  0  0  0  0  0  0  0  0
   -9.9310  -40.1910   12.2830 O   0  0  0  0  0  0  0  0  0  0  0  0
  -10.0840  -38.8810   12.8120 C   0  0  0  0  0  0  0  0  0  0  0  0
  -12.8504  -39.4613   10.2940 H   0  0  0  0  0  0  0  0  0  0  0  0
  -11.7277  -39.2763    8.9040 H   0  0  0  0  0  0  0  0  0  0  0  0
  -12.9474  -40.5950    8.9040 H   0  0  0  0  0  0  0  0  0  0  0  0
  -13.3604  -42.6247   10.6168 H   0  0  0  0  0  0  0  0  0  0  0  0
  -13.6980  -44.7440   12.8400 H   0  0  0  0  0  0  0  0  0  0  0  0
  -14.5860  -43.7540   13.7470 H   0  0  0  0  0  0  0  0  0  0  0  0
  -10.6933  -41.3494   14.6186 H   0  0  0  0  0  0  0  0  0  0  0  0
  -10.0787  -38.9265   13.9110 H   0  0  0  0  0  0  0  0  0  0  0  0
   -9.2538  -38.2471   12.4672 H   0  0  0  0  0  0  0  0  0  0  0  0
  -11.0380  -38.4554   12.4672 H   0  0  0  0  0  0  0  0  0  0  0  0
  1  2  1  0
  2  3  1  0
  3  4  2  0
  4  5  1  0
  5  6  1  0
  5  7  2  0
  7  8  1  0
  8  9  2  0
  8 10  1  0
  7 11  1  0
 11 12  2  0
 12 13  1  0
 13 14  1  0
 12  3  1  0
  1 15  1  0
  1 16  1  0
  1 17  1  0
  4 18  1  0
  6 19  1  0
  6 20  1  0
 11 21  1  0
 14 22  1  0
 14 23  1  0
 14 24  1  0
M  CHG  1  10  -1
M  END
>  <meeko>  (8) 
{"is_sidechain": [false], "free_energy": -6.211, "intermolecular_energy": -7.49, "internal_energy": -0.427}

$$$$
3r88_ligand
     RDKit          3D

 24 24  0  0  0  0  0  0  0  0999 V2000
  -11.0240  -40.6500   14.6470 C   0  0  0  0  0  0  0  0  0  0  0  0
  -10.6120  -41.4260   13.5310 O   0  0  0  0  0  0  0  0  0  0  0  0
  -10.9220  -40.9390   12.2840 C   0  0  0  0  0  0  0  0  0  0  0  0
  -10.3060  -39.8290   11.6940 C   0  0  0  0  0  0  0  0  0  0  0  0
  -10.6920  -39.3720   10.4260 C   0  0  0  0  0  0  0  0  0  0  0  0
   -9.9300  -38.3190    9.8460 N   0  0  0  0  0  0  0  0  0  0  0  0
  -11.6560  -40.0810    9.6850 C   0  0  0  0  0  0  0  0  0  0  0  0
  -12.0690  -39.6790    8.2800 C   0  0  0  0  0  0  0  0  0  0  0  0
  -13.2500  -39.2340    8.1210 O   0  0  0  0  0  0  0  0  0  0  0  0
  -11.2030  -39.8240    7.3560 O   0  0  0  0  0  0  0  0  0  0  0  0
  -12.2660  -41.2030   10.2870 C   0  0  0  0  0  0  0  0  0  0  0  0
  -11.9150  -41.6330   11.5730 C   0  0  0  0  0  0  0  0  0  0  0  0
  -12.4750  -42.7160   12.2080 O   0  0  0  0  0  0  0  0  0  0  0  0
  -13.7910  -43.0810   11.8140 C   0  0  0  0  0  0  0  0  0  0  0  0
  -10.7482  -41.1694   15.5766 H   0  0  0  0  0  0  0  0  0  0  0  0
  -10.5281  -39.6686   14.6143 H   0  0  0  0  0  0  0  0  0  0  0  0
  -12.1147  -40.5110   14.6143 H   0  0  0  0  0  0  0  0  0  0  0  0
   -9.5041  -39.3056   12.2353 H   0  0  0  0  0  0  0  0  0  0  0  0
   -9.7350  -37.6340   10.5730 H   0  0  0  0  0  0  0  0  0  0  0  0
   -8.9870  -38.7320    9.6630 H   0  0  0  0  0  0  0  0  0  0  0  0
  -13.0382  -41.7547    9.7308 H   0  0  0  0  0  0  0  0  0  0  0  0
  -14.4075  -43.2520   12.7088 H   0  0  0  0  0  0  0  0  0  0  0  0
  -14.2320  -42.2713   11.2141 H   0  0  0  0  0  0  0  0  0  0  0  0
  -13.7519  -44.0022   11.2141 H   0  0  0  0  0  0  0  0  0  0  0  0
  1  2  1  0
  2  3  1  0
  3  4  2  0
  4  5  1  0
  5  6  1  0
  5  7  2  0
  7  8  1  0
  8  9  2  0
  8 10  1  0
  7 11  1  0
 11 12  2  0
 12 13  1  0
 13 14  1  0
 12  3  1  0
  1 15  1  0
  1 16  1  0
  1 17  1  0
  4 18  1  0
  6 19  1  0
  6 20  1  0
 11 21  1  0
 14 22  1  0
 14 23  1  0
 14 24  1  0
M  CHG  1  10  -1
M  END
>  <meeko>  (9) 
{"is_sidechain": [false], "free_energy": -6.143, "intermolecular_energy": -7.442, "internal_energy": -0.393}

$$$$
