1z6e_ligand
     RDKit          3D

 60 64  0  0  0  0  0  0  0  0999 V2000
    6.0820   34.7110   64.5370 C   0  0  0  0  0  0  0  0  0  0  0  0
    6.7540   34.1160   63.3360 N   0  0  0  0  0  0  0  0  0  0  0  0
    6.2880   32.7300   63.0400 C   0  0  0  0  0  0  0  0  0  0  0  0
    6.7440   35.0400   62.1280 C   0  0  0  0  0  0  0  0  0  0  0  0
    8.1450   35.2640   61.6630 C   0  0  0  0  0  0  0  0  0  0  0  0
    8.9320   36.1450   62.2600 N   0  0  0  0  0  0  0  0  0  0  0  0
   10.0440   36.2360   61.4780 C   0  0  0  0  0  0  0  0  0  0  0  0
    9.9330   35.4050   60.3910 C   0  0  0  0  0  0  0  0  0  0  0  0
    8.7420   34.7230   60.5290 N   0  0  0  0  0  0  0  0  0  0  0  0
    8.2710   33.7080   59.6480 C   0  0  0  0  0  0  0  0  0  0  0  0
    8.5530   32.3520   59.8690 C   0  0  0  0  0  0  0  0  0  0  0  0
    8.0860   31.3690   58.9790 C   0  0  0  0  0  0  0  0  0  0  0  0
    7.3290   31.7240   57.8640 C   0  0  0  0  0  0  0  0  0  0  0  0
    6.7720   30.8120   56.9420 N   0  0  0  0  0  0  0  0  0  0  0  0
    6.2520   29.5540   57.1890 C   0  0  0  0  0  0  0  0  0  0  0  0
    6.3790   28.9620   58.2550 O   0  0  0  0  0  0  0  0  0  0  0  0
    5.5340   28.9950   56.0630 C   0  0  0  0  0  0  0  0  0  0  0  0
    4.1620   29.0180   55.8410 C   0  0  0  0  0  0  0  0  0  0  0  0
    3.9130   28.1510   54.7570 C   0  0  0  0  0  0  0  0  0  0  0  0
    2.5670   27.7930   54.1690 C   0  0  0  0  0  0  0  0  0  0  0  0
    1.5630   27.9160   55.0730 F   0  0  0  0  0  0  0  0  0  0  0  0
    2.5380   26.5220   53.6940 F   0  0  0  0  0  0  0  0  0  0  0  0
    2.2570   28.6080   53.1250 F   0  0  0  0  0  0  0  0  0  0  0  0
    5.0650   27.6270   54.3120 N   0  0  0  0  0  0  0  0  0  0  0  0
    6.0550   28.2100   55.0380 N   0  0  0  0  0  0  0  0  0  0  0  0
    7.4040   27.9890   54.6020 C   0  0  0  0  0  0  0  0  0  0  0  0
    8.2390   27.1820   55.4040 C   0  0  0  0  0  0  0  0  0  0  0  0
    9.5580   26.8760   55.0460 C   0  0  0  0  0  0  0  0  0  0  0  0
   10.0160   27.3950   53.8400 C   0  0  0  0  0  0  0  0  0  0  0  0
   11.2790   27.1840   53.3310 O   0  0  0  0  0  0  0  0  0  0  0  0
   11.2820   27.8830   52.0860 N   0  0  0  0  0  0  0  0  0  0  0  0
   10.0650   28.4780   51.8910 C   0  0  0  0  0  0  0  0  0  0  0  0
    9.7460   29.2340   50.7720 N   0  0  0  0  0  0  0  0  0  0  0  0
    9.2150   28.1930   52.9980 C   0  0  0  0  0  0  0  0  0  0  0  0
    7.8880   28.4900   53.3800 C   0  0  0  0  0  0  0  0  0  0  0  0
    7.0630   33.0800   57.6520 C   0  0  0  0  0  0  0  0  0  0  0  0
    6.3250   33.4450   56.5910 F   0  0  0  0  0  0  0  0  0  0  0  0
    7.5330   34.0690   58.5140 C   0  0  0  0  0  0  0  0  0  0  0  0
    6.5396   34.3058   65.4515 H   0  0  0  0  0  0  0  0  0  0  0  0
    6.2021   35.8043   64.5203 H   0  0  0  0  0  0  0  0  0  0  0  0
    5.0113   34.4594   64.5203 H   0  0  0  0  0  0  0  0  0  0  0  0
    7.7600   34.0680   63.5830 H   0  0  0  0  0  0  0  0  0  0  0  0
    6.1079   32.1943   63.9837 H   0  0  0  0  0  0  0  0  0  0  0  0
    5.3549   32.7731   62.4590 H   0  0  0  0  0  0  0  0  0  0  0  0
    7.0576   32.2006   62.4590 H   0  0  0  0  0  0  0  0  0  0  0  0
    6.1580   34.5798   61.3188 H   0  0  0  0  0  0  0  0  0  0  0  0
    6.2908   36.0030   62.4059 H   0  0  0  0  0  0  0  0  0  0  0  0
   10.9081   36.8835   61.6879 H   0  0  0  0  0  0  0  0  0  0  0  0
   10.6553   35.3026   59.5678 H   0  0  0  0  0  0  0  0  0  0  0  0
    9.1452   32.0548   60.7470 H   0  0  0  0  0  0  0  0  0  0  0  0
    8.3202   30.3103   59.1643 H   0  0  0  0  0  0  0  0  0  0  0  0
    6.7740   31.1370   55.9790 H   0  0  0  0  0  0  0  0  0  0  0  0
    3.4155   29.5995   56.4019 H   0  0  0  0  0  0  0  0  0  0  0  0
    7.8388   26.7781   56.3457 H   0  0  0  0  0  0  0  0  0  0  0  0
   10.2005   26.2552   55.6877 H   0  0  0  0  0  0  0  0  0  0  0  0
   12.1120   27.8750   51.5050 H   0  0  0  0  0  0  0  0  0  0  0  0
    9.7750   28.8760   49.8220 H   0  0  0  0  0  0  0  0  0  0  0  0
    9.4620   30.2050   50.8870 H   0  0  0  0  0  0  0  0  0  0  0  0
    7.2437   29.1030   52.7326 H   0  0  0  0  0  0  0  0  0  0  0  0
    7.3252   35.1287   58.3045 H   0  0  0  0  0  0  0  0  0  0  0  0
  1  2  1  0
  2  3  1  0
  2  4  1  0
  4  5  1  0
  5  6  2  0
  6  7  1  0
  7  8  2  0
  8  9  1  0
  9 10  1  0
 10 11  2  0
 11 12  1  0
 12 13  2  0
 13 14  1  0
 14 15  1  0
 15 16  2  0
 15 17  1  0
 17 18  2  0
 18 19  1  0
 19 20  1  0
 20 21  1  0
 20 22  1  0
 20 23  1  0
 19 24  2  0
 24 25  1  0
 25 26  1  0
 26 27  2  0
 27 28  1  0
 28 29  2  0
 29 30  1  0
 30 31  1  0
 31 32  2  0
 32 33  1  0
 32 34  1  0
 34 35  2  0
 13 36  1  0
 36 37  1  0
 36 38  2  0
  9  5  1  0
 38 10  1  0
 25 17  1  0
 35 26  1  0
 34 29  1  0
  1 39  1  0
  1 40  1  0
  1 41  1  0
  2 42  1  0
  3 43  1  0
  3 44  1  0
  3 45  1  0
  4 46  1  0
  4 47  1  0
  7 48  1  0
  8 49  1  0
 11 50  1  0
 12 51  1  0
 14 52  1  0
 18 53  1  0
 27 54  1  0
 28 55  1  0
 31 56  1  0
 33 57  1  0
 33 58  1  0
 35 59  1  0
 38 60  1  0
M  CHG  2   2   1  31   1
M  END
>  <meeko>  (1) 
{"is_sidechain": [false], "free_energy": -11.121, "intermolecular_energy": -15.997, "internal_energy": -1.248}

$$$$
1z6e_ligand
     RDKit          3D

 60 64  0  0  0  0  0  0  0  0999 V2000
   10.2330   34.8490   60.4060 C   0  0  0  0  0  0  0  0  0  0  0  0
    9.2690   35.3040   61.4600 N   0  0  0  0  0  0  0  0  0  0  0  0
    9.6630   36.6010   62.0840 C   0  0  0  0  0  0  0  0  0  0  0  0
    7.8190   35.2570   61.0020 C   0  0  0  0  0  0  0  0  0  0  0  0
    7.0290   34.4120   61.9460 C   0  0  0  0  0  0  0  0  0  0  0  0
    6.8250   34.7920   63.1980 N   0  0  0  0  0  0  0  0  0  0  0  0
    6.2510   33.7220   63.8190 C   0  0  0  0  0  0  0  0  0  0  0  0
    6.1080   32.6790   62.9390 C   0  0  0  0  0  0  0  0  0  0  0  0
    6.5460   33.1290   61.7100 N   0  0  0  0  0  0  0  0  0  0  0  0
    6.5050   32.3800   60.5000 C   0  0  0  0  0  0  0  0  0  0  0  0
    7.6770   31.9640   59.8520 C   0  0  0  0  0  0  0  0  0  0  0  0
    7.6110   31.2340   58.6510 C   0  0  0  0  0  0  0  0  0  0  0  0
    6.3790   30.9060   58.0880 C   0  0  0  0  0  0  0  0  0  0  0  0
    6.2050   30.1350   56.9180 N   0  0  0  0  0  0  0  0  0  0  0  0
    6.5480   28.8120   56.7060 C   0  0  0  0  0  0  0  0  0  0  0  0
    7.2450   28.1580   57.4720 O   0  0  0  0  0  0  0  0  0  0  0  0
    6.0000   28.2630   55.4820 C   0  0  0  0  0  0  0  0  0  0  0  0
    4.6590   28.0920   55.1610 C   0  0  0  0  0  0  0  0  0  0  0  0
    4.6210   27.3110   53.9870 C   0  0  0  0  0  0  0  0  0  0  0  0
    3.3900   26.8060   53.2700 C   0  0  0  0  0  0  0  0  0  0  0  0
    3.6890   26.2310   52.0780 F   0  0  0  0  0  0  0  0  0  0  0  0
    2.4930   27.7980   53.0330 F   0  0  0  0  0  0  0  0  0  0  0  0
    2.7450   25.8640   54.0090 F   0  0  0  0  0  0  0  0  0  0  0  0
    5.8670   27.0230   53.5850 N   0  0  0  0  0  0  0  0  0  0  0  0
    6.7040   27.6790   54.4330 N   0  0  0  0  0  0  0  0  0  0  0  0
    8.0940   27.7170   54.0820 C   0  0  0  0  0  0  0  0  0  0  0  0
    8.9920   26.9250   54.8280 C   0  0  0  0  0  0  0  0  0  0  0  0
   10.3610   26.8660   54.5400 C   0  0  0  0  0  0  0  0  0  0  0  0
   10.8070   27.6190   53.4610 C   0  0  0  0  0  0  0  0  0  0  0  0
   12.1160   27.6670   53.0320 O   0  0  0  0  0  0  0  0  0  0  0  0
   12.0880   28.5390   51.9020 N   0  0  0  0  0  0  0  0  0  0  0  0
   10.8080   28.9800   51.6930 C   0  0  0  0  0  0  0  0  0  0  0  0
   10.4470   29.8430   50.6690 N   0  0  0  0  0  0  0  0  0  0  0  0
    9.9460   28.4140   52.6760 C   0  0  0  0  0  0  0  0  0  0  0  0
    8.5690   28.4600   52.9870 C   0  0  0  0  0  0  0  0  0  0  0  0
    5.2190   31.3340   58.7410 C   0  0  0  0  0  0  0  0  0  0  0  0
    4.0210   31.0190   58.2240 F   0  0  0  0  0  0  0  0  0  0  0  0
    5.2670   32.0740   59.9210 C   0  0  0  0  0  0  0  0  0  0  0  0
   11.1282   34.4265   60.8857 H   0  0  0  0  0  0  0  0  0  0  0  0
    9.7557   34.0811   59.7795 H   0  0  0  0  0  0  0  0  0  0  0  0
   10.5224   35.7055   59.7795 H   0  0  0  0  0  0  0  0  0  0  0  0
    9.3040   34.5730   62.1950 H   0  0  0  0  0  0  0  0  0  0  0  0
    9.6338   36.5047   63.1794 H   0  0  0  0  0  0  0  0  0  0  0  0
   10.6822   36.8661   61.7663 H   0  0  0  0  0  0  0  0  0  0  0  0
    8.9635   37.3882   61.7663 H   0  0  0  0  0  0  0  0  0  0  0  0
    7.4053   36.2762   60.9873 H   0  0  0  0  0  0  0  0  0  0  0  0
    7.7663   34.8268   59.9910 H   0  0  0  0  0  0  0  0  0  0  0  0
    5.9459   33.6985   64.8756 H   0  0  0  0  0  0  0  0  0  0  0  0
    5.7188   31.6762   63.1690 H   0  0  0  0  0  0  0  0  0  0  0  0
    8.6569   32.2107   60.2866 H   0  0  0  0  0  0  0  0  0  0  0  0
    8.5396   30.9195   58.1522 H   0  0  0  0  0  0  0  0  0  0  0  0
    5.7840   30.6400   56.1430 H   0  0  0  0  0  0  0  0  0  0  0  0
    3.7951   28.4885   55.7146 H   0  0  0  0  0  0  0  0  0  0  0  0
    8.6019   26.3313   55.6678 H   0  0  0  0  0  0  0  0  0  0  0  0
   11.0502   26.2529   55.1393 H   0  0  0  0  0  0  0  0  0  0  0  0
   12.9430   28.7360   51.3950 H   0  0  0  0  0  0  0  0  0  0  0  0
   10.2960   29.5480   49.7090 H   0  0  0  0  0  0  0  0  0  0  0  0
   10.3180   30.8330   50.8690 H   0  0  0  0  0  0  0  0  0  0  0  0
    7.8794   29.0673   52.3823 H   0  0  0  0  0  0  0  0  0  0  0  0
    4.3358   32.4165   60.3959 H   0  0  0  0  0  0  0  0  0  0  0  0
  1  2  1  0
  2  3  1  0
  2  4  1  0
  4  5  1  0
  5  6  2  0
  6  7  1  0
  7  8  2  0
  8  9  1  0
  9 10  1  0
 10 11  2  0
 11 12  1  0
 12 13  2  0
 13 14  1  0
 14 15  1  0
 15 16  2  0
 15 17  1  0
 17 18  2  0
 18 19  1  0
 19 20  1  0
 20 21  1  0
 20 22  1  0
 20 23  1  0
 19 24  2  0
 24 25  1  0
 25 26  1  0
 26 27  2  0
 27 28  1  0
 28 29  2  0
 29 30  1  0
 30 31  1  0
 31 32  2  0
 32 33  1  0
 32 34  1  0
 34 35  2  0
 13 36  1  0
 36 37  1  0
 36 38  2  0
  9  5  1  0
 38 10  1  0
 25 17  1  0
 35 26  1  0
 34 29  1  0
  1 39  1  0
  1 40  1  0
  1 41  1  0
  2 42  1  0
  3 43  1  0
  3 44  1  0
  3 45  1  0
  4 46  1  0
  4 47  1  0
  7 48  1  0
  8 49  1  0
 11 50  1  0
 12 51  1  0
 14 52  1  0
 18 53  1  0
 27 54  1  0
 28 55  1  0
 31 56  1  0
 33 57  1  0
 33 58  1  0
 35 59  1  0
 38 60  1  0
M  CHG  2   2   1  31   1
M  END
>  <meeko>  (2) 
{"is_sidechain": [false], "free_energy": -10.311, "intermolecular_energy": -14.833, "internal_energy": -1.246}

$$$$
1z6e_ligand
     RDKit          3D

 60 64  0  0  0  0  0  0  0  0999 V2000
    4.0550   32.1900   62.2960 C   0  0  0  0  0  0  0  0  0  0  0  0
    4.9240   33.2690   62.8700 N   0  0  0  0  0  0  0  0  0  0  0  0
    4.3430   33.8890   64.0960 C   0  0  0  0  0  0  0  0  0  0  0  0
    6.3780   32.8470   63.0210 C   0  0  0  0  0  0  0  0  0  0  0  0
    7.2590   33.8660   62.3780 C   0  0  0  0  0  0  0  0  0  0  0  0
    7.7190   34.9030   63.0610 N   0  0  0  0  0  0  0  0  0  0  0  0
    8.3110   35.7170   62.1420 C   0  0  0  0  0  0  0  0  0  0  0  0
    8.2080   35.1740   60.8860 C   0  0  0  0  0  0  0  0  0  0  0  0
    7.5880   33.9490   61.0290 N   0  0  0  0  0  0  0  0  0  0  0  0
    7.3460   33.0240   59.9740 C   0  0  0  0  0  0  0  0  0  0  0  0
    8.3090   32.0800   59.5870 C   0  0  0  0  0  0  0  0  0  0  0  0
    8.0510   31.1840   58.5350 C   0  0  0  0  0  0  0  0  0  0  0  0
    6.8310   31.2130   57.8620 C   0  0  0  0  0  0  0  0  0  0  0  0
    6.4550   30.3250   56.8300 N   0  0  0  0  0  0  0  0  0  0  0  0
    6.1570   28.9780   56.9270 C   0  0  0  0  0  0  0  0  0  0  0  0
    6.3660   28.3040   57.9290 O   0  0  0  0  0  0  0  0  0  0  0  0
    5.5650   28.4300   55.7240 C   0  0  0  0  0  0  0  0  0  0  0  0
    4.2130   28.3150   55.4250 C   0  0  0  0  0  0  0  0  0  0  0  0
    4.1210   27.5130   54.2690 C   0  0  0  0  0  0  0  0  0  0  0  0
    2.8570   27.0520   53.5800 C   0  0  0  0  0  0  0  0  0  0  0  0
    2.0250   26.3900   54.4230 F   0  0  0  0  0  0  0  0  0  0  0  0
    3.1160   26.2310   52.5310 F   0  0  0  0  0  0  0  0  0  0  0  0
    2.1560   28.1080   53.0870 F   0  0  0  0  0  0  0  0  0  0  0  0
    5.3460   27.1590   53.8550 N   0  0  0  0  0  0  0  0  0  0  0  0
    6.2250   27.7920   54.6770 N   0  0  0  0  0  0  0  0  0  0  0  0
    7.6100   27.7590   54.3050 C   0  0  0  0  0  0  0  0  0  0  0  0
    8.5010   27.0280   55.1190 C   0  0  0  0  0  0  0  0  0  0  0  0
    9.8640   26.9050   54.8210 C   0  0  0  0  0  0  0  0  0  0  0  0
   10.3090   27.5280   53.6610 C   0  0  0  0  0  0  0  0  0  0  0  0
   11.6120   27.4990   53.2120 O   0  0  0  0  0  0  0  0  0  0  0  0
   11.5870   28.2460   51.9960 N   0  0  0  0  0  0  0  0  0  0  0  0
   10.3140   28.6940   51.7590 C   0  0  0  0  0  0  0  0  0  0  0  0
    9.9570   29.4520   50.6540 N   0  0  0  0  0  0  0  0  0  0  0  0
    9.4550   28.2570   52.8080 C   0  0  0  0  0  0  0  0  0  0  0  0
    8.0840   28.3690   53.1300 C   0  0  0  0  0  0  0  0  0  0  0  0
    5.8830   32.1650   58.2530 C   0  0  0  0  0  0  0  0  0  0  0  0
    4.6960   32.2040   57.6270 F   0  0  0  0  0  0  0  0  0  0  0  0
    6.1300   33.0730   59.2810 C   0  0  0  0  0  0  0  0  0  0  0  0
    3.5935   31.6170   63.1138 H   0  0  0  0  0  0  0  0  0  0  0  0
    3.2675   32.6441   61.6766 H   0  0  0  0  0  0  0  0  0  0  0  0
    4.6665   31.5174   61.6766 H   0  0  0  0  0  0  0  0  0  0  0  0
    4.9700   34.0000   62.1350 H   0  0  0  0  0  0  0  0  0  0  0  0
    4.7830   33.4194   64.9881 H   0  0  0  0  0  0  0  0  0  0  0  0
    4.5641   34.9665   64.1020 H   0  0  0  0  0  0  0  0  0  0  0  0
    3.2534   33.7383   64.1020 H   0  0  0  0  0  0  0  0  0  0  0  0
    6.6280   32.7673   64.0892 H   0  0  0  0  0  0  0  0  0  0  0  0
    6.5298   31.8714   62.5361 H   0  0  0  0  0  0  0  0  0  0  0  0
    8.8018   36.6737   62.3742 H   0  0  0  0  0  0  0  0  0  0  0  0
    8.5533   35.6279   59.9454 H   0  0  0  0  0  0  0  0  0  0  0  0
    9.2750   32.0406   60.1117 H   0  0  0  0  0  0  0  0  0  0  0  0
    8.8189   30.4535   58.2404 H   0  0  0  0  0  0  0  0  0  0  0  0
    6.4180   30.7480   55.9070 H   0  0  0  0  0  0  0  0  0  0  0  0
    3.3768   28.7627   55.9820 H   0  0  0  0  0  0  0  0  0  0  0  0
    8.1103   26.5360   56.0219 H   0  0  0  0  0  0  0  0  0  0  0  0
   10.5487   26.3429   55.4731 H   0  0  0  0  0  0  0  0  0  0  0  0
   12.4370   28.3670   51.4590 H   0  0  0  0  0  0  0  0  0  0  0  0
   10.3380   29.3090   49.7240 H   0  0  0  0  0  0  0  0  0  0  0  0
    9.2720   30.1980   50.7570 H   0  0  0  0  0  0  0  0  0  0  0  0
    7.3987   28.9241   52.4725 H   0  0  0  0  0  0  0  0  0  0  0  0
    5.3728   33.8252   59.5470 H   0  0  0  0  0  0  0  0  0  0  0  0
  1  2  1  0
  2  3  1  0
  2  4  1  0
  4  5  1  0
  5  6  2  0
  6  7  1  0
  7  8  2  0
  8  9  1  0
  9 10  1  0
 10 11  2  0
 11 12  1  0
 12 13  2  0
 13 14  1  0
 14 15  1  0
 15 16  2  0
 15 17  1  0
 17 18  2  0
 18 19  1  0
 19 20  1  0
 20 21  1  0
 20 22  1  0
 20 23  1  0
 19 24  2  0
 24 25  1  0
 25 26  1  0
 26 27  2  0
 27 28  1  0
 28 29  2  0
 29 30  1  0
 30 31  1  0
 31 32  2  0
 32 33  1  0
 32 34  1  0
 34 35  2  0
 13 36  1  0
 36 37  1  0
 36 38  2  0
  9  5  1  0
 38 10  1  0
 25 17  1  0
 35 26  1  0
 34 29  1  0
  1 39  1  0
  1 40  1  0
  1 41  1  0
  2 42  1  0
  3 43  1  0
  3 44  1  0
  3 45  1  0
  4 46  1  0
  4 47  1  0
  7 48  1  0
  8 49  1  0
 11 50  1  0
 12 51  1  0
 14 52  1  0
 18 53  1  0
 27 54  1  0
 28 55  1  0
 31 56  1  0
 33 57  1  0
 33 58  1  0
 35 59  1  0
 38 60  1  0
M  CHG  2   2   1  31   1
M  END
>  <meeko>  (3) 
{"is_sidechain": [false], "free_energy": -10.262, "intermolecular_energy": -14.453, "internal_energy": -1.557}

$$$$
1z6e_ligand
     RDKit          3D

 60 64  0  0  0  0  0  0  0  0999 V2000
    6.2700   34.8580   64.5860 C   0  0  0  0  0  0  0  0  0  0  0  0
    6.9750   34.3550   63.3620 N   0  0  0  0  0  0  0  0  0  0  0  0
    6.5230   32.9940   62.9520 C   0  0  0  0  0  0  0  0  0  0  0  0
    6.9910   35.3670   62.2260 C   0  0  0  0  0  0  0  0  0  0  0  0
    8.3660   35.4420   61.6490 C   0  0  0  0  0  0  0  0  0  0  0  0
    9.2910   36.2250   62.1820 N   0  0  0  0  0  0  0  0  0  0  0  0
   10.3400   36.2020   61.3110 C   0  0  0  0  0  0  0  0  0  0  0  0
   10.0500   35.4010   60.2350 C   0  0  0  0  0  0  0  0  0  0  0  0
    8.8060   34.8520   60.4680 N   0  0  0  0  0  0  0  0  0  0  0  0
    8.1570   33.9060   59.6260 C   0  0  0  0  0  0  0  0  0  0  0  0
    8.4380   32.5340   59.7050 C   0  0  0  0  0  0  0  0  0  0  0  0
    7.7920   31.6190   58.8550 C   0  0  0  0  0  0  0  0  0  0  0  0
    6.8540   32.0600   57.9230 C   0  0  0  0  0  0  0  0  0  0  0  0
    6.1140   31.2190   57.0620 N   0  0  0  0  0  0  0  0  0  0  0  0
    5.0690   30.3720   57.3840 C   0  0  0  0  0  0  0  0  0  0  0  0
    4.7530   30.0850   58.5330 O   0  0  0  0  0  0  0  0  0  0  0  0
    4.3720   29.8500   56.2260 C   0  0  0  0  0  0  0  0  0  0  0  0
    3.0530   30.0880   55.8570 C   0  0  0  0  0  0  0  0  0  0  0  0
    2.7570   29.1880   54.8110 C   0  0  0  0  0  0  0  0  0  0  0  0
    1.4310   29.0160   54.1080 C   0  0  0  0  0  0  0  0  0  0  0  0
    0.5320   28.3410   54.8650 F   0  0  0  0  0  0  0  0  0  0  0  0
    1.5590   28.3520   52.9310 F   0  0  0  0  0  0  0  0  0  0  0  0
    0.8720   30.2220   53.8170 F   0  0  0  0  0  0  0  0  0  0  0  0
    3.8340   28.4410   54.5290 N   0  0  0  0  0  0  0  0  0  0  0  0
    4.8400   28.9060   55.3170 N   0  0  0  0  0  0  0  0  0  0  0  0
    6.1630   28.4220   55.0440 C   0  0  0  0  0  0  0  0  0  0  0  0
    6.5960   28.3880   53.7010 C   0  0  0  0  0  0  0  0  0  0  0  0
    7.8800   27.9670   53.3350 C   0  0  0  0  0  0  0  0  0  0  0  0
    8.7340   27.5930   54.3670 C   0  0  0  0  0  0  0  0  0  0  0  0
   10.0320   27.1670   54.1880 O   0  0  0  0  0  0  0  0  0  0  0  0
   10.5110   26.9180   55.5100 N   0  0  0  0  0  0  0  0  0  0  0  0
    9.5190   27.1880   56.4150 C   0  0  0  0  0  0  0  0  0  0  0  0
    9.6680   27.0460   57.7870 N   0  0  0  0  0  0  0  0  0  0  0  0
    8.3520   27.6250   55.7240 C   0  0  0  0  0  0  0  0  0  0  0  0
    7.0500   28.0510   56.0690 C   0  0  0  0  0  0  0  0  0  0  0  0
    6.5890   33.4300   57.8490 C   0  0  0  0  0  0  0  0  0  0  0  0
    5.6800   33.8760   56.9670 F   0  0  0  0  0  0  0  0  0  0  0  0
    7.2340   34.3520   58.6710 C   0  0  0  0  0  0  0  0  0  0  0  0
    6.7868   34.4893   65.4843 H   0  0  0  0  0  0  0  0  0  0  0  0
    6.2747   35.9580   64.5858 H   0  0  0  0  0  0  0  0  0  0  0  0
    5.2314   34.4957   64.5858 H   0  0  0  0  0  0  0  0  0  0  0  0
    7.9740   34.2920   63.6310 H   0  0  0  0  0  0  0  0  0  0  0  0
    6.3220   32.3889   63.8484 H   0  0  0  0  0  0  0  0  0  0  0  0
    5.6044   33.0778   62.3526 H   0  0  0  0  0  0  0  0  0  0  0  0
    7.3092   32.5116   62.3526 H   0  0  0  0  0  0  0  0  0  0  0  0
    6.2819   35.0540   61.4455 H   0  0  0  0  0  0  0  0  0  0  0  0
    6.6989   36.3555   62.6100 H   0  0  0  0  0  0  0  0  0  0  0  0
   11.2846   36.7480   61.4510 H   0  0  0  0  0  0  0  0  0  0  0  0
   10.6875   35.2295   59.3551 H   0  0  0  0  0  0  0  0  0  0  0  0
    9.1714   32.1701   60.4396 H   0  0  0  0  0  0  0  0  0  0  0  0
    8.0286   30.5471   58.9261 H   0  0  0  0  0  0  0  0  0  0  0  0
    6.4130   31.2470   56.0920 H   0  0  0  0  0  0  0  0  0  0  0  0
    2.3724   30.8329   56.2951 H   0  0  0  0  0  0  0  0  0  0  0  0
    5.8980   28.7044   52.9119 H   0  0  0  0  0  0  0  0  0  0  0  0
    8.1979   27.9336   52.2825 H   0  0  0  0  0  0  0  0  0  0  0  0
   11.4600   26.5950   55.6510 H   0  0  0  0  0  0  0  0  0  0  0  0
   10.3310   27.5790   58.3410 H   0  0  0  0  0  0  0  0  0  0  0  0
    9.0870   26.3770   58.2880 H   0  0  0  0  0  0  0  0  0  0  0  0
    6.7357   28.0916   57.1224 H   0  0  0  0  0  0  0  0  0  0  0  0
    7.0192   35.4261   58.5704 H   0  0  0  0  0  0  0  0  0  0  0  0
  1  2  1  0
  2  3  1  0
  2  4  1  0
  4  5  1  0
  5  6  2  0
  6  7  1  0
  7  8  2  0
  8  9  1  0
  9 10  1  0
 10 11  2  0
 11 12  1  0
 12 13  2  0
 13 14  1  0
 14 15  1  0
 15 16  2  0
 15 17  1  0
 17 18  2  0
 18 19  1  0
 19 20  1  0
 20 21  1  0
 20 22  1  0
 20 23  1  0
 19 24  2  0
 24 25  1  0
 25 26  1  0
 26 27  2  0
 27 28  1  0
 28 29  2  0
 29 30  1  0
 30 31  1  0
 31 32  2  0
 32 33  1  0
 32 34  1  0
 34 35  2  0
 13 36  1  0
 36 37  1  0
 36 38  2  0
  9  5  1  0
 38 10  1  0
 25 17  1  0
 35 26  1  0
 34 29  1  0
  1 39  1  0
  1 40  1  0
  1 41  1  0
  2 42  1  0
  3 43  1  0
  3 44  1  0
  3 45  1  0
  4 46  1  0
  4 47  1  0
  7 48  1  0
  8 49  1  0
 11 50  1  0
 12 51  1  0
 14 52  1  0
 18 53  1  0
 27 54  1  0
 28 55  1  0
 31 56  1  0
 33 57  1  0
 33 58  1  0
 35 59  1  0
 38 60  1  0
M  CHG  2   2   1  31   1
M  END
>  <meeko>  (4) 
{"is_sidechain": [false], "free_energy": -9.683, "intermolecular_energy": -13.802, "internal_energy": -1.374}

$$$$
1z6e_ligand
     RDKit          3D

 60 64  0  0  0  0  0  0  0  0999 V2000
    9.7790   36.7280   62.0910 C   0  0  0  0  0  0  0  0  0  0  0  0
    9.1020   35.5960   61.3800 N   0  0  0  0  0  0  0  0  0  0  0  0
   10.0300   34.8250   60.5020 C   0  0  0  0  0  0  0  0  0  0  0  0
    8.2660   34.7250   62.3060 C   0  0  0  0  0  0  0  0  0  0  0  0
    6.8210   34.8880   61.9690 C   0  0  0  0  0  0  0  0  0  0  0  0
    6.0800   35.8120   62.5610 N   0  0  0  0  0  0  0  0  0  0  0  0
    4.7970   35.5590   62.1750 C   0  0  0  0  0  0  0  0  0  0  0  0
    4.7550   34.4670   61.3440 C   0  0  0  0  0  0  0  0  0  0  0  0
    6.0590   34.0610   61.1500 N   0  0  0  0  0  0  0  0  0  0  0  0
    6.4690   32.9990   60.2950 C   0  0  0  0  0  0  0  0  0  0  0  0
    6.4270   31.6600   60.7120 C   0  0  0  0  0  0  0  0  0  0  0  0
    6.8470   30.6280   59.8540 C   0  0  0  0  0  0  0  0  0  0  0  0
    7.3070   30.9180   58.5710 C   0  0  0  0  0  0  0  0  0  0  0  0
    7.7010   29.9540   57.6170 N   0  0  0  0  0  0  0  0  0  0  0  0
    6.9650   28.8980   57.1120 C   0  0  0  0  0  0  0  0  0  0  0  0
    5.8930   28.5300   57.5800 O   0  0  0  0  0  0  0  0  0  0  0  0
    7.5800   28.2600   55.9670 C   0  0  0  0  0  0  0  0  0  0  0  0
    8.9020   27.8500   55.8390 C   0  0  0  0  0  0  0  0  0  0  0  0
    9.0910   27.5110   54.4830 C   0  0  0  0  0  0  0  0  0  0  0  0
   10.3760   27.0590   53.8290 C   0  0  0  0  0  0  0  0  0  0  0  0
   10.6930   25.7800   54.1470 F   0  0  0  0  0  0  0  0  0  0  0  0
   11.4290   27.8420   54.1760 F   0  0  0  0  0  0  0  0  0  0  0  0
   10.2800   27.1130   52.4730 F   0  0  0  0  0  0  0  0  0  0  0  0
    7.9480   27.6810   53.8030 N   0  0  0  0  0  0  0  0  0  0  0  0
    7.0080   28.0410   54.7170 N   0  0  0  0  0  0  0  0  0  0  0  0
    5.6430   28.0640   54.2780 C   0  0  0  0  0  0  0  0  0  0  0  0
    5.0870   26.8720   53.7660 C   0  0  0  0  0  0  0  0  0  0  0  0
    3.7540   26.7830   53.3470 C   0  0  0  0  0  0  0  0  0  0  0  0
    2.9800   27.9310   53.4730 C   0  0  0  0  0  0  0  0  0  0  0  0
    1.6500   28.0160   53.1210 O   0  0  0  0  0  0  0  0  0  0  0  0
    1.2830   29.3580   53.4420 N   0  0  0  0  0  0  0  0  0  0  0  0
    2.3660   30.0210   53.9550 C   0  0  0  0  0  0  0  0  0  0  0  0
    2.3360   31.3450   54.3650 N   0  0  0  0  0  0  0  0  0  0  0  0
    3.4860   29.1400   53.9920 C   0  0  0  0  0  0  0  0  0  0  0  0
    4.8340   29.2070   54.4070 C   0  0  0  0  0  0  0  0  0  0  0  0
    7.3510   32.2570   58.1710 C   0  0  0  0  0  0  0  0  0  0  0  0
    7.7780   32.5590   56.9340 F   0  0  0  0  0  0  0  0  0  0  0  0
    6.9560   33.2930   59.0150 C   0  0  0  0  0  0  0  0  0  0  0  0
    9.6921   36.5827   63.1779 H   0  0  0  0  0  0  0  0  0  0  0  0
   10.8418   36.7552   61.8085 H   0  0  0  0  0  0  0  0  0  0  0  0
    9.3001   37.6772   61.8085 H   0  0  0  0  0  0  0  0  0  0  0  0
    8.3880   36.0420   60.7750 H   0  0  0  0  0  0  0  0  0  0  0  0
   10.7274   34.2456   61.1248 H   0  0  0  0  0  0  0  0  0  0  0  0
    9.4494   34.1397   59.8670 H   0  0  0  0  0  0  0  0  0  0  0  0
   10.5973   35.5214   59.8670 H   0  0  0  0  0  0  0  0  0  0  0  0
    8.5558   33.6714   62.1797 H   0  0  0  0  0  0  0  0  0  0  0  0
    8.4366   35.0286   63.3494 H   0  0  0  0  0  0  0  0  0  0  0  0
    3.9202   36.1463   62.4853 H   0  0  0  0  0  0  0  0  0  0  0  0
    3.8540   34.0043   60.9150 H   0  0  0  0  0  0  0  0  0  0  0  0
    6.0618   31.4150   61.7203 H   0  0  0  0  0  0  0  0  0  0  0  0
    6.8121   29.5838   60.1983 H   0  0  0  0  0  0  0  0  0  0  0  0
    8.6540   30.0630   57.2820 H   0  0  0  0  0  0  0  0  0  0  0  0
    9.6546   27.7997   56.6397 H   0  0  0  0  0  0  0  0  0  0  0  0
    5.7252   25.9790   53.6934 H   0  0  0  0  0  0  0  0  0  0  0  0
    3.3392   25.8499   52.9379 H   0  0  0  0  0  0  0  0  0  0  0  0
    0.3340   29.6740   53.2790 H   0  0  0  0  0  0  0  0  0  0  0  0
    1.5380   31.7770   54.8200 H   0  0  0  0  0  0  0  0  0  0  0  0
    3.1520   31.9350   54.2150 H   0  0  0  0  0  0  0  0  0  0  0  0
    5.2447   30.1382   54.8244 H   0  0  0  0  0  0  0  0  0  0  0  0
    7.0263   34.3376   58.6774 H   0  0  0  0  0  0  0  0  0  0  0  0
  1  2  1  0
  2  3  1  0
  2  4  1  0
  4  5  1  0
  5  6  2  0
  6  7  1  0
  7  8  2  0
  8  9  1  0
  9 10  1  0
 10 11  2  0
 11 12  1  0
 12 13  2  0
 13 14  1  0
 14 15  1  0
 15 16  2  0
 15 17  1  0
 17 18  2  0
 18 19  1  0
 19 20  1  0
 20 21  1  0
 20 22  1  0
 20 23  1  0
 19 24  2  0
 24 25  1  0
 25 26  1  0
 26 27  2  0
 27 28  1  0
 28 29  2  0
 29 30  1  0
 30 31  1  0
 31 32  2  0
 32 33  1  0
 32 34  1  0
 34 35  2  0
 13 36  1  0
 36 37  1  0
 36 38  2  0
  9  5  1  0
 38 10  1  0
 25 17  1  0
 35 26  1  0
 34 29  1  0
  1 39  1  0
  1 40  1  0
  1 41  1  0
  2 42  1  0
  3 43  1  0
  3 44  1  0
  3 45  1  0
  4 46  1  0
  4 47  1  0
  7 48  1  0
  8 49  1  0
 11 50  1  0
 12 51  1  0
 14 52  1  0
 18 53  1  0
 27 54  1  0
 28 55  1  0
 31 56  1  0
 33 57  1  0
 33 58  1  0
 35 59  1  0
 38 60  1  0
M  CHG  2   2   1  31   1
M  END
>  <meeko>  (5) 
{"is_sidechain": [false], "free_energy": -9.041, "intermolecular_energy": -12.962, "internal_energy": -1.292}

$$$$
1z6e_ligand
     RDKit          3D

 60 64  0  0  0  0  0  0  0  0999 V2000
    3.5800   27.8300   55.4990 C   0  0  0  0  0  0  0  0  0  0  0  0
    4.6420   27.3490   54.5560 N   0  0  0  0  0  0  0  0  0  0  0  0
    4.0820   26.6650   53.3540 C   0  0  0  0  0  0  0  0  0  0  0  0
    5.6780   28.4150   54.2320 C   0  0  0  0  0  0  0  0  0  0  0  0
    6.9980   28.0110   54.8000 C   0  0  0  0  0  0  0  0  0  0  0  0
    7.8370   27.2510   54.1120 N   0  0  0  0  0  0  0  0  0  0  0  0
    8.8320   26.9180   54.9820 C   0  0  0  0  0  0  0  0  0  0  0  0
    8.5960   27.4760   56.2140 C   0  0  0  0  0  0  0  0  0  0  0  0
    7.4510   28.2370   56.0960 N   0  0  0  0  0  0  0  0  0  0  0  0
    6.8910   29.0410   57.1290 C   0  0  0  0  0  0  0  0  0  0  0  0
    6.0710   28.4950   58.1260 C   0  0  0  0  0  0  0  0  0  0  0  0
    5.5200   29.3130   59.1290 C   0  0  0  0  0  0  0  0  0  0  0  0
    5.7860   30.6800   59.1530 C   0  0  0  0  0  0  0  0  0  0  0  0
    5.3260   31.5760   60.1440 N   0  0  0  0  0  0  0  0  0  0  0  0
    5.6410   31.5980   61.4900 C   0  0  0  0  0  0  0  0  0  0  0  0
    6.2400   30.6960   62.0650 O   0  0  0  0  0  0  0  0  0  0  0  0
    5.1960   32.7990   62.1680 C   0  0  0  0  0  0  0  0  0  0  0  0
    4.0090   32.9830   62.8650 C   0  0  0  0  0  0  0  0  0  0  0  0
    3.9090   34.3640   63.1370 C   0  0  0  0  0  0  0  0  0  0  0  0
    2.7680   35.0750   63.8260 C   0  0  0  0  0  0  0  0  0  0  0  0
    2.1190   35.9300   62.9970 F   0  0  0  0  0  0  0  0  0  0  0  0
    3.1850   35.7850   64.9050 F   0  0  0  0  0  0  0  0  0  0  0  0
    1.8400   34.1870   64.2780 F   0  0  0  0  0  0  0  0  0  0  0  0
    4.9810   35.0060   62.6520 N   0  0  0  0  0  0  0  0  0  0  0  0
    5.8070   34.0490   62.1510 N   0  0  0  0  0  0  0  0  0  0  0  0
    7.1300   34.4570   61.7760 C   0  0  0  0  0  0  0  0  0  0  0  0
    7.7960   33.7180   60.7750 C   0  0  0  0  0  0  0  0  0  0  0  0
    9.0740   34.0590   60.3130 C   0  0  0  0  0  0  0  0  0  0  0  0
    9.6640   35.1830   60.8780 C   0  0  0  0  0  0  0  0  0  0  0  0
   10.9090   35.6650   60.5340 O   0  0  0  0  0  0  0  0  0  0  0  0
   11.0790   36.8250   61.3490 N   0  0  0  0  0  0  0  0  0  0  0  0
    9.9720   36.9990   62.1370 C   0  0  0  0  0  0  0  0  0  0  0  0
    9.8260   38.0390   63.0430 N   0  0  0  0  0  0  0  0  0  0  0  0
    9.0330   35.9610   61.8700 C   0  0  0  0  0  0  0  0  0  0  0  0
    7.7450   35.5980   62.3210 C   0  0  0  0  0  0  0  0  0  0  0  0
    6.5990   31.2130   58.1480 C   0  0  0  0  0  0  0  0  0  0  0  0
    6.8790   32.5260   58.1580 F   0  0  0  0  0  0  0  0  0  0  0  0
    7.1370   30.4200   57.1360 C   0  0  0  0  0  0  0  0  0  0  0  0
    3.9144   27.6785   56.5359 H   0  0  0  0  0  0  0  0  0  0  0  0
    3.3938   28.9003   55.3264 H   0  0  0  0  0  0  0  0  0  0  0  0
    2.6527   27.2640   55.3264 H   0  0  0  0  0  0  0  0  0  0  0  0
    5.1880   26.6510   55.0950 H   0  0  0  0  0  0  0  0  0  0  0  0
    3.4151   25.8505   53.6731 H   0  0  0  0  0  0  0  0  0  0  0  0
    3.5141   27.3891   52.7514 H   0  0  0  0  0  0  0  0  0  0  0  0
    4.9040   26.2512   52.7514 H   0  0  0  0  0  0  0  0  0  0  0  0
    5.7653   28.5225   53.1408 H   0  0  0  0  0  0  0  0  0  0  0  0
    5.3674   29.3750   54.6700 H   0  0  0  0  0  0  0  0  0  0  0  0
    9.7008   26.2911   54.7324 H   0  0  0  0  0  0  0  0  0  0  0  0
    9.2033   27.3421   57.1213 H   0  0  0  0  0  0  0  0  0  0  0  0
    5.8562   27.4162   58.1241 H   0  0  0  0  0  0  0  0  0  0  0  0
    4.8737   28.8694   59.9007 H   0  0  0  0  0  0  0  0  0  0  0  0
    4.6730   32.2760   59.8040 H   0  0  0  0  0  0  0  0  0  0  0  0
    3.2870   32.2035   63.1498 H   0  0  0  0  0  0  0  0  0  0  0  0
    7.2928   32.8413   60.3412 H   0  0  0  0  0  0  0  0  0  0  0  0
    9.5854   33.4658   59.5406 H   0  0  0  0  0  0  0  0  0  0  0  0
   11.9280   37.3730   61.2770 H   0  0  0  0  0  0  0  0  0  0  0  0
   10.2940   38.9360   62.9530 H   0  0  0  0  0  0  0  0  0  0  0  0
    9.2180   37.9190   63.8500 H   0  0  0  0  0  0  0  0  0  0  0  0
    7.2311   36.1982   63.0863 H   0  0  0  0  0  0  0  0  0  0  0  0
    7.7523   30.8752   56.3459 H   0  0  0  0  0  0  0  0  0  0  0  0
  1  2  1  0
  2  3  1  0
  2  4  1  0
  4  5  1  0
  5  6  2  0
  6  7  1  0
  7  8  2  0
  8  9  1  0
  9 10  1  0
 10 11  2  0
 11 12  1  0
 12 13  2  0
 13 14  1  0
 14 15  1  0
 15 16  2  0
 15 17  1  0
 17 18  2  0
 18 19  1  0
 19 20  1  0
 20 21  1  0
 20 22  1  0
 20 23  1  0
 19 24  2  0
 24 25  1  0
 25 26  1  0
 26 27  2  0
 27 28  1  0
 28 29  2  0
 29 30  1  0
 30 31  1  0
 31 32  2  0
 32 33  1  0
 32 34  1  0
 34 35  2  0
 13 36  1  0
 36 37  1  0
 36 38  2  0
  9  5  1  0
 38 10  1  0
 25 17  1  0
 35 26  1  0
 34 29  1  0
  1 39  1  0
  1 40  1  0
  1 41  1  0
  2 42  1  0
  3 43  1  0
  3 44  1  0
  3 45  1  0
  4 46  1  0
  4 47  1  0
  7 48  1  0
  8 49  1  0
 11 50  1  0
 12 51  1  0
 14 52  1  0
 18 53  1  0
 27 54  1  0
 28 55  1  0
 31 56  1  0
 33 57  1  0
 33 58  1  0
 35 59  1  0
 38 60  1  0
M  CHG  2   2   1  31   1
M  END
>  <meeko>  (6) 
{"is_sidechain": [false], "free_energy": -8.208, "intermolecular_energy": -11.916, "internal_energy": -1.139}

$$$$
