1a30_ligand
     RDKit          3D

 49 48  0  0  0  0  0  0  0  0999 V2000
    3.9690   23.5270    3.7590 C   0  0  0  0  0  0  0  0  0  0  0  0
    4.9600   24.6220    3.3500 C   0  0  0  0  0  0  0  0  0  0  0  0
    5.0950   24.6410    1.8270 C   0  0  0  0  0  0  0  0  0  0  0  0
    4.4910   25.9820    3.9090 C   0  0  0  0  0  0  0  0  0  0  0  0
    5.5210   26.7360    4.7710 C   0  0  2  0  0  0  0  0  0  0  0  0
    6.7690   25.9570    4.9120 N   0  0  0  0  0  0  0  0  0  0  0  0
    7.9900   26.4910    5.2460 C   0  0  0  0  0  0  0  0  0  0  0  0
    8.1810   27.6980    5.3990 O   0  0  0  0  0  0  0  0  0  0  0  0
    9.1140   25.4470    5.4310 C   0  0  2  0  0  0  0  0  0  0  0  0
   10.0880   25.9120    6.5180 C   0  0  0  0  0  0  0  0  0  0  0  0
   11.3380   25.0590    6.4630 C   0  0  0  0  0  0  0  0  0  0  0  0
   11.4280   24.1720    7.3750 O   0  0  0  0  0  0  0  0  0  0  0  0
   12.1970   25.3430    5.5920 O   0  0  0  0  0  0  0  0  0  0  0  0
    9.7990   25.2810    4.1420 N   0  0  0  0  0  0  0  0  0  0  0  0
    9.4680   24.2640    3.2720 C   0  0  0  0  0  0  0  0  0  0  0  0
    8.3630   23.7270    3.2470 O   0  0  0  0  0  0  0  0  0  0  0  0
   10.6520   23.7920    2.3930 C   0  0  1  0  0  0  0  0  0  0  0  0
   11.8400   24.6420    2.6540 N   0  0  0  0  0  0  0  0  0  0  0  0
   10.9900   22.3110    2.6540 C   0  0  0  0  0  0  0  0  0  0  0  0
   12.3060   21.9920    3.3690 C   0  0  0  0  0  0  0  0  0  0  0  0
   12.0950   21.7020    4.8480 C   0  0  0  0  0  0  0  0  0  0  0  0
   10.8680   21.6670    5.1740 O   0  0  0  0  0  0  0  0  0  0  0  0
   13.1280   21.5880    5.5460 O   0  0  0  0  0  0  0  0  0  0  0  0
    4.8120   26.9600    6.1530 C   0  0  0  0  0  0  0  0  0  0  0  0
    4.0310   26.0400    6.5340 O   0  0  0  0  0  0  0  0  0  0  0  0
    5.1120   28.0540    6.7250 O   0  0  0  0  0  0  0  0  0  0  0  0
    3.9176   23.4702    4.8563 H   0  0  0  0  0  0  0  0  0  0  0  0
    2.9731   23.7651    3.3571 H   0  0  0  0  0  0  0  0  0  0  0  0
    4.3049   22.5597    3.3571 H   0  0  0  0  0  0  0  0  0  0  0  0
    5.9542   24.4155    3.7731 H   0  0  0  0  0  0  0  0  0  0  0  0
    6.1503   24.7895    1.5543 H   0  0  0  0  0  0  0  0  0  0  0  0
    4.7411   23.6842    1.4156 H   0  0  0  0  0  0  0  0  0  0  0  0
    4.4908   25.4630    1.4156 H   0  0  0  0  0  0  0  0  0  0  0  0
    4.2264   26.6254    3.0570 H   0  0  0  0  0  0  0  0  0  0  0  0
    3.6452   25.7587    4.5758 H   0  0  0  0  0  0  0  0  0  0  0  0
    5.8227   27.6910    4.3160 H   0  0  0  0  0  0  0  0  0  0  0  0
    6.5830   24.9650    5.0570 H   0  0  0  0  0  0  0  0  0  0  0  0
    8.6963   24.4812    5.7516 H   0  0  0  0  0  0  0  0  0  0  0  0
   10.3537   26.9658    6.3479 H   0  0  0  0  0  0  0  0  0  0  0  0
    9.6150   25.8120    7.5061 H   0  0  0  0  0  0  0  0  0  0  0  0
   10.7340   25.6750    4.1250 H   0  0  0  0  0  0  0  0  0  0  0  0
   10.3570   23.8882    1.3377 H   0  0  0  0  0  0  0  0  0  0  0  0
   12.2820   25.0100    1.7710 H   0  0  0  0  0  0  0  0  0  0  0  0
   11.6460   25.4900    3.1830 H   0  0  0  0  0  0  0  0  0  0  0  0
   12.5730   24.0730    3.1440 H   0  0  0  0  0  0  0  0  0  0  0  0
   10.1760   21.8916    3.2635 H   0  0  0  0  0  0  0  0  0  0  0  0
   11.1076   21.8739    1.6514 H   0  0  0  0  0  0  0  0  0  0  0  0
   12.7627   21.1103    2.8958 H   0  0  0  0  0  0  0  0  0  0  0  0
   12.9605   22.8721    3.2851 H   0  0  0  0  0  0  0  0  0  0  0  0
  1  2  1  0
  2  3  1  0
  2  4  1  0
  4  5  1  0
  5  6  1  0
  6  7  1  0
  7  8  2  0
  7  9  1  0
  9 10  1  0
 10 11  1  0
 11 12  2  0
 11 13  1  0
  9 14  1  0
 14 15  1  0
 15 16  2  0
 15 17  1  0
 17 18  1  0
 17 19  1  0
 19 20  1  0
 20 21  1  0
 21 22  2  0
 21 23  1  0
  5 24  1  0
 24 25  2  0
 24 26  1  0
  1 27  1  0
  1 28  1  0
  1 29  1  0
  2 30  1  0
  3 31  1  0
  3 32  1  0
  3 33  1  0
  4 34  1  0
  4 35  1  0
  5 36  1  6
  6 37  1  0
  9 38  1  1
 10 39  1  0
 10 40  1  0
 14 41  1  0
 17 42  1  6
 18 43  1  0
 18 44  1  0
 18 45  1  0
 19 46  1  0
 19 47  1  0
 20 48  1  0
 20 49  1  0
M  CHG  4  13  -1  18   1  23  -1  26  -1
M  END
>  <meeko>  (1) 
{"is_sidechain": [false], "free_energy": -6.526, "intermolecular_energy": -11.294, "internal_energy": -2.286}

$$$$
1a30_ligand
     RDKit          3D

 49 48  0  0  0  0  0  0  0  0999 V2000
   14.4970   21.4030    8.7530 C   0  0  0  0  0  0  0  0  0  0  0  0
   13.4300   22.3970    8.2820 C   0  0  0  0  0  0  0  0  0  0  0  0
   13.3420   23.5550    9.2770 C   0  0  0  0  0  0  0  0  0  0  0  0
   13.7620   22.8790    6.8550 C   0  0  0  0  0  0  0  0  0  0  0  0
   12.6060   22.7990    5.8410 C   0  0  2  0  0  0  0  0  0  0  0  0
   11.4740   23.6530    6.2540 N   0  0  0  0  0  0  0  0  0  0  0  0
   11.4330   25.0190    6.1120 C   0  0  0  0  0  0  0  0  0  0  0  0
   12.3760   25.6820    5.6790 O   0  0  0  0  0  0  0  0  0  0  0  0
   10.0920   25.6640    6.5290 C   0  0  2  0  0  0  0  0  0  0  0  0
    9.2670   24.6720    7.3550 C   0  0  0  0  0  0  0  0  0  0  0  0
    8.7980   25.3530    8.6240 C   0  0  0  0  0  0  0  0  0  0  0  0
    7.5320   25.4130    8.7690 O   0  0  0  0  0  0  0  0  0  0  0  0
    9.6720   25.8590    9.3700 O   0  0  0  0  0  0  0  0  0  0  0  0
    9.3770   26.0590    5.3080 N   0  0  0  0  0  0  0  0  0  0  0  0
    8.3380   26.9640    5.3380 C   0  0  0  0  0  0  0  0  0  0  0  0
    8.2100   27.8200    6.2100 O   0  0  0  0  0  0  0  0  0  0  0  0
    7.2870   26.7360    4.2230 C   0  0  1  0  0  0  0  0  0  0  0  0
    7.5060   27.7070    3.1220 N   0  0  0  0  0  0  0  0  0  0  0  0
    7.3470   25.2940    3.6800 C   0  0  0  0  0  0  0  0  0  0  0  0
    8.0790   25.0580    2.3560 C   0  0  0  0  0  0  0  0  0  0  0  0
    9.3170   24.1920    2.5360 C   0  0  0  0  0  0  0  0  0  0  0  0
    9.3620   23.6260    3.6720 O   0  0  0  0  0  0  0  0  0  0  0  0
   10.1360   24.1870    1.5890 O   0  0  0  0  0  0  0  0  0  0  0  0
   12.2070   21.2820    5.7950 C   0  0  0  0  0  0  0  0  0  0  0  0
   13.0490   20.4990    5.2660 O   0  0  0  0  0  0  0  0  0  0  0  0
   11.0690   21.0240    6.2980 O   0  0  0  0  0  0  0  0  0  0  0  0
   14.5191   21.3824    9.8526 H   0  0  0  0  0  0  0  0  0  0  0  0
   14.2567   20.3994    8.3723 H   0  0  0  0  0  0  0  0  0  0  0  0
   15.4811   21.7137    8.3723 H   0  0  0  0  0  0  0  0  0  0  0  0
   12.4440   21.9108    8.2442 H   0  0  0  0  0  0  0  0  0  0  0  0
   13.3720   23.1598   10.3031 H   0  0  0  0  0  0  0  0  0  0  0  0
   14.1909   24.2371    9.1218 H   0  0  0  0  0  0  0  0  0  0  0  0
   12.3998   24.1010    9.1218 H   0  0  0  0  0  0  0  0  0  0  0  0
   14.0846   23.9287    6.9186 H   0  0  0  0  0  0  0  0  0  0  0  0
   14.5396   22.1973    6.4799 H   0  0  0  0  0  0  0  0  0  0  0  0
   12.9012   23.1669    4.8473 H   0  0  0  0  0  0  0  0  0  0  0  0
   10.6110   23.1190    6.3530 H   0  0  0  0  0  0  0  0  0  0  0  0
   10.2675   26.5512    7.1552 H   0  0  0  0  0  0  0  0  0  0  0  0
    8.3956   24.3414    6.7707 H   0  0  0  0  0  0  0  0  0  0  0  0
    9.8848   23.7983    7.6100 H   0  0  0  0  0  0  0  0  0  0  0  0
    9.4200   25.3640    4.5690 H   0  0  0  0  0  0  0  0  0  0  0  0
    6.2874   26.8906    4.6554 H   0  0  0  0  0  0  0  0  0  0  0  0
    6.9140   28.5740    3.2180 H   0  0  0  0  0  0  0  0  0  0  0  0
    8.4520   28.0810    3.0700 H   0  0  0  0  0  0  0  0  0  0  0  0
    7.2450   27.2620    2.2100 H   0  0  0  0  0  0  0  0  0  0  0  0
    7.8431   24.6767    4.4434 H   0  0  0  0  0  0  0  0  0  0  0  0
    6.2994   25.0353    3.4665 H   0  0  0  0  0  0  0  0  0  0  0  0
    7.3941   24.5574    1.6558 H   0  0  0  0  0  0  0  0  0  0  0  0
    8.4013   26.0351    1.9670 H   0  0  0  0  0  0  0  0  0  0  0  0
  1  2  1  0
  2  3  1  0
  2  4  1  0
  4  5  1  0
  5  6  1  0
  6  7  1  0
  7  8  2  0
  7  9  1  0
  9 10  1  0
 10 11  1  0
 11 12  2  0
 11 13  1  0
  9 14  1  0
 14 15  1  0
 15 16  2  0
 15 17  1  0
 17 18  1  0
 17 19  1  0
 19 20  1  0
 20 21  1  0
 21 22  2  0
 21 23  1  0
  5 24  1  0
 24 25  2  0
 24 26  1  0
  1 27  1  0
  1 28  1  0
  1 29  1  0
  2 30  1  0
  3 31  1  0
  3 32  1  0
  3 33  1  0
  4 34  1  0
  4 35  1  0
  5 36  1  6
  6 37  1  0
  9 38  1  1
 10 39  1  0
 10 40  1  0
 14 41  1  0
 17 42  1  1
 18 43  1  0
 18 44  1  0
 18 45  1  0
 19 46  1  0
 19 47  1  0
 20 48  1  0
 20 49  1  0
M  CHG  4  13  -1  18   1  23  -1  26  -1
M  END
>  <meeko>  (2) 
{"is_sidechain": [false], "free_energy": -6.523, "intermolecular_energy": -11.812, "internal_energy": -1.762}

$$$$
1a30_ligand
     RDKit          3D

 49 48  0  0  0  0  0  0  0  0999 V2000
    9.6490   22.1840    1.9830 C   0  0  0  0  0  0  0  0  0  0  0  0
   10.3480   23.5360    2.1660 C   0  0  0  0  0  0  0  0  0  0  0  0
    9.3100   24.6570    2.0990 C   0  0  0  0  0  0  0  0  0  0  0  0
   11.1260   23.5420    3.4980 C   0  0  0  0  0  0  0  0  0  0  0  0
   10.3940   22.9120    4.6980 C   0  0  2  0  0  0  0  0  0  0  0  0
    9.8320   23.9530    5.5840 N   0  0  0  0  0  0  0  0  0  0  0  0
   10.5100   25.0690    6.0070 C   0  0  0  0  0  0  0  0  0  0  0  0
   11.6930   25.2840    5.7380 O   0  0  0  0  0  0  0  0  0  0  0  0
    9.6610   26.0530    6.8440 C   0  0  2  0  0  0  0  0  0  0  0  0
    9.7850   25.7170    8.3330 C   0  0  0  0  0  0  0  0  0  0  0  0
    8.4430   25.9260    9.0030 C   0  0  0  0  0  0  0  0  0  0  0  0
    7.7180   24.8810    9.1010 O   0  0  0  0  0  0  0  0  0  0  0  0
    8.1310   27.0990    9.3260 O   0  0  0  0  0  0  0  0  0  0  0  0
    8.2680   25.9520    6.3920 N   0  0  0  0  0  0  0  0  0  0  0  0
    7.6440   26.9870    5.7290 C   0  0  0  0  0  0  0  0  0  0  0  0
    8.2490   27.8360    5.0790 O   0  0  0  0  0  0  0  0  0  0  0  0
    6.1140   27.0390    5.9620 C   0  0  1  0  0  0  0  0  0  0  0  0
    5.7570   28.2920    6.6720 N   0  0  0  0  0  0  0  0  0  0  0  0
    5.3400   26.9430    4.6320 C   0  0  0  0  0  0  0  0  0  0  0  0
    5.8340   25.9410    3.5850 C   0  0  0  0  0  0  0  0  0  0  0  0
    6.0340   26.5910    2.2240 C   0  0  0  0  0  0  0  0  0  0  0  0
    5.5370   25.9110    1.2740 O   0  0  0  0  0  0  0  0  0  0  0  0
    6.6870   27.6590    2.2080 O   0  0  0  0  0  0  0  0  0  0  0  0
   11.4780   22.0450    5.4300 C   0  0  0  0  0  0  0  0  0  0  0  0
   11.0620   21.3180    6.3790 O   0  0  0  0  0  0  0  0  0  0  0  0
   12.6560   22.1850    4.9750 O   0  0  0  0  0  0  0  0  0  0  0  0
    9.4250   21.7506    2.9689 H   0  0  0  0  0  0  0  0  0  0  0  0
    8.7124   22.3281    1.4244 H   0  0  0  0  0  0  0  0  0  0  0  0
   10.3081   21.5031    1.4244 H   0  0  0  0  0  0  0  0  0  0  0  0
   11.0754   23.7033    1.3580 H   0  0  0  0  0  0  0  0  0  0  0  0
    9.0303   24.9591    3.1190 H   0  0  0  0  0  0  0  0  0  0  0  0
    9.7356   25.5193    1.5649 H   0  0  0  0  0  0  0  0  0  0  0  0
    8.4175   24.2989    1.5649 H   0  0  0  0  0  0  0  0  0  0  0  0
   12.0640   22.9882    3.3448 H   0  0  0  0  0  0  0  0  0  0  0  0
   11.2726   24.6011    3.7566 H   0  0  0  0  0  0  0  0  0  0  0  0
    9.5358   22.2994    4.3847 H   0  0  0  0  0  0  0  0  0  0  0  0
    8.8120   23.9350    5.5910 H   0  0  0  0  0  0  0  0  0  0  0  0
   10.0167   27.0848    6.7069 H   0  0  0  0  0  0  0  0  0  0  0  0
   10.0950   24.6680    8.4491 H   0  0  0  0  0  0  0  0  0  0  0  0
   10.5369   26.3712    8.7986 H   0  0  0  0  0  0  0  0  0  0  0  0
    7.7140   25.2900    6.9260 H   0  0  0  0  0  0  0  0  0  0  0  0
    5.8304   26.1741    6.5796 H   0  0  0  0  0  0  0  0  0  0  0  0
    6.5610   28.9710    6.7320 H   0  0  0  0  0  0  0  0  0  0  0  0
    5.0280   28.8410    6.2200 H   0  0  0  0  0  0  0  0  0  0  0  0
    5.4790   28.0660    7.6570 H   0  0  0  0  0  0  0  0  0  0  0  0
    4.3013   26.6758    4.8763 H   0  0  0  0  0  0  0  0  0  0  0  0
    5.4809   27.9265    4.1599 H   0  0  0  0  0  0  0  0  0  0  0  0
    6.7926   25.5193    3.9215 H   0  0  0  0  0  0  0  0  0  0  0  0
    5.0701   25.1568    3.4781 H   0  0  0  0  0  0  0  0  0  0  0  0
  1  2  1  0
  2  3  1  0
  2  4  1  0
  4  5  1  0
  5  6  1  0
  6  7  1  0
  7  8  2  0
  7  9  1  0
  9 10  1  0
 10 11  1  0
 11 12  2  0
 11 13  1  0
  9 14  1  0
 14 15  1  0
 15 16  2  0
 15 17  1  0
 17 18  1  0
 17 19  1  0
 19 20  1  0
 20 21  1  0
 21 22  2  0
 21 23  1  0
  5 24  1  0
 24 25  2  0
 24 26  1  0
  1 27  1  0
  1 28  1  0
  1 29  1  0
  2 30  1  0
  3 31  1  0
  3 32  1  0
  3 33  1  0
  4 34  1  0
  4 35  1  0
  5 36  1  6
  6 37  1  0
  9 38  1  1
 10 39  1  0
 10 40  1  0
 14 41  1  0
 17 42  1  1
 18 43  1  0
 18 44  1  0
 18 45  1  0
 19 46  1  0
 19 47  1  0
 20 48  1  0
 20 49  1  0
M  CHG  4  13  -1  18   1  23  -1  26  -1
M  END
>  <meeko>  (3) 
{"is_sidechain": [false], "free_energy": -6.465, "intermolecular_energy": -11.973, "internal_energy": -1.503}

$$$$
1a30_ligand
     RDKit          3D

 49 48  0  0  0  0  0  0  0  0999 V2000
    9.3510   27.5390    8.8100 C   0  0  0  0  0  0  0  0  0  0  0  0
    8.5730   26.2190    8.7690 C   0  0  0  0  0  0  0  0  0  0  0  0
    7.1140   26.5010    8.4060 C   0  0  0  0  0  0  0  0  0  0  0  0
    9.2440   25.2500    7.7740 C   0  0  0  0  0  0  0  0  0  0  0  0
   10.0330   25.9140    6.6300 C   0  0  2  0  0  0  0  0  0  0  0  0
    9.3460   25.7340    5.3350 N   0  0  0  0  0  0  0  0  0  0  0  0
    8.5220   26.6650    4.7510 C   0  0  0  0  0  0  0  0  0  0  0  0
    8.2190   27.7310    5.2880 O   0  0  0  0  0  0  0  0  0  0  0  0
    8.0110   26.2740    3.3460 C   0  0  2  0  0  0  0  0  0  0  0  0
    6.8380   25.2970    3.4680 C   0  0  0  0  0  0  0  0  0  0  0  0
    5.5420   26.0790    3.5070 C   0  0  0  0  0  0  0  0  0  0  0  0
    5.4620   27.0350    2.6650 O   0  0  0  0  0  0  0  0  0  0  0  0
    4.7080   25.7790    4.3960 O   0  0  0  0  0  0  0  0  0  0  0  0
    9.1270   25.6720    2.6060 N   0  0  0  0  0  0  0  0  0  0  0  0
    9.1240   24.3400    2.2480 C   0  0  0  0  0  0  0  0  0  0  0  0
    8.0980   23.6830    2.0930 O   0  0  0  0  0  0  0  0  0  0  0  0
   10.5410   23.7210    2.1560 C   0  0  1  0  0  0  0  0  0  0  0  0
   11.5400   24.6690    2.7110 N   0  0  0  0  0  0  0  0  0  0  0  0
   10.6150   22.3740    2.9040 C   0  0  0  0  0  0  0  0  0  0  0  0
   10.4720   22.3930    4.4290 C   0  0  0  0  0  0  0  0  0  0  0  0
   11.7170   21.8610    5.1230 C   0  0  0  0  0  0  0  0  0  0  0  0
   11.4490   21.0790    6.0870 O   0  0  0  0  0  0  0  0  0  0  0  0
   12.8150   22.2900    4.7010 O   0  0  0  0  0  0  0  0  0  0  0  0
   11.4400   25.2190    6.6470 C   0  0  0  0  0  0  0  0  0  0  0  0
   11.6910   24.4930    7.6520 O   0  0  0  0  0  0  0  0  0  0  0  0
   12.1640   25.4770    5.6360 O   0  0  0  0  0  0  0  0  0  0  0  0
    9.5230   27.8309    9.8565 H   0  0  0  0  0  0  0  0  0  0  0  0
   10.3179   27.4107    8.3014 H   0  0  0  0  0  0  0  0  0  0  0  0
    8.7704   28.3228    8.3014 H   0  0  0  0  0  0  0  0  0  0  0  0
    8.5859   25.7368    9.7576 H   0  0  0  0  0  0  0  0  0  0  0  0
    6.5227   26.6153    9.3265 H   0  0  0  0  0  0  0  0  0  0  0  0
    7.0555   27.4271    7.8153 H   0  0  0  0  0  0  0  0  0  0  0  0
    6.7147   25.6634    7.8153 H   0  0  0  0  0  0  0  0  0  0  0  0
    9.9393   24.6120    8.3392 H   0  0  0  0  0  0  0  0  0  0  0  0
    8.4243   24.6961    7.2931 H   0  0  0  0  0  0  0  0  0  0  0  0
   10.1214   27.0021    6.7646 H   0  0  0  0  0  0  0  0  0  0  0  0
    9.7850   25.0070    4.7700 H   0  0  0  0  0  0  0  0  0  0  0  0
    7.6486   27.1607    2.8052 H   0  0  0  0  0  0  0  0  0  0  0  0
    6.8326   24.6184    2.6022 H   0  0  0  0  0  0  0  0  0  0  0  0
    6.9422   24.7072    4.3907 H   0  0  0  0  0  0  0  0  0  0  0  0
   10.0090   26.1570    2.7340 H   0  0  0  0  0  0  0  0  0  0  0  0
   10.7650   23.5307    1.0960 H   0  0  0  0  0  0  0  0  0  0  0  0
   12.2680   24.9550    2.0050 H   0  0  0  0  0  0  0  0  0  0  0  0
   11.1530   25.5610    3.0130 H   0  0  0  0  0  0  0  0  0  0  0  0
   12.0500   24.2120    3.5040 H   0  0  0  0  0  0  0  0  0  0  0  0
    9.8126   21.7345    2.5075 H   0  0  0  0  0  0  0  0  0  0  0  0
   11.6399   22.0159    2.7272 H   0  0  0  0  0  0  0  0  0  0  0  0
   10.2973   23.4284    4.7568 H   0  0  0  0  0  0  0  0  0  0  0  0
    9.6270   21.7429    4.7000 H   0  0  0  0  0  0  0  0  0  0  0  0
  1  2  1  0
  2  3  1  0
  2  4  1  0
  4  5  1  0
  5  6  1  0
  6  7  1  0
  7  8  2  0
  7  9  1  0
  9 10  1  0
 10 11  1  0
 11 12  2  0
 11 13  1  0
  9 14  1  0
 14 15  1  0
 15 16  2  0
 15 17  1  0
 17 18  1  0
 17 19  1  0
 19 20  1  0
 20 21  1  0
 21 22  2  0
 21 23  1  0
  5 24  1  0
 24 25  2  0
 24 26  1  0
  1 27  1  0
  1 28  1  0
  1 29  1  0
  2 30  1  0
  3 31  1  0
  3 32  1  0
  3 33  1  0
  4 34  1  0
  4 35  1  0
  5 36  1  1
  6 37  1  0
  9 38  1  6
 10 39  1  0
 10 40  1  0
 14 41  1  0
 17 42  1  6
 18 43  1  0
 18 44  1  0
 18 45  1  0
 19 46  1  0
 19 47  1  0
 20 48  1  0
 20 49  1  0
M  CHG  4  13  -1  18   1  23  -1  26  -1
M  END
>  <meeko>  (4) 
{"is_sidechain": [false], "free_energy": -6.445, "intermolecular_energy": -12.16, "internal_energy": -1.281}

$$$$
1a30_ligand
     RDKit          3D

 49 48  0  0  0  0  0  0  0  0999 V2000
   13.7740   23.3960    8.7070 C   0  0  0  0  0  0  0  0  0  0  0  0
   12.6430   23.3540    7.6730 C   0  0  0  0  0  0  0  0  0  0  0  0
   11.6040   24.4220    8.0150 C   0  0  0  0  0  0  0  0  0  0  0  0
   13.2260   23.5410    6.2570 C   0  0  0  0  0  0  0  0  0  0  0  0
   12.5530   22.7130    5.1470 C   0  0  2  0  0  0  0  0  0  0  0  0
   11.2320   23.2730    4.7920 N   0  0  0  0  0  0  0  0  0  0  0  0
   10.6990   23.2750    3.5270 C   0  0  0  0  0  0  0  0  0  0  0  0
   11.3050   22.8630    2.5360 O   0  0  0  0  0  0  0  0  0  0  0  0
    9.2580   23.8270    3.4420 C   0  0  2  0  0  0  0  0  0  0  0  0
    8.7020   23.6260    2.0300 C   0  0  0  0  0  0  0  0  0  0  0  0
    7.5210   24.5510    1.8250 C   0  0  0  0  0  0  0  0  0  0  0  0
    7.7740   25.6140    1.1670 O   0  0  0  0  0  0  0  0  0  0  0  0
    6.4350   24.2390    2.3740 O   0  0  0  0  0  0  0  0  0  0  0  0
    9.2920   25.2500    3.8010 N   0  0  0  0  0  0  0  0  0  0  0  0
    8.8560   25.6990    5.0290 C   0  0  0  0  0  0  0  0  0  0  0  0
    8.8390   24.9990    6.0390 O   0  0  0  0  0  0  0  0  0  0  0  0
    8.2920   27.1410    4.9960 C   0  0  1  0  0  0  0  0  0  0  0  0
    8.1090   27.5760    3.5890 N   0  0  0  0  0  0  0  0  0  0  0  0
    6.9570   27.2400    5.7610 C   0  0  0  0  0  0  0  0  0  0  0  0
    6.9100   28.1260    7.0090 C   0  0  0  0  0  0  0  0  0  0  0  0
    8.0310   27.7950    7.9830 C   0  0  0  0  0  0  0  0  0  0  0  0
    7.8110   26.7360    8.6490 O   0  0  0  0  0  0  0  0  0  0  0  0
    8.9790   28.6120    8.0390 O   0  0  0  0  0  0  0  0  0  0  0  0
   12.4350   21.2630    5.7330 C   0  0  0  0  0  0  0  0  0  0  0  0
   13.4890   20.5620    5.7060 O   0  0  0  0  0  0  0  0  0  0  0  0
   11.2780   20.9640    6.1660 O   0  0  0  0  0  0  0  0  0  0  0  0
   13.3455   23.3801    9.7200 H   0  0  0  0  0  0  0  0  0  0  0  0
   14.4274   22.5215    8.5715 H   0  0  0  0  0  0  0  0  0  0  0  0
   14.3607   24.3166    8.5715 H   0  0  0  0  0  0  0  0  0  0  0  0
   12.1397   22.3761    7.6957 H   0  0  0  0  0  0  0  0  0  0  0  0
   11.5166   24.5119    9.1078 H   0  0  0  0  0  0  0  0  0  0  0  0
   11.9177   25.3876    7.5916 H   0  0  0  0  0  0  0  0  0  0  0  0
   10.6301   24.1350    7.5916 H   0  0  0  0  0  0  0  0  0  0  0  0
   13.1330   24.6041    5.9901 H   0  0  0  0  0  0  0  0  0  0  0  0
   14.2657   23.1857    6.3098 H   0  0  0  0  0  0  0  0  0  0  0  0
   13.1343   22.7216    4.2132 H   0  0  0  0  0  0  0  0  0  0  0  0
   10.6260   23.3620    5.6080 H   0  0  0  0  0  0  0  0  0  0  0  0
    8.5964   23.2899    4.1376 H   0  0  0  0  0  0  0  0  0  0  0  0
    9.4830   23.8567    1.2905 H   0  0  0  0  0  0  0  0  0  0  0  0
    8.3803   22.5816    1.9041 H   0  0  0  0  0  0  0  0  0  0  0  0
    9.2680   25.8720    2.9990 H   0  0  0  0  0  0  0  0  0  0  0  0
    9.0146   27.8043    5.4939 H   0  0  0  0  0  0  0  0  0  0  0  0
    8.6970   28.4140    3.3400 H   0  0  0  0  0  0  0  0  0  0  0  0
    8.3870   26.8870    2.8940 H   0  0  0  0  0  0  0  0  0  0  0  0
    7.1090   27.8540    3.4390 H   0  0  0  0  0  0  0  0  0  0  0  0
    6.2041   27.6250    5.0575 H   0  0  0  0  0  0  0  0  0  0  0  0
    6.7795   26.2222    6.1386 H   0  0  0  0  0  0  0  0  0  0  0  0
    7.0049   29.1780    6.7019 H   0  0  0  0  0  0  0  0  0  0  0  0
    5.9518   27.9462    7.5185 H   0  0  0  0  0  0  0  0  0  0  0  0
  1  2  1  0
  2  3  1  0
  2  4  1  0
  4  5  1  0
  5  6  1  0
  6  7  1  0
  7  8  2  0
  7  9  1  0
  9 10  1  0
 10 11  1  0
 11 12  2  0
 11 13  1  0
  9 14  1  0
 14 15  1  0
 15 16  2  0
 15 17  1  0
 17 18  1  0
 17 19  1  0
 19 20  1  0
 20 21  1  0
 21 22  2  0
 21 23  1  0
  5 24  1  0
 24 25  2  0
 24 26  1  0
  1 27  1  0
  1 28  1  0
  1 29  1  0
  2 30  1  0
  3 31  1  0
  3 32  1  0
  3 33  1  0
  4 34  1  0
  4 35  1  0
  5 36  1  6
  6 37  1  0
  9 38  1  1
 10 39  1  0
 10 40  1  0
 14 41  1  0
 17 42  1  1
 18 43  1  0
 18 44  1  0
 18 45  1  0
 19 46  1  0
 19 47  1  0
 20 48  1  0
 20 49  1  0
M  CHG  4  13  -1  18   1  23  -1  26  -1
M  END
>  <meeko>  (5) 
{"is_sidechain": [false], "free_energy": -6.398, "intermolecular_energy": -11.477, "internal_energy": -1.883}

$$$$
1a30_ligand
     RDKit          3D

 49 48  0  0  0  0  0  0  0  0999 V2000
   13.4790   23.3630    7.0520 C   0  0  0  0  0  0  0  0  0  0  0  0
   12.3140   24.0010    6.2880 C   0  0  0  0  0  0  0  0  0  0  0  0
   11.8300   25.2400    7.0440 C   0  0  0  0  0  0  0  0  0  0  0  0
   12.7570   24.3340    4.8480 C   0  0  0  0  0  0  0  0  0  0  0  0
   11.8540   23.7790    3.7310 C   0  0  2  0  0  0  0  0  0  0  0  0
   10.5170   24.4060    3.7660 N   0  0  0  0  0  0  0  0  0  0  0  0
    9.7010   24.5700    2.6730 C   0  0  0  0  0  0  0  0  0  0  0  0
   10.0360   24.2630    1.5270 O   0  0  0  0  0  0  0  0  0  0  0  0
    8.3100   25.1600    2.9970 C   0  0  2  0  0  0  0  0  0  0  0  0
    7.5910   25.5480    1.7010 C   0  0  0  0  0  0  0  0  0  0  0  0
    7.2430   27.0210    1.7480 C   0  0  0  0  0  0  0  0  0  0  0  0
    8.1260   27.8010    1.2590 O   0  0  0  0  0  0  0  0  0  0  0  0
    6.1750   27.3480    2.3220 O   0  0  0  0  0  0  0  0  0  0  0  0
    8.5020   26.3280    3.8660 N   0  0  0  0  0  0  0  0  0  0  0  0
    8.4390   26.2260    5.2390 C   0  0  0  0  0  0  0  0  0  0  0  0
    8.6710   25.1880    5.8530 O   0  0  0  0  0  0  0  0  0  0  0  0
    7.9490   27.5210    5.9340 C   0  0  1  0  0  0  0  0  0  0  0  0
    6.4650   27.5490    5.9530 N   0  0  0  0  0  0  0  0  0  0  0  0
    8.5010   27.6320    7.3700 C   0  0  0  0  0  0  0  0  0  0  0  0
    7.6630   27.0420    8.5070 C   0  0  0  0  0  0  0  0  0  0  0  0
    8.3150   25.8070    9.1120 C   0  0  0  0  0  0  0  0  0  0  0  0
    7.5670   24.7820    9.0700 O   0  0  0  0  0  0  0  0  0  0  0  0
    9.4550   25.9650    9.6050 O   0  0  0  0  0  0  0  0  0  0  0  0
   11.7820   22.2340    3.9930 C   0  0  0  0  0  0  0  0  0  0  0  0
   10.6850   21.7970    4.4510 O   0  0  0  0  0  0  0  0  0  0  0  0
   12.8490   21.6040    3.7140 O   0  0  0  0  0  0  0  0  0  0  0  0
   13.3042   23.4587    8.1338 H   0  0  0  0  0  0  0  0  0  0  0  0
   13.5531   22.2984    6.7853 H   0  0  0  0  0  0  0  0  0  0  0  0
   14.4159   23.8739    6.7853 H   0  0  0  0  0  0  0  0  0  0  0  0
   11.4706   23.2981    6.2194 H   0  0  0  0  0  0  0  0  0  0  0  0
   11.9005   25.0596    8.1268 H   0  0  0  0  0  0  0  0  0  0  0  0
   12.4574   26.1024    6.7744 H   0  0  0  0  0  0  0  0  0  0  0  0
   10.7842   25.4488    6.7744 H   0  0  0  0  0  0  0  0  0  0  0  0
   12.7864   25.4290    4.7472 H   0  0  0  0  0  0  0  0  0  0  0  0
   13.7354   23.8496    4.7137 H   0  0  0  0  0  0  0  0  0  0  0  0
   12.2526   23.9977    2.7294 H   0  0  0  0  0  0  0  0  0  0  0  0
   10.1250   24.4130    4.7080 H   0  0  0  0  0  0  0  0  0  0  0  0
    7.6845   24.4172    3.5136 H   0  0  0  0  0  0  0  0  0  0  0  0
    8.2496   25.3525    0.8419 H   0  0  0  0  0  0  0  0  0  0  0  0
    6.6714   24.9536    1.5957 H   0  0  0  0  0  0  0  0  0  0  0  0
    8.2830   27.2110    3.4160 H   0  0  0  0  0  0  0  0  0  0  0  0
    8.3252   28.3819    5.3618 H   0  0  0  0  0  0  0  0  0  0  0  0
    6.0390   27.2900    5.0250 H   0  0  0  0  0  0  0  0  0  0  0  0
    6.0380   26.8830    6.5940 H   0  0  0  0  0  0  0  0  0  0  0  0
    6.1390   28.5200    6.1750 H   0  0  0  0  0  0  0  0  0  0  0  0
    9.4773   27.1255    7.3857 H   0  0  0  0  0  0  0  0  0  0  0  0
    8.5219   28.7126    7.5747 H   0  0  0  0  0  0  0  0  0  0  0  0
    7.5446   27.8025    9.2929 H   0  0  0  0  0  0  0  0  0  0  0  0
    6.6885   26.7442    8.0926 H   0  0  0  0  0  0  0  0  0  0  0  0
  1  2  1  0
  2  3  1  0
  2  4  1  0
  4  5  1  0
  5  6  1  0
  6  7  1  0
  7  8  2  0
  7  9  1  0
  9 10  1  0
 10 11  1  0
 11 12  2  0
 11 13  1  0
  9 14  1  0
 14 15  1  0
 15 16  2  0
 15 17  1  0
 17 18  1  0
 17 19  1  0
 19 20  1  0
 20 21  1  0
 21 22  2  0
 21 23  1  0
  5 24  1  0
 24 25  2  0
 24 26  1  0
  1 27  1  0
  1 28  1  0
  1 29  1  0
  2 30  1  0
  3 31  1  0
  3 32  1  0
  3 33  1  0
  4 34  1  0
  4 35  1  0
  5 36  1  6
  6 37  1  0
  9 38  1  1
 10 39  1  0
 10 40  1  0
 14 41  1  0
 17 42  1  6
 18 43  1  0
 18 44  1  0
 18 45  1  0
 19 46  1  0
 19 47  1  0
 20 48  1  0
 20 49  1  0
M  CHG  4  13  -1  18   1  23  -1  26  -1
M  END
>  <meeko>  (6) 
{"is_sidechain": [false], "free_energy": -6.342, "intermolecular_energy": -11.485, "internal_energy": -1.777}

$$$$
1a30_ligand
     RDKit          3D

 49 48  0  0  0  0  0  0  0  0999 V2000
   10.9270   23.7630    2.1570 C   0  0  0  0  0  0  0  0  0  0  0  0
   10.2760   22.8680    3.2170 C   0  0  0  0  0  0  0  0  0  0  0  0
    9.5170   21.7340    2.5260 C   0  0  0  0  0  0  0  0  0  0  0  0
   11.3550   22.3400    4.1850 C   0  0  0  0  0  0  0  0  0  0  0  0
   11.6050   23.2040    5.4350 C   0  0  2  0  0  0  0  0  0  0  0  0
   10.5530   24.2300    5.5920 N   0  0  0  0  0  0  0  0  0  0  0  0
   10.2800   24.8980    6.7610 C   0  0  0  0  0  0  0  0  0  0  0  0
   10.8520   24.6570    7.8260 O   0  0  0  0  0  0  0  0  0  0  0  0
    9.2010   25.9960    6.6330 C   0  0  2  0  0  0  0  0  0  0  0  0
    8.4060   26.1050    7.9380 C   0  0  0  0  0  0  0  0  0  0  0  0
    8.5330   27.5130    8.4800 C   0  0  0  0  0  0  0  0  0  0  0  0
    8.4180   27.6170    9.7460 O   0  0  0  0  0  0  0  0  0  0  0  0
    8.6600   28.4470    7.6500 O   0  0  0  0  0  0  0  0  0  0  0  0
    8.3260   25.6450    5.5070 N   0  0  0  0  0  0  0  0  0  0  0  0
    7.7230   26.6120    4.7300 C   0  0  0  0  0  0  0  0  0  0  0  0
    8.1730   27.7470    4.5910 O   0  0  0  0  0  0  0  0  0  0  0  0
    6.3690   26.1650    4.1260 C   0  0  1  0  0  0  0  0  0  0  0  0
    5.5040   27.3500    3.9020 N   0  0  0  0  0  0  0  0  0  0  0  0
    6.5690   25.3960    2.8040 C   0  0  0  0  0  0  0  0  0  0  0  0
    7.7480   25.7980    1.9130 C   0  0  0  0  0  0  0  0  0  0  0  0
    7.4350   27.0340    1.0810 C   0  0  0  0  0  0  0  0  0  0  0  0
    8.1920   28.0170    1.3540 O   0  0  0  0  0  0  0  0  0  0  0  0
    6.4680   26.9430    0.2910 O   0  0  0  0  0  0  0  0  0  0  0  0
   13.0190   23.8470    5.2120 C   0  0  0  0  0  0  0  0  0  0  0  0
   13.0320   25.0000    4.6900 O   0  0  0  0  0  0  0  0  0  0  0  0
   13.9910   23.1190    5.5860 O   0  0  0  0  0  0  0  0  0  0  0  0
   11.5047   24.5573    2.6524 H   0  0  0  0  0  0  0  0  0  0  0  0
   11.5981   23.1588    1.5289 H   0  0  0  0  0  0  0  0  0  0  0  0
   10.1455   24.2154    1.5289 H   0  0  0  0  0  0  0  0  0  0  0  0
    9.5520   23.4440    3.8119 H   0  0  0  0  0  0  0  0  0  0  0  0
    9.0745   21.0728    3.2856 H   0  0  0  0  0  0  0  0  0  0  0  0
    8.7190   22.1564    1.8977 H   0  0  0  0  0  0  0  0  0  0  0  0
   10.2117   21.1573    1.8977 H   0  0  0  0  0  0  0  0  0  0  0  0
   11.0478   21.3387    4.5212 H   0  0  0  0  0  0  0  0  0  0  0  0
   12.2982   22.3481    3.6190 H   0  0  0  0  0  0  0  0  0  0  0  0
   11.5756   22.6109    6.3609 H   0  0  0  0  0  0  0  0  0  0  0  0
   10.2700   24.6240    4.6950 H   0  0  0  0  0  0  0  0  0  0  0  0
    9.6651   26.9756    6.4457 H   0  0  0  0  0  0  0  0  0  0  0  0
    7.3470   25.8792    7.7440 H   0  0  0  0  0  0  0  0  0  0  0  0
    8.8007   25.3882    8.6731 H   0  0  0  0  0  0  0  0  0  0  0  0
    7.8970   24.7300    5.5950 H   0  0  0  0  0  0  0  0  0  0  0  0
    5.8821   25.4847    4.8403 H   0  0  0  0  0  0  0  0  0  0  0  0
    5.1060   27.3870    2.9270 H   0  0  0  0  0  0  0  0  0  0  0  0
    4.6730   27.3840    4.4900 H   0  0  0  0  0  0  0  0  0  0  0  0
    6.0710   28.2230    4.0310 H   0  0  0  0  0  0  0  0  0  0  0  0
    6.6983   24.3338    3.0591 H   0  0  0  0  0  0  0  0  0  0  0  0
    5.6771   25.6368    2.2069 H   0  0  0  0  0  0  0  0  0  0  0  0
    8.6194   26.0095    2.5501 H   0  0  0  0  0  0  0  0  0  0  0  0
    7.9536   24.9659    1.2235 H   0  0  0  0  0  0  0  0  0  0  0  0
  1  2  1  0
  2  3  1  0
  2  4  1  0
  4  5  1  0
  5  6  1  0
  6  7  1  0
  7  8  2  0
  7  9  1  0
  9 10  1  0
 10 11  1  0
 11 12  2  0
 11 13  1  0
  9 14  1  0
 14 15  1  0
 15 16  2  0
 15 17  1  0
 17 18  1  0
 17 19  1  0
 19 20  1  0
 20 21  1  0
 21 22  2  0
 21 23  1  0
  5 24  1  0
 24 25  2  0
 24 26  1  0
  1 27  1  0
  1 28  1  0
  1 29  1  0
  2 30  1  0
  3 31  1  0
  3 32  1  0
  3 33  1  0
  4 34  1  0
  4 35  1  0
  5 36  1  1
  6 37  1  0
  9 38  1  6
 10 39  1  0
 10 40  1  0
 14 41  1  0
 17 42  1  1
 18 43  1  0
 18 44  1  0
 18 45  1  0
 19 46  1  0
 19 47  1  0
 20 48  1  0
 20 49  1  0
M  CHG  4  13  -1  18   1  23  -1  26  -1
M  END
>  <meeko>  (7) 
{"is_sidechain": [false], "free_energy": -6.341, "intermolecular_energy": -11.643, "internal_energy": -1.618}

$$$$
1a30_ligand
     RDKit          3D

 49 48  0  0  0  0  0  0  0  0999 V2000
    7.1120   24.2580    1.7540 C   0  0  0  0  0  0  0  0  0  0  0  0
    7.2380   25.7470    2.0970 C   0  0  0  0  0  0  0  0  0  0  0  0
    7.4770   26.5440    0.8140 C   0  0  0  0  0  0  0  0  0  0  0  0
    5.9750   26.2160    2.8470 C   0  0  0  0  0  0  0  0  0  0  0  0
    6.2020   26.7060    4.2890 C   0  0  2  0  0  0  0  0  0  0  0  0
    7.3200   25.9800    4.9280 N   0  0  0  0  0  0  0  0  0  0  0  0
    8.2930   26.5660    5.6990 C   0  0  0  0  0  0  0  0  0  0  0  0
    8.3680   27.7820    5.8850 O   0  0  0  0  0  0  0  0  0  0  0  0
    9.2890   25.5700    6.3360 C   0  0  2  0  0  0  0  0  0  0  0  0
    9.7110   26.0650    7.7220 C   0  0  0  0  0  0  0  0  0  0  0  0
    8.5210   25.9970    8.6570 C   0  0  0  0  0  0  0  0  0  0  0  0
    8.2040   27.1020    9.2100 O   0  0  0  0  0  0  0  0  0  0  0  0
    8.0070   24.8700    8.8640 O   0  0  0  0  0  0  0  0  0  0  0  0
   10.4470   25.4500    5.4420 N   0  0  0  0  0  0  0  0  0  0  0  0
   10.5630   24.4120    4.5410 C   0  0  0  0  0  0  0  0  0  0  0  0
    9.5990   23.8010    4.0860 O   0  0  0  0  0  0  0  0  0  0  0  0
   12.0290   24.0200    4.2330 C   0  0  1  0  0  0  0  0  0  0  0  0
   12.9340   25.1370    4.6000 N   0  0  0  0  0  0  0  0  0  0  0  0
   12.4370   22.7360    4.9830 C   0  0  0  0  0  0  0  0  0  0  0  0
   11.7180   22.4140    6.2960 C   0  0  0  0  0  0  0  0  0  0  0  0
   12.4960   22.9070    7.5070 C   0  0  0  0  0  0  0  0  0  0  0  0
   12.5560   24.1740    7.5730 O   0  0  0  0  0  0  0  0  0  0  0  0
   13.0060   22.0270    8.2370 O   0  0  0  0  0  0  0  0  0  0  0  0
    4.8420   26.4490    5.0280 C   0  0  0  0  0  0  0  0  0  0  0  0
    4.0690   25.6000    4.4950 O   0  0  0  0  0  0  0  0  0  0  0  0
    4.6790   27.1390    6.0820 O   0  0  0  0  0  0  0  0  0  0  0  0
    7.0623   23.6707    2.6828 H   0  0  0  0  0  0  0  0  0  0  0  0
    6.1967   24.0932    1.1666 H   0  0  0  0  0  0  0  0  0  0  0  0
    7.9866   23.9418    1.1666 H   0  0  0  0  0  0  0  0  0  0  0  0
    8.0978   25.9153    2.7622 H   0  0  0  0  0  0  0  0  0  0  0  0
    7.7842   27.5686    1.0707 H   0  0  0  0  0  0  0  0  0  0  0  0
    8.2696   26.0604    0.2242 H   0  0  0  0  0  0  0  0  0  0  0  0
    6.5490   26.5764    0.2242 H   0  0  0  0  0  0  0  0  0  0  0  0
    5.5288   27.0427    2.2748 H   0  0  0  0  0  0  0  0  0  0  0  0
    5.3267   25.3311    2.9281 H   0  0  0  0  0  0  0  0  0  0  0  0
    6.4837   27.7687    4.3253 H   0  0  0  0  0  0  0  0  0  0  0  0
    7.1260   24.9820    5.0120 H   0  0  0  0  0  0  0  0  0  0  0  0
    8.8208   24.5830    6.4651 H   0  0  0  0  0  0  0  0  0  0  0  0
   10.5205   25.4289    8.1094 H   0  0  0  0  0  0  0  0  0  0  0  0
   10.0678   27.1032    7.6516 H   0  0  0  0  0  0  0  0  0  0  0  0
   11.2830   25.9060    5.7940 H   0  0  0  0  0  0  0  0  0  0  0  0
   12.1125   23.8196    3.1546 H   0  0  0  0  0  0  0  0  0  0  0  0
   12.4480   25.8960    5.1460 H   0  0  0  0  0  0  0  0  0  0  0  0
   13.7040   24.8730    5.2120 H   0  0  0  0  0  0  0  0  0  0  0  0
   13.3060   25.5840    3.7280 H   0  0  0  0  0  0  0  0  0  0  0  0
   12.2673   21.8901    4.3006 H   0  0  0  0  0  0  0  0  0  0  0  0
   13.4830   22.9086    5.2765 H   0  0  0  0  0  0  0  0  0  0  0  0
   10.7299   22.8973    6.2877 H   0  0  0  0  0  0  0  0  0  0  0  0
   11.6252   21.3207    6.3736 H   0  0  0  0  0  0  0  0  0  0  0  0
  1  2  1  0
  2  3  1  0
  2  4  1  0
  4  5  1  0
  5  6  1  0
  6  7  1  0
  7  8  2  0
  7  9  1  0
  9 10  1  0
 10 11  1  0
 11 12  2  0
 11 13  1  0
  9 14  1  0
 14 15  1  0
 15 16  2  0
 15 17  1  0
 17 18  1  0
 17 19  1  0
 19 20  1  0
 20 21  1  0
 21 22  2  0
 21 23  1  0
  5 24  1  0
 24 25  2  0
 24 26  1  0
  1 27  1  0
  1 28  1  0
  1 29  1  0
  2 30  1  0
  3 31  1  0
  3 32  1  0
  3 33  1  0
  4 34  1  0
  4 35  1  0
  5 36  1  6
  6 37  1  0
  9 38  1  1
 10 39  1  0
 10 40  1  0
 14 41  1  0
 17 42  1  6
 18 43  1  0
 18 44  1  0
 18 45  1  0
 19 46  1  0
 19 47  1  0
 20 48  1  0
 20 49  1  0
M  CHG  4  13  -1  18   1  23  -1  26  -1
M  END
>  <meeko>  (8) 
{"is_sidechain": [false], "free_energy": -6.268, "intermolecular_energy": -11.272, "internal_energy": -1.862}

$$$$
1a30_ligand
     RDKit          3D

 49 48  0  0  0  0  0  0  0  0999 V2000
    4.8260   23.6450    3.3450 C   0  0  0  0  0  0  0  0  0  0  0  0
    5.1990   24.3720    2.0490 C   0  0  0  0  0  0  0  0  0  0  0  0
    3.9240   24.8130    1.3290 C   0  0  0  0  0  0  0  0  0  0  0  0
    6.1290   25.5610    2.3680 C   0  0  0  0  0  0  0  0  0  0  0  0
    7.4830   25.5610    1.6350 C   0  0  2  0  0  0  0  0  0  0  0  0
    8.5940   25.2880    2.5710 N   0  0  0  0  0  0  0  0  0  0  0  0
    9.0910   24.0390    2.8510 C   0  0  0  0  0  0  0  0  0  0  0  0
    8.6100   23.0010    2.3930 O   0  0  0  0  0  0  0  0  0  0  0  0
   10.3230   24.0360    3.7840 C   0  0  2  0  0  0  0  0  0  0  0  0
   11.2390   22.8590    3.4380 C   0  0  0  0  0  0  0  0  0  0  0  0
   11.8320   22.3000    4.7150 C   0  0  0  0  0  0  0  0  0  0  0  0
   11.1940   21.3200    5.2240 O   0  0  0  0  0  0  0  0  0  0  0  0
   12.8340   22.8860    5.1960 O   0  0  0  0  0  0  0  0  0  0  0  0
    9.8450   23.9470    5.1700 N   0  0  0  0  0  0  0  0  0  0  0  0
    9.7810   25.0550    5.9870 C   0  0  0  0  0  0  0  0  0  0  0  0
    9.6660   26.2030    5.5630 O   0  0  0  0  0  0  0  0  0  0  0  0
    9.9680   24.7290    7.4890 C   0  0  1  0  0  0  0  0  0  0  0  0
   11.2950   24.1000    7.7040 N   0  0  0  0  0  0  0  0  0  0  0  0
    9.8320   25.9940    8.3600 C   0  0  0  0  0  0  0  0  0  0  0  0
    8.4390   26.3610    8.8790 C   0  0  0  0  0  0  0  0  0  0  0  0
    7.7760   27.4300    8.0220 C   0  0  0  0  0  0  0  0  0  0  0  0
    6.5980   27.1170    7.6660 O   0  0  0  0  0  0  0  0  0  0  0  0
    8.4750   28.4310    7.7430 O   0  0  0  0  0  0  0  0  0  0  0  0
    7.5990   26.9870    0.9900 C   0  0  0  0  0  0  0  0  0  0  0  0
    7.8430   27.9410    1.7860 O   0  0  0  0  0  0  0  0  0  0  0  0
    7.4290   27.0080   -0.2680 O   0  0  0  0  0  0  0  0  0  0  0  0
    5.1372   24.2516    4.2083 H   0  0  0  0  0  0  0  0  0  0  0  0
    3.7374   23.4907    3.3786 H   0  0  0  0  0  0  0  0  0  0  0  0
    5.3356   22.6707    3.3786 H   0  0  0  0  0  0  0  0  0  0  0  0
    5.7475   23.6962    1.3763 H   0  0  0  0  0  0  0  0  0  0  0  0
    3.1568   25.0784    2.0713 H   0  0  0  0  0  0  0  0  0  0  0  0
    4.1426   25.6877    0.6989 H   0  0  0  0  0  0  0  0  0  0  0  0
    3.5554   23.9901    0.6989 H   0  0  0  0  0  0  0  0  0  0  0  0
    5.5989   26.4868    2.1000 H   0  0  0  0  0  0  0  0  0  0  0  0
    6.3663   25.4789    3.4390 H   0  0  0  0  0  0  0  0  0  0  0  0
    7.5418   24.7704    0.8724 H   0  0  0  0  0  0  0  0  0  0  0  0
    9.1620   26.1190    2.7380 H   0  0  0  0  0  0  0  0  0  0  0  0
   10.9079   24.9589    3.6569 H   0  0  0  0  0  0  0  0  0  0  0  0
   10.6570   22.0766    2.9289 H   0  0  0  0  0  0  0  0  0  0  0  0
   12.0461   23.2006    2.7733 H   0  0  0  0  0  0  0  0  0  0  0  0
    9.9560   23.0250    5.5790 H   0  0  0  0  0  0  0  0  0  0  0  0
    9.1762   24.0272    7.7899 H   0  0  0  0  0  0  0  0  0  0  0  0
   11.7950   24.4800    8.5500 H   0  0  0  0  0  0  0  0  0  0  0  0
   11.2630   23.0990    7.8880 H   0  0  0  0  0  0  0  0  0  0  0  0
   11.9090   24.2940    6.8770 H   0  0  0  0  0  0  0  0  0  0  0  0
   10.4830   25.8597    9.2364 H   0  0  0  0  0  0  0  0  0  0  0  0
   10.1025   26.8217    7.6879 H   0  0  0  0  0  0  0  0  0  0  0  0
    7.8087   25.4595    8.8733 H   0  0  0  0  0  0  0  0  0  0  0  0
    8.5499   26.7617    9.8974 H   0  0  0  0  0  0  0  0  0  0  0  0
  1  2  1  0
  2  3  1  0
  2  4  1  0
  4  5  1  0
  5  6  1  0
  6  7  1  0
  7  8  2  0
  7  9  1  0
  9 10  1  0
 10 11  1  0
 11 12  2  0
 11 13  1  0
  9 14  1  0
 14 15  1  0
 15 16  2  0
 15 17  1  0
 17 18  1  0
 17 19  1  0
 19 20  1  0
 20 21  1  0
 21 22  2  0
 21 23  1  0
  5 24  1  0
 24 25  2  0
 24 26  1  0
  1 27  1  0
  1 28  1  0
  1 29  1  0
  2 30  1  0
  3 31  1  0
  3 32  1  0
  3 33  1  0
  4 34  1  0
  4 35  1  0
  5 36  1  6
  6 37  1  0
  9 38  1  1
 10 39  1  0
 10 40  1  0
 14 41  1  0
 17 42  1  1
 18 43  1  0
 18 44  1  0
 18 45  1  0
 19 46  1  0
 19 47  1  0
 20 48  1  0
 20 49  1  0
M  CHG  4  13  -1  18   1  23  -1  26  -1
M  END
>  <meeko>  (9) 
{"is_sidechain": [false], "free_energy": -6.124, "intermolecular_energy": -10.78, "internal_energy": -2.104}

$$$$
