1k1i_ligand
     RDKit          3D

 64 67  0  0  0  0  0  0  0  0999 V2000
   -1.6360   12.5850   15.1040 N   0  0  0  0  0  0  0  0  0  0  0  0
   -2.1070   13.7670   15.4340 C   0  0  0  0  0  0  0  0  0  0  0  0
   -3.0420   14.3450   14.7210 N   0  0  0  0  0  0  0  0  0  0  0  0
   -1.5760   14.4520   16.6190 C   0  0  0  0  0  0  0  0  0  0  0  0
   -0.7950   13.8020   17.5800 C   0  0  0  0  0  0  0  0  0  0  0  0
   -0.4730   14.4520   18.7770 C   0  0  0  0  0  0  0  0  0  0  0  0
   -0.9780   15.7280   19.0460 C   0  0  0  0  0  0  0  0  0  0  0  0
   -1.7520   16.3880   18.0900 C   0  0  0  0  0  0  0  0  0  0  0  0
   -2.5830   17.6130   18.4300 C   0  0  0  0  0  0  0  0  0  0  0  0
   -1.7980   18.9440   18.2960 C   0  0  2  0  0  0  0  0  0  0  0  0
   -0.3320   18.7260   18.2470 N   0  0  0  0  0  0  0  0  0  0  0  0
    0.5840   19.7320   17.2810 S   0  0  0  0  0  0  0  0  0  0  0  0
   -0.1970   20.9030   16.9540 O   0  0  0  0  0  0  0  0  0  0  0  0
    1.2180   18.9290   16.2560 O   0  0  0  0  0  0  0  0  0  0  0  0
    1.8350   20.1870   18.4590 C   0  0  0  0  0  0  0  0  0  0  0  0
    2.2770   19.2650   19.4040 C   0  0  0  0  0  0  0  0  0  0  0  0
    3.3070   19.6210   20.2760 C   0  0  0  0  0  0  0  0  0  0  0  0
    3.9010   20.8930   20.2070 C   0  0  0  0  0  0  0  0  0  0  0  0
    4.9460   21.2600   21.0690 C   0  0  0  0  0  0  0  0  0  0  0  0
    5.5260   22.5270   20.9900 C   0  0  0  0  0  0  0  0  0  0  0  0
    5.0690   23.4460   20.0490 C   0  0  0  0  0  0  0  0  0  0  0  0
    4.0300   23.0980   19.1830 C   0  0  0  0  0  0  0  0  0  0  0  0
    3.4380   21.8280   19.2480 C   0  0  0  0  0  0  0  0  0  0  0  0
    2.3990   21.4650   18.3820 C   0  0  0  0  0  0  0  0  0  0  0  0
   -2.1540   20.0020   19.3550 C   0  0  0  0  0  0  0  0  0  0  0  0
   -3.1650   20.6970   19.1980 O   0  0  0  0  0  0  0  0  0  0  0  0
   -1.2850   20.2130   20.4340 N   0  0  0  0  0  0  0  0  0  0  0  0
   -0.6800   21.5430   20.4830 C   0  0  0  0  0  0  0  0  0  0  0  0
    0.4130   21.6280   21.5390 C   0  0  0  0  0  0  0  0  0  0  0  0
   -0.1420   21.3600   22.9370 C   0  0  0  0  0  0  0  0  0  0  0  0
   -1.4360   20.5420   22.9070 C   0  0  0  0  0  0  0  0  0  0  0  0
   -1.4470   19.5220   21.7580 C   0  0  2  0  0  0  0  0  0  0  0  0
   -0.4650   18.3610   22.0850 C   0  0  0  0  0  0  0  0  0  0  0  0
    0.1570   17.8400   21.1020 O   0  0  0  0  0  0  0  0  0  0  0  0
   -0.4650   17.8840   23.2530 O   0  0  0  0  0  0  0  0  0  0  0  0
   -1.9540   15.7790   16.8490 C   0  0  0  0  0  0  0  0  0  0  0  0
   -0.8880   12.1770   15.6480 H   0  0  0  0  0  0  0  0  0  0  0  0
   -1.9770   12.1100   14.2820 H   0  0  0  0  0  0  0  0  0  0  0  0
   -3.3820   14.0400   13.8240 H   0  0  0  0  0  0  0  0  0  0  0  0
   -3.3840   15.2980   14.9560 H   0  0  0  0  0  0  0  0  0  0  0  0
   -0.4337   12.7796   17.3951 H   0  0  0  0  0  0  0  0  0  0  0  0
    0.1807   13.9566   19.5100 H   0  0  0  0  0  0  0  0  0  0  0  0
   -0.7653   16.2116   20.0108 H   0  0  0  0  0  0  0  0  0  0  0  0
   -3.4476   17.6478   17.7508 H   0  0  0  0  0  0  0  0  0  0  0  0
   -2.8864   17.5186   19.4831 H   0  0  0  0  0  0  0  0  0  0  0  0
   -2.1249   19.3574   17.3305 H   0  0  0  0  0  0  0  0  0  0  0  0
    0.0930   18.6870   19.1960 H   0  0  0  0  0  0  0  0  0  0  0  0
    1.8193   18.2665   19.4627 H   0  0  0  0  0  0  0  0  0  0  0  0
    3.6582   18.8973   21.0263 H   0  0  0  0  0  0  0  0  0  0  0  0
    5.3123   20.5403   21.8159 H   0  0  0  0  0  0  0  0  0  0  0  0
    6.3450   22.7999   21.6718 H   0  0  0  0  0  0  0  0  0  0  0  0
    5.5257   24.4448   19.9878 H   0  0  0  0  0  0  0  0  0  0  0  0
    3.6720   23.8278   18.4419 H   0  0  0  0  0  0  0  0  0  0  0  0
    2.0257   22.1860   17.6399 H   0  0  0  0  0  0  0  0  0  0  0  0
   -0.2436   21.7722   19.4996 H   0  0  0  0  0  0  0  0  0  0  0  0
   -1.4658   22.2668   20.7451 H   0  0  0  0  0  0  0  0  0  0  0  0
    1.1886   20.8816   21.3125 H   0  0  0  0  0  0  0  0  0  0  0  0
    0.8333   22.6444   21.5219 H   0  0  0  0  0  0  0  0  0  0  0  0
    0.6120   20.8064   23.5158 H   0  0  0  0  0  0  0  0  0  0  0  0
   -0.3716   22.3322   23.3976 H   0  0  0  0  0  0  0  0  0  0  0  0
   -1.5376   20.0034   23.8607 H   0  0  0  0  0  0  0  0  0  0  0  0
   -2.2736   21.2377   22.7511 H   0  0  0  0  0  0  0  0  0  0  0  0
   -2.4245   19.0277   21.6575 H   0  0  0  0  0  0  0  0  0  0  0  0
   -2.4200   16.3550   16.0359 H   0  0  0  0  0  0  0  0  0  0  0  0
  1  2  1  0
  2  3  2  0
  2  4  1  0
  4  5  2  0
  5  6  1  0
  6  7  2  0
  7  8  1  0
  8  9  1  0
  9 10  1  0
 10 11  1  0
 11 12  1  0
 12 13  2  0
 12 14  2  0
 12 15  1  0
 15 16  2  0
 16 17  1  0
 17 18  2  0
 18 19  1  0
 19 20  2  0
 20 21  1  0
 21 22  2  0
 22 23  1  0
 23 24  2  0
 10 25  1  0
 25 26  2  0
 25 27  1  0
 27 28  1  0
 28 29  1  0
 29 30  1  0
 30 31  1  0
 31 32  1  0
 32 33  1  0
 33 34  2  0
 33 35  1  0
  8 36  2  0
 36  4  1  0
 24 15  1  0
 32 27  1  0
 23 18  1  0
  1 37  1  0
  1 38  1  0
  3 39  1  0
  3 40  1  0
  5 41  1  0
  6 42  1  0
  7 43  1  0
  9 44  1  0
  9 45  1  0
 10 46  1  6
 11 47  1  0
 16 48  1  0
 17 49  1  0
 19 50  1  0
 20 51  1  0
 21 52  1  0
 22 53  1  0
 24 54  1  0
 28 55  1  0
 28 56  1  0
 29 57  1  0
 29 58  1  0
 30 59  1  0
 30 60  1  0
 31 61  1  0
 31 62  1  0
 32 63  1  6
 36 64  1  0
M  CHG  2   3   1  35  -1
M  END
>  <meeko>  (1) 
{"is_sidechain": [false], "free_energy": -8.643, "intermolecular_energy": -13.19, "internal_energy": -2.215}

$$$$
1k1i_ligand
     RDKit          3D

 64 67  0  0  0  0  0  0  0  0999 V2000
   -1.6440   12.5730   15.1110 N   0  0  0  0  0  0  0  0  0  0  0  0
   -2.1150   13.7650   15.4030 C   0  0  0  0  0  0  0  0  0  0  0  0
   -2.9760   14.3640   14.6180 N   0  0  0  0  0  0  0  0  0  0  0  0
   -1.6650   14.4390   16.6280 C   0  0  0  0  0  0  0  0  0  0  0  0
   -1.1540   13.7430   17.7280 C   0  0  0  0  0  0  0  0  0  0  0  0
   -0.9160   14.4140   18.9330 C   0  0  0  0  0  0  0  0  0  0  0  0
   -1.2430   15.7670   19.0640 C   0  0  0  0  0  0  0  0  0  0  0  0
   -1.7470   16.4730   17.9700 C   0  0  0  0  0  0  0  0  0  0  0  0
   -2.4110   17.8300   18.1210 C   0  0  0  0  0  0  0  0  0  0  0  0
   -1.4940   19.0110   17.7100 C   0  0  2  0  0  0  0  0  0  0  0  0
   -1.7970   19.5070   16.3460 N   0  0  0  0  0  0  0  0  0  0  0  0
   -1.7600   21.1530   16.0760 S   0  0  0  0  0  0  0  0  0  0  0  0
   -1.5320   21.8270   17.3340 O   0  0  0  0  0  0  0  0  0  0  0  0
   -2.8730   21.5020   15.2180 O   0  0  0  0  0  0  0  0  0  0  0  0
   -0.2780   21.2440   15.1000 C   0  0  0  0  0  0  0  0  0  0  0  0
   -0.3480   21.5690   13.7470 C   0  0  0  0  0  0  0  0  0  0  0  0
    0.8330   21.7020   13.0150 C   0  0  0  0  0  0  0  0  0  0  0  0
    2.0840   21.5120   13.6270 C   0  0  0  0  0  0  0  0  0  0  0  0
    3.2800   21.6540   12.9040 C   0  0  0  0  0  0  0  0  0  0  0  0
    4.5160   21.4620   13.5240 C   0  0  0  0  0  0  0  0  0  0  0  0
    4.5740   21.1250   14.8750 C   0  0  0  0  0  0  0  0  0  0  0  0
    3.3950   20.9800   15.6080 C   0  0  0  0  0  0  0  0  0  0  0  0
    2.1450   21.1720   15.0000 C   0  0  0  0  0  0  0  0  0  0  0  0
    0.9560   21.0340   15.7270 C   0  0  0  0  0  0  0  0  0  0  0  0
    0.0110   18.7310   17.8630 C   0  0  0  0  0  0  0  0  0  0  0  0
    0.6120   18.1420   16.9570 O   0  0  0  0  0  0  0  0  0  0  0  0
    0.6550   19.0780   19.0590 N   0  0  0  0  0  0  0  0  0  0  0  0
    2.0980   19.2800   18.9410 C   0  0  0  0  0  0  0  0  0  0  0  0
    2.7600   19.4310   20.3030 C   0  0  0  0  0  0  0  0  0  0  0  0
    2.2180   20.6470   21.0540 C   0  0  0  0  0  0  0  0  0  0  0  0
    0.8240   21.0580   20.5740 C   0  0  0  0  0  0  0  0  0  0  0  0
   -0.0230   19.8470   20.1570 C   0  0  2  0  0  0  0  0  0  0  0  0
   -0.4560   19.0550   21.4240 C   0  0  0  0  0  0  0  0  0  0  0  0
   -0.1650   17.8150   21.4540 O   0  0  0  0  0  0  0  0  0  0  0  0
   -1.2120   19.6240   22.2580 O   0  0  0  0  0  0  0  0  0  0  0  0
   -1.8540   15.8200   16.7390 C   0  0  0  0  0  0  0  0  0  0  0  0
   -0.9520   12.1480   15.7120 H   0  0  0  0  0  0  0  0  0  0  0  0
   -1.9290   12.1060   14.2630 H   0  0  0  0  0  0  0  0  0  0  0  0
   -3.2490   14.0670   13.6970 H   0  0  0  0  0  0  0  0  0  0  0  0
   -3.3140   15.3240   14.8270 H   0  0  0  0  0  0  0  0  0  0  0  0
   -0.9389   12.6673   17.6462 H   0  0  0  0  0  0  0  0  0  0  0  0
   -0.4695   13.8742   19.7811 H   0  0  0  0  0  0  0  0  0  0  0  0
   -1.1031   16.2755   20.0294 H   0  0  0  0  0  0  0  0  0  0  0  0
   -3.3110   17.8505   17.4889 H   0  0  0  0  0  0  0  0  0  0  0  0
   -2.6499   17.9589   19.1870 H   0  0  0  0  0  0  0  0  0  0  0  0
   -1.7318   19.8045   18.4337 H   0  0  0  0  0  0  0  0  0  0  0  0
   -1.2270   19.0310   15.6170 H   0  0  0  0  0  0  0  0  0  0  0  0
   -1.3233   21.7191   13.2610 H   0  0  0  0  0  0  0  0  0  0  0  0
    0.7841   21.9586   11.9465 H   0  0  0  0  0  0  0  0  0  0  0  0
    3.2422   21.9195   11.8372 H   0  0  0  0  0  0  0  0  0  0  0  0
    5.4447   21.5768   12.9458 H   0  0  0  0  0  0  0  0  0  0  0  0
    5.5480   20.9734   15.3633 H   0  0  0  0  0  0  0  0  0  0  0  0
    3.4463   20.7123   16.6737 H   0  0  0  0  0  0  0  0  0  0  0  0
    0.9917   20.7603   16.7918 H   0  0  0  0  0  0  0  0  0  0  0  0
    2.5379   18.4137   18.4252 H   0  0  0  0  0  0  0  0  0  0  0  0
    2.2686   20.2064   18.3730 H   0  0  0  0  0  0  0  0  0  0  0  0
    2.5651   18.5266   20.8980 H   0  0  0  0  0  0  0  0  0  0  0  0
    3.8401   19.5716   20.1496 H   0  0  0  0  0  0  0  0  0  0  0  0
    2.1651   20.4051   22.1258 H   0  0  0  0  0  0  0  0  0  0  0  0
    2.8994   21.4892   20.8630 H   0  0  0  0  0  0  0  0  0  0  0  0
    0.3095   21.5868   21.3898 H   0  0  0  0  0  0  0  0  0  0  0  0
    0.9460   21.7057   19.6933 H   0  0  0  0  0  0  0  0  0  0  0  0
   -0.9722   20.1514   19.6918 H   0  0  0  0  0  0  0  0  0  0  0  0
   -2.0920   16.4049   15.8383 H   0  0  0  0  0  0  0  0  0  0  0  0
  1  2  1  0
  2  3  2  0
  2  4  1  0
  4  5  2  0
  5  6  1  0
  6  7  2  0
  7  8  1  0
  8  9  1  0
  9 10  1  0
 10 11  1  0
 11 12  1  0
 12 13  2  0
 12 14  2  0
 12 15  1  0
 15 16  2  0
 16 17  1  0
 17 18  2  0
 18 19  1  0
 19 20  2  0
 20 21  1  0
 21 22  2  0
 22 23  1  0
 23 24  2  0
 10 25  1  0
 25 26  2  0
 25 27  1  0
 27 28  1  0
 28 29  1  0
 29 30  1  0
 30 31  1  0
 31 32  1  0
 32 33  1  0
 33 34  2  0
 33 35  1  0
  8 36  2  0
 36  4  1  0
 24 15  1  0
 32 27  1  0
 23 18  1  0
  1 37  1  0
  1 38  1  0
  3 39  1  0
  3 40  1  0
  5 41  1  0
  6 42  1  0
  7 43  1  0
  9 44  1  0
  9 45  1  0
 10 46  1  1
 11 47  1  0
 16 48  1  0
 17 49  1  0
 19 50  1  0
 20 51  1  0
 21 52  1  0
 22 53  1  0
 24 54  1  0
 28 55  1  0
 28 56  1  0
 29 57  1  0
 29 58  1  0
 30 59  1  0
 30 60  1  0
 31 61  1  0
 31 62  1  0
 32 63  1  6
 36 64  1  0
M  CHG  2   3   1  35  -1
M  END
>  <meeko>  (2) 
{"is_sidechain": [false], "free_energy": -8.467, "intermolecular_energy": -13.656, "internal_energy": -1.48}

$$$$
1k1i_ligand
     RDKit          3D

 64 67  0  0  0  0  0  0  0  0999 V2000
   -1.6440   12.5780   15.1140 N   0  0  0  0  0  0  0  0  0  0  0  0
   -2.1300   13.7570   15.4360 C   0  0  0  0  0  0  0  0  0  0  0  0
   -3.0020   14.3630   14.6680 N   0  0  0  0  0  0  0  0  0  0  0  0
   -1.6860   14.4070   16.6760 C   0  0  0  0  0  0  0  0  0  0  0  0
   -1.1930   13.6880   17.7700 C   0  0  0  0  0  0  0  0  0  0  0  0
   -0.9600   14.3380   18.9880 C   0  0  0  0  0  0  0  0  0  0  0  0
   -1.2750   15.6920   19.1370 C   0  0  0  0  0  0  0  0  0  0  0  0
   -1.7620   16.4200   18.0490 C   0  0  0  0  0  0  0  0  0  0  0  0
   -2.4140   17.7810   18.2150 C   0  0  0  0  0  0  0  0  0  0  0  0
   -1.5250   18.9520   17.7210 C   0  0  2  0  0  0  0  0  0  0  0  0
   -1.8470   19.3510   16.3300 N   0  0  0  0  0  0  0  0  0  0  0  0
   -2.0480   20.9740   15.9990 S   0  0  0  0  0  0  0  0  0  0  0  0
   -2.9180   21.5500   17.0000 O   0  0  0  0  0  0  0  0  0  0  0  0
   -2.3150   21.1230   14.5840 O   0  0  0  0  0  0  0  0  0  0  0  0
   -0.3860   21.5290   16.2960 C   0  0  0  0  0  0  0  0  0  0  0  0
   -0.1150   22.3970   17.3510 C   0  0  0  0  0  0  0  0  0  0  0  0
    1.2060   22.7670   17.6080 C   0  0  0  0  0  0  0  0  0  0  0  0
    2.2580   22.2720   16.8190 C   0  0  0  0  0  0  0  0  0  0  0  0
    3.5930   22.6260   17.0750 C   0  0  0  0  0  0  0  0  0  0  0  0
    4.6290   22.1280   16.2820 C   0  0  0  0  0  0  0  0  0  0  0  0
    4.3450   21.2690   15.2220 C   0  0  0  0  0  0  0  0  0  0  0  0
    3.0240   20.9070   14.9540 C   0  0  0  0  0  0  0  0  0  0  0  0
    1.9720   21.3970   15.7430 C   0  0  0  0  0  0  0  0  0  0  0  0
    0.6430   21.0370   15.4860 C   0  0  0  0  0  0  0  0  0  0  0  0
   -0.0130   18.7150   17.8810 C   0  0  0  0  0  0  0  0  0  0  0  0
    0.6120   18.1620   16.9690 O   0  0  0  0  0  0  0  0  0  0  0  0
    0.6110   19.0560   19.0890 N   0  0  0  0  0  0  0  0  0  0  0  0
    2.0520   19.2790   18.9920 C   0  0  0  0  0  0  0  0  0  0  0  0
    2.6950   19.4230   20.3640 C   0  0  0  0  0  0  0  0  0  0  0  0
    2.1270   20.6230   21.1210 C   0  0  0  0  0  0  0  0  0  0  0  0
    0.7340   21.0210   20.6280 C   0  0  0  0  0  0  0  0  0  0  0  0
   -0.0920   19.8030   20.1870 C   0  0  2  0  0  0  0  0  0  0  0  0
   -0.5300   18.9910   21.4390 C   0  0  0  0  0  0  0  0  0  0  0  0
   -0.2010   17.7600   21.4700 O   0  0  0  0  0  0  0  0  0  0  0  0
   -1.3230   19.5320   22.2580 O   0  0  0  0  0  0  0  0  0  0  0  0
   -1.8630   15.7880   16.8070 C   0  0  0  0  0  0  0  0  0  0  0  0
   -0.9450   12.1490   15.7030 H   0  0  0  0  0  0  0  0  0  0  0  0
   -1.9250   12.1290   14.2550 H   0  0  0  0  0  0  0  0  0  0  0  0
   -3.2730   14.0840   13.7410 H   0  0  0  0  0  0  0  0  0  0  0  0
   -3.3520   15.3130   14.9010 H   0  0  0  0  0  0  0  0  0  0  0  0
   -0.9883   12.6115   17.6733 H   0  0  0  0  0  0  0  0  0  0  0  0
   -0.5270   13.7807   19.8318 H   0  0  0  0  0  0  0  0  0  0  0  0
   -1.1393   16.1841   20.1114 H   0  0  0  0  0  0  0  0  0  0  0  0
   -3.3533   17.7902   17.6425 H   0  0  0  0  0  0  0  0  0  0  0  0
   -2.5829   17.9320   19.2914 H   0  0  0  0  0  0  0  0  0  0  0  0
   -1.7755   19.7859   18.3932 H   0  0  0  0  0  0  0  0  0  0  0  0
   -1.1840   18.9440   15.6390 H   0  0  0  0  0  0  0  0  0  0  0  0
   -0.9330   22.7866   17.9747 H   0  0  0  0  0  0  0  0  0  0  0  0
    1.4262   23.4543   18.4381 H   0  0  0  0  0  0  0  0  0  0  0  0
    3.8251   23.3035   17.9100 H   0  0  0  0  0  0  0  0  0  0  0  0
    5.6698   22.4139   16.4942 H   0  0  0  0  0  0  0  0  0  0  0  0
    5.1610   20.8767   14.5973 H   0  0  0  0  0  0  0  0  0  0  0  0
    2.8050   20.2301   14.1150 H   0  0  0  0  0  0  0  0  0  0  0  0
    0.4081   20.3665   14.6462 H   0  0  0  0  0  0  0  0  0  0  0  0
    2.5103   18.4250   18.4718 H   0  0  0  0  0  0  0  0  0  0  0  0
    2.2168   20.2144   18.4372 H   0  0  0  0  0  0  0  0  0  0  0  0
    2.5048   18.5094   20.9464 H   0  0  0  0  0  0  0  0  0  0  0  0
    3.7751   19.5793   20.2262 H   0  0  0  0  0  0  0  0  0  0  0  0
    2.0637   20.3684   22.1893 H   0  0  0  0  0  0  0  0  0  0  0  0
    2.7993   21.4762   20.9477 H   0  0  0  0  0  0  0  0  0  0  0  0
    0.2024   21.5340   21.4429 H   0  0  0  0  0  0  0  0  0  0  0  0
    0.8584   21.6800   19.7561 H   0  0  0  0  0  0  0  0  0  0  0  0
   -1.0398   20.0995   19.7139 H   0  0  0  0  0  0  0  0  0  0  0  0
   -2.0864   16.3894   15.9134 H   0  0  0  0  0  0  0  0  0  0  0  0
  1  2  1  0
  2  3  2  0
  2  4  1  0
  4  5  2  0
  5  6  1  0
  6  7  2  0
  7  8  1  0
  8  9  1  0
  9 10  1  0
 10 11  1  0
 11 12  1  0
 12 13  2  0
 12 14  2  0
 12 15  1  0
 15 16  2  0
 16 17  1  0
 17 18  2  0
 18 19  1  0
 19 20  2  0
 20 21  1  0
 21 22  2  0
 22 23  1  0
 23 24  2  0
 10 25  1  0
 25 26  2  0
 25 27  1  0
 27 28  1  0
 28 29  1  0
 29 30  1  0
 30 31  1  0
 31 32  1  0
 32 33  1  0
 33 34  2  0
 33 35  1  0
  8 36  2  0
 36  4  1  0
 24 15  1  0
 32 27  1  0
 23 18  1  0
  1 37  1  0
  1 38  1  0
  3 39  1  0
  3 40  1  0
  5 41  1  0
  6 42  1  0
  7 43  1  0
  9 44  1  0
  9 45  1  0
 10 46  1  1
 11 47  1  0
 16 48  1  0
 17 49  1  0
 19 50  1  0
 20 51  1  0
 21 52  1  0
 22 53  1  0
 24 54  1  0
 28 55  1  0
 28 56  1  0
 29 57  1  0
 29 58  1  0
 30 59  1  0
 30 60  1  0
 31 61  1  0
 31 62  1  0
 32 63  1  6
 36 64  1  0
M  CHG  2   3   1  35  -1
M  END
>  <meeko>  (3) 
{"is_sidechain": [false], "free_energy": -8.379, "intermolecular_energy": -12.935, "internal_energy": -2.067}

$$$$
1k1i_ligand
     RDKit          3D

 64 67  0  0  0  0  0  0  0  0999 V2000
   -3.0730   14.3980   14.8670 N   0  0  0  0  0  0  0  0  0  0  0  0
   -2.1020   13.7350   15.4550 C   0  0  0  0  0  0  0  0  0  0  0  0
   -1.7080   12.5700   15.0040 N   0  0  0  0  0  0  0  0  0  0  0  0
   -1.4510   14.3080   16.6400 C   0  0  0  0  0  0  0  0  0  0  0  0
   -0.5950   13.5670   17.4620 C   0  0  0  0  0  0  0  0  0  0  0  0
   -0.1500   14.1040   18.6750 C   0  0  0  0  0  0  0  0  0  0  0  0
   -0.6060   15.3550   19.1020 C   0  0  0  0  0  0  0  0  0  0  0  0
   -1.4560   16.1050   18.2870 C   0  0  0  0  0  0  0  0  0  0  0  0
   -2.2300   17.3020   18.8110 C   0  0  0  0  0  0  0  0  0  0  0  0
   -1.3190   18.4460   19.3250 C   0  0  2  0  0  0  0  0  0  0  0  0
    0.0190   18.4260   18.6850 N   0  0  0  0  0  0  0  0  0  0  0  0
    0.2750   19.4060   17.3580 S   0  0  0  0  0  0  0  0  0  0  0  0
   -0.8480   20.3040   17.2180 O   0  0  0  0  0  0  0  0  0  0  0  0
    0.7290   18.5780   16.2600 O   0  0  0  0  0  0  0  0  0  0  0  0
    1.6740   20.3250   17.9550 C   0  0  0  0  0  0  0  0  0  0  0  0
    2.2030   21.3680   17.1980 C   0  0  0  0  0  0  0  0  0  0  0  0
    3.2580   22.1210   17.7150 C   0  0  0  0  0  0  0  0  0  0  0  0
    3.7880   21.8380   18.9860 C   0  0  0  0  0  0  0  0  0  0  0  0
    4.8420   22.5950   19.5230 C   0  0  0  0  0  0  0  0  0  0  0  0
    5.3600   22.3030   20.7860 C   0  0  0  0  0  0  0  0  0  0  0  0
    4.8320   21.2500   21.5300 C   0  0  0  0  0  0  0  0  0  0  0  0
    3.7850   20.4870   21.0110 C   0  0  0  0  0  0  0  0  0  0  0  0
    3.2520   20.7690   19.7440 C   0  0  0  0  0  0  0  0  0  0  0  0
    2.1970   20.0140   19.2150 C   0  0  0  0  0  0  0  0  0  0  0  0
   -1.1870   18.5160   20.8560 C   0  0  0  0  0  0  0  0  0  0  0  0
   -1.4330   17.5090   21.5300 O   0  0  0  0  0  0  0  0  0  0  0  0
   -0.8670   19.7380   21.4620 N   0  0  0  0  0  0  0  0  0  0  0  0
    0.3730   19.7320   22.2370 C   0  0  0  0  0  0  0  0  0  0  0  0
    0.5410   21.0110   23.0440 C   0  0  0  0  0  0  0  0  0  0  0  0
    0.6120   22.2370   22.1350 C   0  0  0  0  0  0  0  0  0  0  0  0
   -0.0490   21.9970   20.7750 C   0  0  0  0  0  0  0  0  0  0  0  0
   -1.2650   21.0650   20.8820 C   0  0  2  0  0  0  0  0  0  0  0  0
   -2.4410   21.8210   21.5630 C   0  0  0  0  0  0  0  0  0  0  0  0
   -2.9360   21.2900   22.6110 O   0  0  0  0  0  0  0  0  0  0  0  0
   -2.9530   22.8040   20.9600 O   0  0  0  0  0  0  0  0  0  0  0  0
   -1.7830   15.6110   17.0220 C   0  0  0  0  0  0  0  0  0  0  0  0
   -3.3850   15.2760   15.2560 H   0  0  0  0  0  0  0  0  0  0  0  0
   -3.5430   14.0080   14.0630 H   0  0  0  0  0  0  0  0  0  0  0  0
   -2.1630   12.0210   14.2940 H   0  0  0  0  0  0  0  0  0  0  0  0
   -0.9700   12.0260   15.4940 H   0  0  0  0  0  0  0  0  0  0  0  0
   -0.2716   12.5616   17.1545 H   0  0  0  0  0  0  0  0  0  0  0  0
    0.5617   13.5396   19.2954 H   0  0  0  0  0  0  0  0  0  0  0  0
   -0.2947   15.7486   20.0809 H   0  0  0  0  0  0  0  0  0  0  0  0
   -2.8578   17.6947   17.9976 H   0  0  0  0  0  0  0  0  0  0  0  0
   -2.8280   16.9535   19.6660 H   0  0  0  0  0  0  0  0  0  0  0  0
   -1.8405   19.3660   19.0224 H   0  0  0  0  0  0  0  0  0  0  0  0
    0.7870   18.5770   19.3710 H   0  0  0  0  0  0  0  0  0  0  0  0
    1.7933   21.5957   16.2029 H   0  0  0  0  0  0  0  0  0  0  0  0
    3.6797   22.9454   17.1213 H   0  0  0  0  0  0  0  0  0  0  0  0
    5.2643   23.4278   18.9416 H   0  0  0  0  0  0  0  0  0  0  0  0
    6.1855   22.9046   21.1941 H   0  0  0  0  0  0  0  0  0  0  0  0
    5.2399   21.0203   22.5254 H   0  0  0  0  0  0  0  0  0  0  0  0
    3.3731   19.6554   21.6016 H   0  0  0  0  0  0  0  0  0  0  0  0
    1.7791   19.1753   19.7912 H   0  0  0  0  0  0  0  0  0  0  0  0
    0.3577   18.8752   22.9267 H   0  0  0  0  0  0  0  0  0  0  0  0
    1.2155   19.6583   21.5336 H   0  0  0  0  0  0  0  0  0  0  0  0
   -0.3156   21.1196   23.7255 H   0  0  0  0  0  0  0  0  0  0  0  0
    1.4824   20.9433   23.6090 H   0  0  0  0  0  0  0  0  0  0  0  0
    0.1017   23.0750   22.6323 H   0  0  0  0  0  0  0  0  0  0  0  0
    1.6743   22.4595   21.9559 H   0  0  0  0  0  0  0  0  0  0  0  0
   -0.3773   22.9632   20.3644 H   0  0  0  0  0  0  0  0  0  0  0  0
    0.6907   21.5159   20.1182 H   0  0  0  0  0  0  0  0  0  0  0  0
   -1.6592   20.7903   19.8925 H   0  0  0  0  0  0  0  0  0  0  0  0
   -2.3133   16.2615   16.3110 H   0  0  0  0  0  0  0  0  0  0  0  0
  1  2  1  0
  2  3  2  0
  2  4  1  0
  4  5  2  0
  5  6  1  0
  6  7  2  0
  7  8  1  0
  8  9  1  0
  9 10  1  0
 10 11  1  0
 11 12  1  0
 12 13  2  0
 12 14  2  0
 12 15  1  0
 15 16  2  0
 16 17  1  0
 17 18  2  0
 18 19  1  0
 19 20  2  0
 20 21  1  0
 21 22  2  0
 22 23  1  0
 23 24  2  0
 10 25  1  0
 25 26  2  0
 25 27  1  0
 27 28  1  0
 28 29  1  0
 29 30  1  0
 30 31  1  0
 31 32  1  0
 32 33  1  0
 33 34  2  0
 33 35  1  0
  8 36  2  0
 36  4  1  0
 24 15  1  0
 32 27  1  0
 23 18  1  0
  1 37  1  0
  1 38  1  0
  3 39  1  0
  3 40  1  0
  5 41  1  0
  6 42  1  0
  7 43  1  0
  9 44  1  0
  9 45  1  0
 10 46  1  6
 11 47  1  0
 16 48  1  0
 17 49  1  0
 19 50  1  0
 20 51  1  0
 21 52  1  0
 22 53  1  0
 24 54  1  0
 28 55  1  0
 28 56  1  0
 29 57  1  0
 29 58  1  0
 30 59  1  0
 30 60  1  0
 31 61  1  0
 31 62  1  0
 32 63  1  6
 36 64  1  0
M  CHG  2   3   1  35  -1
M  END
>  <meeko>  (4) 
{"is_sidechain": [false], "free_energy": -8.182, "intermolecular_energy": -12.204, "internal_energy": -2.498}

$$$$
1k1i_ligand
     RDKit          3D

 64 67  0  0  0  0  0  0  0  0999 V2000
   -1.6530   12.5870   15.0930 N   0  0  0  0  0  0  0  0  0  0  0  0
   -2.1260   13.7640   15.4390 C   0  0  0  0  0  0  0  0  0  0  0  0
   -3.1140   14.3160   14.7790 N   0  0  0  0  0  0  0  0  0  0  0  0
   -1.5360   14.4730   16.5810 C   0  0  0  0  0  0  0  0  0  0  0  0
   -0.7780   13.8250   17.5620 C   0  0  0  0  0  0  0  0  0  0  0  0
   -0.3970   14.5110   18.7210 C   0  0  0  0  0  0  0  0  0  0  0  0
   -0.8230   15.8250   18.9350 C   0  0  0  0  0  0  0  0  0  0  0  0
   -1.5750   16.4840   17.9600 C   0  0  0  0  0  0  0  0  0  0  0  0
   -2.3280   17.7700   18.2520 C   0  0  0  0  0  0  0  0  0  0  0  0
   -1.4090   19.0160   18.3240 C   0  0  2  0  0  0  0  0  0  0  0  0
   -1.7810   19.9230   19.4370 N   0  0  0  0  0  0  0  0  0  0  0  0
   -1.1310   19.6300   20.9450 S   0  0  0  0  0  0  0  0  0  0  0  0
   -1.1240   18.2040   21.1810 O   0  0  0  0  0  0  0  0  0  0  0  0
   -1.7280   20.5540   21.8870 O   0  0  0  0  0  0  0  0  0  0  0  0
    0.5350   20.1700   20.6430 C   0  0  0  0  0  0  0  0  0  0  0  0
    1.5840   19.2540   20.6650 C   0  0  0  0  0  0  0  0  0  0  0  0
    2.8750   19.6860   20.3580 C   0  0  0  0  0  0  0  0  0  0  0  0
    3.1240   21.0290   20.0280 C   0  0  0  0  0  0  0  0  0  0  0  0
    4.4160   21.4750   19.7050 C   0  0  0  0  0  0  0  0  0  0  0  0
    4.6490   22.8120   19.3790 C   0  0  0  0  0  0  0  0  0  0  0  0
    3.5950   23.7230   19.3720 C   0  0  0  0  0  0  0  0  0  0  0  0
    2.3040   23.2970   19.6900 C   0  0  0  0  0  0  0  0  0  0  0  0
    2.0530   21.9560   20.0170 C   0  0  0  0  0  0  0  0  0  0  0  0
    0.7610   21.5150   20.3330 C   0  0  0  0  0  0  0  0  0  0  0  0
   -1.2910   19.7980   17.0030 C   0  0  0  0  0  0  0  0  0  0  0  0
   -2.2580   19.8320   16.2330 O   0  0  0  0  0  0  0  0  0  0  0  0
   -0.0670   20.3890   16.6620 N   0  0  0  0  0  0  0  0  0  0  0  0
    1.1070   19.5570   16.9200 C   0  0  0  0  0  0  0  0  0  0  0  0
    2.4020   20.3370   16.7400 C   0  0  0  0  0  0  0  0  0  0  0  0
    2.5480   20.8500   15.3080 C   0  0  0  0  0  0  0  0  0  0  0  0
    1.2010   20.9770   14.5910 C   0  0  0  0  0  0  0  0  0  0  0  0
    0.0730   21.3880   15.5500 C   0  0  2  0  0  0  0  0  0  0  0  0
    0.2480   22.8820   15.9470 C   0  0  0  0  0  0  0  0  0  0  0  0
   -0.0380   23.1950   17.1480 O   0  0  0  0  0  0  0  0  0  0  0  0
    0.4870   23.7220   15.0360 O   0  0  0  0  0  0  0  0  0  0  0  0
   -1.8330   15.8290   16.7530 C   0  0  0  0  0  0  0  0  0  0  0  0
   -0.8650   12.1990   15.5930 H   0  0  0  0  0  0  0  0  0  0  0  0
   -2.0360   12.0970   14.2980 H   0  0  0  0  0  0  0  0  0  0  0  0
   -3.5030   13.9950   13.9080 H   0  0  0  0  0  0  0  0  0  0  0  0
   -3.4590   15.2650   15.0260 H   0  0  0  0  0  0  0  0  0  0  0  0
   -0.4810   12.7751   17.4224 H   0  0  0  0  0  0  0  0  0  0  0  0
    0.2406   14.0138   19.4669 H   0  0  0  0  0  0  0  0  0  0  0  0
   -0.5657   16.3404   19.8721 H   0  0  0  0  0  0  0  0  0  0  0  0
   -3.0697   17.9288   17.4553 H   0  0  0  0  0  0  0  0  0  0  0  0
   -2.7985   17.6548   19.2396 H   0  0  0  0  0  0  0  0  0  0  0  0
   -0.4088   18.6046   18.5248 H   0  0  0  0  0  0  0  0  0  0  0  0
   -1.6370   20.9250   19.1940 H   0  0  0  0  0  0  0  0  0  0  0  0
    1.3968   18.2009   20.9217 H   0  0  0  0  0  0  0  0  0  0  0  0
    3.7073   18.9669   20.3745 H   0  0  0  0  0  0  0  0  0  0  0  0
    5.2540   20.7624   19.7090 H   0  0  0  0  0  0  0  0  0  0  0  0
    5.6661   23.1468   19.1273 H   0  0  0  0  0  0  0  0  0  0  0  0
    3.7797   24.7768   19.1162 H   0  0  0  0  0  0  0  0  0  0  0  0
    1.4752   24.0202   19.6841 H   0  0  0  0  0  0  0  0  0  0  0  0
   -0.0768   22.2278   20.3373 H   0  0  0  0  0  0  0  0  0  0  0  0
    1.0577   19.1818   17.9529 H   0  0  0  0  0  0  0  0  0  0  0  0
    1.1039   18.7272   16.1979 H   0  0  0  0  0  0  0  0  0  0  0  0
    2.4025   21.1942   17.4293 H   0  0  0  0  0  0  0  0  0  0  0  0
    3.2450   19.6637   16.9547 H   0  0  0  0  0  0  0  0  0  0  0  0
    3.0281   21.8393   15.3348 H   0  0  0  0  0  0  0  0  0  0  0  0
    3.1555   20.1209   14.7518 H   0  0  0  0  0  0  0  0  0  0  0  0
    1.2898   21.7374   13.8011 H   0  0  0  0  0  0  0  0  0  0  0  0
    0.9467   19.9929   14.1704 H   0  0  0  0  0  0  0  0  0  0  0  0
   -0.9129   21.3521   15.0635 H   0  0  0  0  0  0  0  0  0  0  0  0
   -2.2793   16.3919   15.9200 H   0  0  0  0  0  0  0  0  0  0  0  0
  1  2  1  0
  2  3  2  0
  2  4  1  0
  4  5  2  0
  5  6  1  0
  6  7  2  0
  7  8  1  0
  8  9  1  0
  9 10  1  0
 10 11  1  0
 11 12  1  0
 12 13  2  0
 12 14  2  0
 12 15  1  0
 15 16  2  0
 16 17  1  0
 17 18  2  0
 18 19  1  0
 19 20  2  0
 20 21  1  0
 21 22  2  0
 22 23  1  0
 23 24  2  0
 10 25  1  0
 25 26  2  0
 25 27  1  0
 27 28  1  0
 28 29  1  0
 29 30  1  0
 30 31  1  0
 31 32  1  0
 32 33  1  0
 33 34  2  0
 33 35  1  0
  8 36  2  0
 36  4  1  0
 24 15  1  0
 32 27  1  0
 23 18  1  0
  1 37  1  0
  1 38  1  0
  3 39  1  0
  3 40  1  0
  5 41  1  0
  6 42  1  0
  7 43  1  0
  9 44  1  0
  9 45  1  0
 10 46  1  1
 11 47  1  0
 16 48  1  0
 17 49  1  0
 19 50  1  0
 20 51  1  0
 21 52  1  0
 22 53  1  0
 24 54  1  0
 28 55  1  0
 28 56  1  0
 29 57  1  0
 29 58  1  0
 30 59  1  0
 30 60  1  0
 31 61  1  0
 31 62  1  0
 32 63  1  6
 36 64  1  0
M  CHG  2   3   1  35  -1
M  END
>  <meeko>  (5) 
{"is_sidechain": [false], "free_energy": -8.163, "intermolecular_energy": -12.109, "internal_energy": -2.563}

$$$$
1k1i_ligand
     RDKit          3D

 64 67  0  0  0  0  0  0  0  0999 V2000
   -3.0270   14.4040   15.0280 N   0  0  0  0  0  0  0  0  0  0  0  0
   -1.9360   14.1690   15.7230 C   0  0  0  0  0  0  0  0  0  0  0  0
   -1.1500   13.1630   15.4290 N   0  0  0  0  0  0  0  0  0  0  0  0
   -1.5950   15.0450   16.8510 C   0  0  0  0  0  0  0  0  0  0  0  0
   -0.8520   14.6030   17.9510 C   0  0  0  0  0  0  0  0  0  0  0  0
   -0.7140   15.4220   19.0780 C   0  0  0  0  0  0  0  0  0  0  0  0
   -1.3670   16.6560   19.1370 C   0  0  0  0  0  0  0  0  0  0  0  0
   -2.1060   17.1090   18.0430 C   0  0  0  0  0  0  0  0  0  0  0  0
   -3.0840   18.2660   18.1510 C   0  0  0  0  0  0  0  0  0  0  0  0
   -2.3910   19.6520   18.2070 C   0  0  2  0  0  0  0  0  0  0  0  0
   -1.4840   19.8720   17.0550 N   0  0  0  0  0  0  0  0  0  0  0  0
   -1.8740   21.0700   15.9600 S   0  0  0  0  0  0  0  0  0  0  0  0
   -2.0890   22.3050   16.6770 O   0  0  0  0  0  0  0  0  0  0  0  0
   -2.8580   20.5430   15.0380 O   0  0  0  0  0  0  0  0  0  0  0  0
   -0.3250   21.1710   15.0940 C   0  0  0  0  0  0  0  0  0  0  0  0
   -0.2930   21.5700   13.7600 C   0  0  0  0  0  0  0  0  0  0  0  0
    0.9390   21.7090   13.1180 C   0  0  0  0  0  0  0  0  0  0  0  0
    2.1390   21.4530   13.8030 C   0  0  0  0  0  0  0  0  0  0  0  0
    3.3860   21.6010   13.1730 C   0  0  0  0  0  0  0  0  0  0  0  0
    4.5700   21.3430   13.8640 C   0  0  0  0  0  0  0  0  0  0  0  0
    4.5260   20.9320   15.1950 C   0  0  0  0  0  0  0  0  0  0  0  0
    3.2960   20.7810   15.8370 C   0  0  0  0  0  0  0  0  0  0  0  0
    2.0970   21.0390   15.1560 C   0  0  0  0  0  0  0  0  0  0  0  0
    0.8560   20.8950   15.7910 C   0  0  0  0  0  0  0  0  0  0  0  0
   -1.6670   19.9480   19.5320 C   0  0  0  0  0  0  0  0  0  0  0  0
   -2.2880   19.8470   20.5960 O   0  0  0  0  0  0  0  0  0  0  0  0
   -0.3420   20.4030   19.5030 N   0  0  0  0  0  0  0  0  0  0  0  0
   -0.1930   21.8570   19.5060 C   0  0  0  0  0  0  0  0  0  0  0  0
    1.2470   22.2770   19.2480 C   0  0  0  0  0  0  0  0  0  0  0  0
    2.1840   21.7510   20.3350 C   0  0  0  0  0  0  0  0  0  0  0  0
    1.6180   20.5200   21.0490 C   0  0  0  0  0  0  0  0  0  0  0  0
    0.7990   19.6300   20.1030 C   0  0  2  0  0  0  0  0  0  0  0  0
    1.7560   18.8910   19.1250 C   0  0  0  0  0  0  0  0  0  0  0  0
    1.2670   18.5280   18.0060 O   0  0  0  0  0  0  0  0  0  0  0  0
    2.8910   18.5370   19.5480 O   0  0  0  0  0  0  0  0  0  0  0  0
   -2.1240   16.3390   16.8770 C   0  0  0  0  0  0  0  0  0  0  0  0
   -3.6370   15.1630   15.2980 H   0  0  0  0  0  0  0  0  0  0  0  0
   -3.2850   13.7990   14.2630 H   0  0  0  0  0  0  0  0  0  0  0  0
   -1.3480   12.4230   14.7760 H   0  0  0  0  0  0  0  0  0  0  0  0
   -0.3120   12.9510   16.0050 H   0  0  0  0  0  0  0  0  0  0  0  0
   -0.3760   13.6115   17.9303 H   0  0  0  0  0  0  0  0  0  0  0  0
   -0.0887   15.0926   19.9209 H   0  0  0  0  0  0  0  0  0  0  0  0
   -1.2986   17.2710   20.0465 H   0  0  0  0  0  0  0  0  0  0  0  0
   -3.7494   18.2435   17.2754 H   0  0  0  0  0  0  0  0  0  0  0  0
   -3.6356   18.1393   19.0943 H   0  0  0  0  0  0  0  0  0  0  0  0
   -3.2193   20.3731   18.1444 H   0  0  0  0  0  0  0  0  0  0  0  0
   -0.4930   19.9920   17.3500 H   0  0  0  0  0  0  0  0  0  0  0  0
   -1.2284   21.7734   13.2180 H   0  0  0  0  0  0  0  0  0  0  0  0
    0.9707   22.0224   12.0641 H   0  0  0  0  0  0  0  0  0  0  0  0
    3.4292   21.9241   12.1224 H   0  0  0  0  0  0  0  0  0  0  0  0
    5.5392   21.4640   13.3580 H   0  0  0  0  0  0  0  0  0  0  0  0
    5.4598   20.7268   15.7390 H   0  0  0  0  0  0  0  0  0  0  0  0
    3.2664   20.4564   16.8876 H   0  0  0  0  0  0  0  0  0  0  0  0
    0.8106   20.5644   16.8392 H   0  0  0  0  0  0  0  0  0  0  0  0
   -0.8345   22.2825   18.7202 H   0  0  0  0  0  0  0  0  0  0  0  0
   -0.4856   22.2291   20.4989 H   0  0  0  0  0  0  0  0  0  0  0  0
    1.5676   21.8771   18.2747 H   0  0  0  0  0  0  0  0  0  0  0  0
    1.2935   23.3760   19.2526 H   0  0  0  0  0  0  0  0  0  0  0  0
    3.1447   21.4804   19.8725 H   0  0  0  0  0  0  0  0  0  0  0  0
    2.3071   22.5463   21.0849 H   0  0  0  0  0  0  0  0  0  0  0  0
    2.4529   19.9309   21.4563 H   0  0  0  0  0  0  0  0  0  0  0  0
    0.9491   20.8699   21.8491 H   0  0  0  0  0  0  0  0  0  0  0  0
    0.2883   18.8191   20.6430 H   0  0  0  0  0  0  0  0  0  0  0  0
   -2.5635   16.7597   15.9605 H   0  0  0  0  0  0  0  0  0  0  0  0
  1  2  1  0
  2  3  2  0
  2  4  1  0
  4  5  2  0
  5  6  1  0
  6  7  2  0
  7  8  1  0
  8  9  1  0
  9 10  1  0
 10 11  1  0
 11 12  1  0
 12 13  2  0
 12 14  2  0
 12 15  1  0
 15 16  2  0
 16 17  1  0
 17 18  2  0
 18 19  1  0
 19 20  2  0
 20 21  1  0
 21 22  2  0
 22 23  1  0
 23 24  2  0
 10 25  1  0
 25 26  2  0
 25 27  1  0
 27 28  1  0
 28 29  1  0
 29 30  1  0
 30 31  1  0
 31 32  1  0
 32 33  1  0
 33 34  2  0
 33 35  1  0
  8 36  2  0
 36  4  1  0
 24 15  1  0
 32 27  1  0
 23 18  1  0
  1 37  1  0
  1 38  1  0
  3 39  1  0
  3 40  1  0
  5 41  1  0
  6 42  1  0
  7 43  1  0
  9 44  1  0
  9 45  1  0
 10 46  1  6
 11 47  1  0
 16 48  1  0
 17 49  1  0
 19 50  1  0
 20 51  1  0
 21 52  1  0
 22 53  1  0
 24 54  1  0
 28 55  1  0
 28 56  1  0
 29 57  1  0
 29 58  1  0
 30 59  1  0
 30 60  1  0
 31 61  1  0
 31 62  1  0
 32 63  1  1
 36 64  1  0
M  CHG  2   3   1  35  -1
M  END
>  <meeko>  (6) 
{"is_sidechain": [false], "free_energy": -8.14, "intermolecular_energy": -12.163, "internal_energy": -2.474}

$$$$
1k1i_ligand
     RDKit          3D

 64 67  0  0  0  0  0  0  0  0999 V2000
   -1.6920   12.5400   15.0520 N   0  0  0  0  0  0  0  0  0  0  0  0
   -2.1170   13.7330   15.4030 C   0  0  0  0  0  0  0  0  0  0  0  0
   -2.9650   14.3970   14.6560 N   0  0  0  0  0  0  0  0  0  0  0  0
   -1.6320   14.3340   16.6510 C   0  0  0  0  0  0  0  0  0  0  0  0
   -1.1290   13.5720   17.7110 C   0  0  0  0  0  0  0  0  0  0  0  0
   -0.8550   14.1780   18.9420 C   0  0  0  0  0  0  0  0  0  0  0  0
   -1.1380   15.5330   19.1400 C   0  0  0  0  0  0  0  0  0  0  0  0
   -1.6340   16.3040   18.0880 C   0  0  0  0  0  0  0  0  0  0  0  0
   -2.2530   17.6730   18.3110 C   0  0  0  0  0  0  0  0  0  0  0  0
   -1.2160   18.7610   18.6910 C   0  0  2  0  0  0  0  0  0  0  0  0
   -1.2210   19.0560   20.1450 N   0  0  0  0  0  0  0  0  0  0  0  0
   -0.0490   18.3500   21.0990 S   0  0  0  0  0  0  0  0  0  0  0  0
    0.7430   17.4580   20.2820 O   0  0  0  0  0  0  0  0  0  0  0  0
   -0.6670   17.9060   22.3300 O   0  0  0  0  0  0  0  0  0  0  0  0
    0.9170   19.7950   21.4710 C   0  0  0  0  0  0  0  0  0  0  0  0
    0.3710   20.8250   22.2340 C   0  0  0  0  0  0  0  0  0  0  0  0
    1.1680   21.9200   22.5720 C   0  0  0  0  0  0  0  0  0  0  0  0
    2.5080   21.9900   22.1540 C   0  0  0  0  0  0  0  0  0  0  0  0
    3.3240   23.0800   22.4980 C   0  0  0  0  0  0  0  0  0  0  0  0
    4.6540   23.1380   22.0760 C   0  0  0  0  0  0  0  0  0  0  0  0
    5.1860   22.1080   21.3040 C   0  0  0  0  0  0  0  0  0  0  0  0
    4.3890   21.0170   20.9530 C   0  0  0  0  0  0  0  0  0  0  0  0
    3.0520   20.9430   21.3720 C   0  0  0  0  0  0  0  0  0  0  0  0
    2.2430   19.8510   21.0300 C   0  0  0  0  0  0  0  0  0  0  0  0
   -1.3270   20.0600   17.8740 C   0  0  0  0  0  0  0  0  0  0  0  0
   -2.4240   20.3870   17.4050 O   0  0  0  0  0  0  0  0  0  0  0  0
   -0.1700   20.8050   17.6090 N   0  0  0  0  0  0  0  0  0  0  0  0
    0.2160   21.7350   18.6700 C   0  0  0  0  0  0  0  0  0  0  0  0
    1.3380   22.6620   18.2260 C   0  0  0  0  0  0  0  0  0  0  0  0
    2.5990   21.8780   17.8660 C   0  0  0  0  0  0  0  0  0  0  0  0
    2.2970   20.4280   17.4820 C   0  0  0  0  0  0  0  0  0  0  0  0
    0.9520   20.2920   16.7520 C   0  0  2  0  0  0  0  0  0  0  0  0
    1.0790   20.8730   15.3150 C   0  0  0  0  0  0  0  0  0  0  0  0
    0.0520   21.4560   14.8380 O   0  0  0  0  0  0  0  0  0  0  0  0
    2.1080   20.5900   14.6420 O   0  0  0  0  0  0  0  0  0  0  0  0
   -1.7770   15.7140   16.8300 C   0  0  0  0  0  0  0  0  0  0  0  0
   -1.0100   12.0640   15.6250 H   0  0  0  0  0  0  0  0  0  0  0  0
   -2.0020   12.1220   14.1870 H   0  0  0  0  0  0  0  0  0  0  0  0
   -3.2580   14.1510   13.7250 H   0  0  0  0  0  0  0  0  0  0  0  0
   -3.2670   15.3580   14.9120 H   0  0  0  0  0  0  0  0  0  0  0  0
   -0.9487   12.4952   17.5765 H   0  0  0  0  0  0  0  0  0  0  0  0
   -0.4149   13.5858   19.7578 H   0  0  0  0  0  0  0  0  0  0  0  0
   -0.9695   15.9914   20.1256 H   0  0  0  0  0  0  0  0  0  0  0  0
   -2.7596   17.9820   17.3848 H   0  0  0  0  0  0  0  0  0  0  0  0
   -2.9521   17.5806   19.1552 H   0  0  0  0  0  0  0  0  0  0  0  0
   -0.2457   18.3161   18.4252 H   0  0  0  0  0  0  0  0  0  0  0  0
   -1.2480   20.0780   20.3400 H   0  0  0  0  0  0  0  0  0  0  0  0
   -0.6764   20.7759   22.5663 H   0  0  0  0  0  0  0  0  0  0  0  0
    0.7424   22.7375   23.1724 H   0  0  0  0  0  0  0  0  0  0  0  0
    2.9108   23.8976   23.1069 H   0  0  0  0  0  0  0  0  0  0  0  0
    5.2818   23.9976   22.3535 H   0  0  0  0  0  0  0  0  0  0  0  0
    6.2334   22.1542   20.9711 H   0  0  0  0  0  0  0  0  0  0  0  0
    4.8135   20.2070   20.3417 H   0  0  0  0  0  0  0  0  0  0  0  0
    2.6516   19.0366   20.4137 H   0  0  0  0  0  0  0  0  0  0  0  0
   -0.6586   22.3416   18.9478 H   0  0  0  0  0  0  0  0  0  0  0  0
    0.5764   21.1468   19.5268 H   0  0  0  0  0  0  0  0  0  0  0  0
    1.0055   23.2296   17.3444 H   0  0  0  0  0  0  0  0  0  0  0  0
    1.5774   23.3395   19.0588 H   0  0  0  0  0  0  0  0  0  0  0  0
    3.0916   22.3729   17.0160 H   0  0  0  0  0  0  0  0  0  0  0  0
    3.2472   21.8607   18.7545 H   0  0  0  0  0  0  0  0  0  0  0  0
    3.0973   20.0617   16.8223 H   0  0  0  0  0  0  0  0  0  0  0  0
    2.2413   19.8368   18.4079 H   0  0  0  0  0  0  0  0  0  0  0  0
    0.6766   19.2390   16.5926 H   0  0  0  0  0  0  0  0  0  0  0  0
   -2.0086   16.3480   15.9614 H   0  0  0  0  0  0  0  0  0  0  0  0
  1  2  1  0
  2  3  2  0
  2  4  1  0
  4  5  2  0
  5  6  1  0
  6  7  2  0
  7  8  1  0
  8  9  1  0
  9 10  1  0
 10 11  1  0
 11 12  1  0
 12 13  2  0
 12 14  2  0
 12 15  1  0
 15 16  2  0
 16 17  1  0
 17 18  2  0
 18 19  1  0
 19 20  2  0
 20 21  1  0
 21 22  2  0
 22 23  1  0
 23 24  2  0
 10 25  1  0
 25 26  2  0
 25 27  1  0
 27 28  1  0
 28 29  1  0
 29 30  1  0
 30 31  1  0
 31 32  1  0
 32 33  1  0
 33 34  2  0
 33 35  1  0
  8 36  2  0
 36  4  1  0
 24 15  1  0
 32 27  1  0
 23 18  1  0
  1 37  1  0
  1 38  1  0
  3 39  1  0
  3 40  1  0
  5 41  1  0
  6 42  1  0
  7 43  1  0
  9 44  1  0
  9 45  1  0
 10 46  1  6
 11 47  1  0
 16 48  1  0
 17 49  1  0
 19 50  1  0
 20 51  1  0
 21 52  1  0
 22 53  1  0
 24 54  1  0
 28 55  1  0
 28 56  1  0
 29 57  1  0
 29 58  1  0
 30 59  1  0
 30 60  1  0
 31 61  1  0
 31 62  1  0
 32 63  1  6
 36 64  1  0
M  CHG  2   3   1  35  -1
M  END
>  <meeko>  (7) 
{"is_sidechain": [false], "free_energy": -8.01, "intermolecular_energy": -12.294, "internal_energy": -2.145}

$$$$
1k1i_ligand
     RDKit          3D

 64 67  0  0  0  0  0  0  0  0999 V2000
    3.9900   23.9590   19.3530 N   0  0  0  0  0  0  0  0  0  0  0  0
    4.5570   22.7740   19.3340 C   0  0  0  0  0  0  0  0  0  0  0  0
    5.8610   22.6480   19.2830 N   0  0  0  0  0  0  0  0  0  0  0  0
    3.7180   21.5690   19.3650 C   0  0  0  0  0  0  0  0  0  0  0  0
    3.8290   20.5980   20.3660 C   0  0  0  0  0  0  0  0  0  0  0  0
    3.1380   19.3870   20.2470 C   0  0  0  0  0  0  0  0  0  0  0  0
    2.3830   19.1150   19.1020 C   0  0  0  0  0  0  0  0  0  0  0  0
    2.2610   20.0790   18.1000 C   0  0  0  0  0  0  0  0  0  0  0  0
    1.7350   19.7440   16.7150 C   0  0  0  0  0  0  0  0  0  0  0  0
    0.8420   20.8580   16.1110 C   0  0  2  0  0  0  0  0  0  0  0  0
   -0.5710   20.4290   15.9740 N   0  0  0  0  0  0  0  0  0  0  0  0
   -1.5270   20.4050   17.3420 S   0  0  0  0  0  0  0  0  0  0  0  0
   -2.9010   20.6270   16.9540 O   0  0  0  0  0  0  0  0  0  0  0  0
   -0.8850   21.2070   18.3620 O   0  0  0  0  0  0  0  0  0  0  0  0
   -1.3270   18.6980   17.7930 C   0  0  0  0  0  0  0  0  0  0  0  0
   -0.9260   18.3550   19.0830 C   0  0  0  0  0  0  0  0  0  0  0  0
   -0.8410   17.0080   19.4360 C   0  0  0  0  0  0  0  0  0  0  0  0
   -1.1560   16.0000   18.5090 C   0  0  0  0  0  0  0  0  0  0  0  0
   -1.0860   14.6410   18.8560 C   0  0  0  0  0  0  0  0  0  0  0  0
   -1.4010   13.6490   17.9240 C   0  0  0  0  0  0  0  0  0  0  0  0
   -1.7890   14.0020   16.6340 C   0  0  0  0  0  0  0  0  0  0  0  0
   -1.8640   15.3480   16.2720 C   0  0  0  0  0  0  0  0  0  0  0  0
   -1.5530   16.3560   17.1970 C   0  0  0  0  0  0  0  0  0  0  0  0
   -1.6290   17.7110   16.8480 C   0  0  0  0  0  0  0  0  0  0  0  0
    1.3620   21.4440   14.7880 C   0  0  0  0  0  0  0  0  0  0  0  0
    0.7100   21.2690   13.7520 O   0  0  0  0  0  0  0  0  0  0  0  0
    2.6020   22.0960   14.7660 N   0  0  0  0  0  0  0  0  0  0  0  0
    2.7060   23.2440   15.6640 C   0  0  0  0  0  0  0  0  0  0  0  0
    3.9870   24.0320   15.4270 C   0  0  0  0  0  0  0  0  0  0  0  0
    5.2240   23.1740   15.6870 C   0  0  0  0  0  0  0  0  0  0  0  0
    4.9370   21.6760   15.5510 C   0  0  0  0  0  0  0  0  0  0  0  0
    3.8910   21.3850   14.4640 C   0  0  2  0  0  0  0  0  0  0  0  0
    4.5230   21.6120   13.0610 C   0  0  0  0  0  0  0  0  0  0  0  0
    3.7710   22.1230   12.1690 O   0  0  0  0  0  0  0  0  0  0  0  0
    5.6640   21.1260   12.8310 O   0  0  0  0  0  0  0  0  0  0  0  0
    2.8490   21.3310   18.2960 C   0  0  0  0  0  0  0  0  0  0  0  0
    2.9820   24.0300   19.3530 H   0  0  0  0  0  0  0  0  0  0  0  0
    4.5530   24.7950   19.3110 H   0  0  0  0  0  0  0  0  0  0  0  0
    6.5250   23.3860   19.1200 H   0  0  0  0  0  0  0  0  0  0  0  0
    6.3070   21.7110   19.2240 H   0  0  0  0  0  0  0  0  0  0  0  0
    4.4599   20.7866   21.2472 H   0  0  0  0  0  0  0  0  0  0  0  0
    3.1890   18.6456   21.0580 H   0  0  0  0  0  0  0  0  0  0  0  0
    1.8848   18.1406   18.9908 H   0  0  0  0  0  0  0  0  0  0  0  0
    2.5928   19.5830   16.0455 H   0  0  0  0  0  0  0  0  0  0  0  0
    1.1104   18.8438   16.8131 H   0  0  0  0  0  0  0  0  0  0  0  0
    0.8923   21.6753   16.8455 H   0  0  0  0  0  0  0  0  0  0  0  0
   -1.0700   20.9480   15.2220 H   0  0  0  0  0  0  0  0  0  0  0  0
   -0.6792   19.1381   19.8150 H   0  0  0  0  0  0  0  0  0  0  0  0
   -0.5236   16.7316   20.4523 H   0  0  0  0  0  0  0  0  0  0  0  0
   -0.7798   14.3544   19.8729 H   0  0  0  0  0  0  0  0  0  0  0  0
   -1.3425   12.5883   18.2094 H   0  0  0  0  0  0  0  0  0  0  0  0
   -2.0363   13.2204   15.9006 H   0  0  0  0  0  0  0  0  0  0  0  0
   -2.1700   15.6211   15.2513 H   0  0  0  0  0  0  0  0  0  0  0  0
   -1.9267   17.9995   15.8291 H   0  0  0  0  0  0  0  0  0  0  0  0
    1.8441   23.9066   15.4964 H   0  0  0  0  0  0  0  0  0  0  0  0
    2.7210   22.8693   16.6981 H   0  0  0  0  0  0  0  0  0  0  0  0
    4.0055   24.3801   14.3837 H   0  0  0  0  0  0  0  0  0  0  0  0
    4.0036   24.8840   16.1225 H   0  0  0  0  0  0  0  0  0  0  0  0
    6.0042   23.4510   14.9627 H   0  0  0  0  0  0  0  0  0  0  0  0
    5.5486   23.3598   16.7215 H   0  0  0  0  0  0  0  0  0  0  0  0
    5.8719   21.1577   15.2916 H   0  0  0  0  0  0  0  0  0  0  0  0
    4.5364   21.3190   16.5112 H   0  0  0  0  0  0  0  0  0  0  0  0
    3.5908   20.3268   14.4555 H   0  0  0  0  0  0  0  0  0  0  0  0
    2.6234   22.1473   17.5940 H   0  0  0  0  0  0  0  0  0  0  0  0
  1  2  1  0
  2  3  2  0
  2  4  1  0
  4  5  2  0
  5  6  1  0
  6  7  2  0
  7  8  1  0
  8  9  1  0
  9 10  1  0
 10 11  1  0
 11 12  1  0
 12 13  2  0
 12 14  2  0
 12 15  1  0
 15 16  2  0
 16 17  1  0
 17 18  2  0
 18 19  1  0
 19 20  2  0
 20 21  1  0
 21 22  2  0
 22 23  1  0
 23 24  2  0
 10 25  1  0
 25 26  2  0
 25 27  1  0
 27 28  1  0
 28 29  1  0
 29 30  1  0
 30 31  1  0
 31 32  1  0
 32 33  1  0
 33 34  2  0
 33 35  1  0
  8 36  2  0
 36  4  1  0
 24 15  1  0
 32 27  1  0
 23 18  1  0
  1 37  1  0
  1 38  1  0
  3 39  1  0
  3 40  1  0
  5 41  1  0
  6 42  1  0
  7 43  1  0
  9 44  1  0
  9 45  1  0
 10 46  1  1
 11 47  1  0
 16 48  1  0
 17 49  1  0
 19 50  1  0
 20 51  1  0
 21 52  1  0
 22 53  1  0
 24 54  1  0
 28 55  1  0
 28 56  1  0
 29 57  1  0
 29 58  1  0
 30 59  1  0
 30 60  1  0
 31 61  1  0
 31 62  1  0
 32 63  1  6
 36 64  1  0
M  CHG  2   3   1  35  -1
M  END
>  <meeko>  (8) 
{"is_sidechain": [false], "free_energy": -7.941, "intermolecular_energy": -11.784, "internal_energy": -2.549}

$$$$
1k1i_ligand
     RDKit          3D

 64 67  0  0  0  0  0  0  0  0999 V2000
   -1.6400   12.5780   15.1230 N   0  0  0  0  0  0  0  0  0  0  0  0
   -2.1170   13.7560   15.4570 C   0  0  0  0  0  0  0  0  0  0  0  0
   -3.0580   14.3310   14.7490 N   0  0  0  0  0  0  0  0  0  0  0  0
   -1.5820   14.4440   16.6390 C   0  0  0  0  0  0  0  0  0  0  0  0
   -0.8370   13.7850   17.6220 C   0  0  0  0  0  0  0  0  0  0  0  0
   -0.5130   14.4440   18.8140 C   0  0  0  0  0  0  0  0  0  0  0  0
   -0.9820   15.7380   19.0560 C   0  0  0  0  0  0  0  0  0  0  0  0
   -1.7220   16.4070   18.0790 C   0  0  0  0  0  0  0  0  0  0  0  0
   -2.5200   17.6620   18.3870 C   0  0  0  0  0  0  0  0  0  0  0  0
   -2.2060   18.8400   17.4280 C   0  0  2  0  0  0  0  0  0  0  0  0
   -1.1240   19.7110   17.9470 N   0  0  0  0  0  0  0  0  0  0  0  0
    0.2830   19.8390   17.0590 S   0  0  0  0  0  0  0  0  0  0  0  0
    0.1870   20.9960   16.1990 O   0  0  0  0  0  0  0  0  0  0  0  0
    0.6150   18.5290   16.5390 O   0  0  0  0  0  0  0  0  0  0  0  0
    1.4160   20.1980   18.3800 C   0  0  0  0  0  0  0  0  0  0  0  0
    1.3590   19.4740   19.5690 C   0  0  0  0  0  0  0  0  0  0  0  0
    2.3010   19.7260   20.5670 C   0  0  0  0  0  0  0  0  0  0  0  0
    3.3010   20.6960   20.3840 C   0  0  0  0  0  0  0  0  0  0  0  0
    4.2630   20.9510   21.3760 C   0  0  0  0  0  0  0  0  0  0  0  0
    5.2500   21.9190   21.1810 C   0  0  0  0  0  0  0  0  0  0  0  0
    5.2900   22.6460   19.9930 C   0  0  0  0  0  0  0  0  0  0  0  0
    4.3430   22.4050   18.9970 C   0  0  0  0  0  0  0  0  0  0  0  0
    3.3450   21.4350   19.1760 C   0  0  0  0  0  0  0  0  0  0  0  0
    2.3920   21.1810   18.1820 C   0  0  0  0  0  0  0  0  0  0  0  0
   -3.4320   19.6770   17.0260 C   0  0  0  0  0  0  0  0  0  0  0  0
   -4.2220   19.2290   16.1870 O   0  0  0  0  0  0  0  0  0  0  0  0
   -3.5880   20.9650   17.5580 N   0  0  0  0  0  0  0  0  0  0  0  0
   -3.5960   22.0400   16.5670 C   0  0  0  0  0  0  0  0  0  0  0  0
   -3.5430   23.4120   17.2230 C   0  0  0  0  0  0  0  0  0  0  0  0
   -4.7580   23.6480   18.1190 C   0  0  0  0  0  0  0  0  0  0  0  0
   -5.3970   22.3420   18.5960 C   0  0  0  0  0  0  0  0  0  0  0  0
   -4.3530   21.2370   18.8220 C   0  0  2  0  0  0  0  0  0  0  0  0
   -3.5300   21.5540   20.1030 C   0  0  0  0  0  0  0  0  0  0  0  0
   -2.2940   21.2460   20.0830 O   0  0  0  0  0  0  0  0  0  0  0  0
   -4.1490   21.9280   21.1370 O   0  0  0  0  0  0  0  0  0  0  0  0
   -1.9230   15.7850   16.8440 C   0  0  0  0  0  0  0  0  0  0  0  0
   -0.8880   12.1730   15.6630 H   0  0  0  0  0  0  0  0  0  0  0  0
   -1.9840   12.1020   14.3020 H   0  0  0  0  0  0  0  0  0  0  0  0
   -3.4010   14.0250   13.8540 H   0  0  0  0  0  0  0  0  0  0  0  0
   -3.4040   15.2810   14.9870 H   0  0  0  0  0  0  0  0  0  0  0  0
   -0.5056   12.7489   17.4587 H   0  0  0  0  0  0  0  0  0  0  0  0
    0.1143   13.9404   19.5643 H   0  0  0  0  0  0  0  0  0  0  0  0
   -0.7681   16.2297   20.0165 H   0  0  0  0  0  0  0  0  0  0  0  0
   -3.5908   17.4231   18.3075 H   0  0  0  0  0  0  0  0  0  0  0  0
   -2.2412   17.9845   19.4011 H   0  0  0  0  0  0  0  0  0  0  0  0
   -1.8539   18.3545   16.5059 H   0  0  0  0  0  0  0  0  0  0  0  0
   -1.4660   20.6660   18.1810 H   0  0  0  0  0  0  0  0  0  0  0  0
    0.5799   18.7121   19.7193 H   0  0  0  0  0  0  0  0  0  0  0  0
    2.2603   19.1585   21.5084 H   0  0  0  0  0  0  0  0  0  0  0  0
    4.2381   20.3815   22.3168 H   0  0  0  0  0  0  0  0  0  0  0  0
    5.9969   22.1080   21.9661 H   0  0  0  0  0  0  0  0  0  0  0  0
    6.0674   23.4092   19.8405 H   0  0  0  0  0  0  0  0  0  0  0  0
    4.3792   22.9818   18.0611 H   0  0  0  0  0  0  0  0  0  0  0  0
    2.4106   21.7552   17.2439 H   0  0  0  0  0  0  0  0  0  0  0  0
   -2.7214   21.9253   15.9098 H   0  0  0  0  0  0  0  0  0  0  0  0
   -4.5323   21.9704   15.9938 H   0  0  0  0  0  0  0  0  0  0  0  0
   -2.6298   23.4826   17.8322 H   0  0  0  0  0  0  0  0  0  0  0  0
   -3.5432   24.1751   16.4308 H   0  0  0  0  0  0  0  0  0  0  0  0
   -4.4404   24.2272   18.9986 H   0  0  0  0  0  0  0  0  0  0  0  0
   -5.5094   24.1910   17.5269 H   0  0  0  0  0  0  0  0  0  0  0  0
   -5.9249   22.5303   19.5425 H   0  0  0  0  0  0  0  0  0  0  0  0
   -6.0903   21.9985   17.8141 H   0  0  0  0  0  0  0  0  0  0  0  0
   -4.8230   20.2661   19.0377 H   0  0  0  0  0  0  0  0  0  0  0  0
   -2.3587   16.3623   16.0152 H   0  0  0  0  0  0  0  0  0  0  0  0
  1  2  1  0
  2  3  2  0
  2  4  1  0
  4  5  2  0
  5  6  1  0
  6  7  2  0
  7  8  1  0
  8  9  1  0
  9 10  1  0
 10 11  1  0
 11 12  1  0
 12 13  2  0
 12 14  2  0
 12 15  1  0
 15 16  2  0
 16 17  1  0
 17 18  2  0
 18 19  1  0
 19 20  2  0
 20 21  1  0
 21 22  2  0
 22 23  1  0
 23 24  2  0
 10 25  1  0
 25 26  2  0
 25 27  1  0
 27 28  1  0
 28 29  1  0
 29 30  1  0
 30 31  1  0
 31 32  1  0
 32 33  1  0
 33 34  2  0
 33 35  1  0
  8 36  2  0
 36  4  1  0
 24 15  1  0
 32 27  1  0
 23 18  1  0
  1 37  1  0
  1 38  1  0
  3 39  1  0
  3 40  1  0
  5 41  1  0
  6 42  1  0
  7 43  1  0
  9 44  1  0
  9 45  1  0
 10 46  1  6
 11 47  1  0
 16 48  1  0
 17 49  1  0
 19 50  1  0
 20 51  1  0
 21 52  1  0
 22 53  1  0
 24 54  1  0
 28 55  1  0
 28 56  1  0
 29 57  1  0
 29 58  1  0
 30 59  1  0
 30 60  1  0
 31 61  1  0
 31 62  1  0
 32 63  1  1
 36 64  1  0
M  CHG  2   3   1  35  -1
M  END
>  <meeko>  (9) 
{"is_sidechain": [false], "free_energy": -7.911, "intermolecular_energy": -12.092, "internal_energy": -2.196}

$$$$
