1k1i_ligand
     RDKit          3D

 64 67  0  0  0  0  0  0  0  0999 V2000
   -1.7000   12.5030   15.0610 N   0  0  0  0  0  0  0  0  0  0  0  0
   -2.0990   13.7290   15.3160 C   0  0  0  0  0  0  0  0  0  0  0  0
   -2.8830   14.3720   14.4860 N   0  0  0  0  0  0  0  0  0  0  0  0
   -1.6560   14.3920   16.5490 C   0  0  0  0  0  0  0  0  0  0  0  0
   -1.0360   13.7020   17.5960 C   0  0  0  0  0  0  0  0  0  0  0  0
   -0.8030   14.3440   18.8180 C   0  0  0  0  0  0  0  0  0  0  0  0
   -1.2430   15.6550   19.0210 C   0  0  0  0  0  0  0  0  0  0  0  0
   -1.8570   16.3550   17.9810 C   0  0  0  0  0  0  0  0  0  0  0  0
   -2.6320   17.6400   18.2180 C   0  0  0  0  0  0  0  0  0  0  0  0
   -1.8880   18.9060   17.7200 C   0  0  2  0  0  0  0  0  0  0  0  0
   -2.3440   19.3310   16.3750 N   0  0  0  0  0  0  0  0  0  0  0  0
   -3.0910   20.8150   16.2250 S   0  0  0  0  0  0  0  0  0  0  0  0
   -3.2930   21.0960   14.8220 O   0  0  0  0  0  0  0  0  0  0  0  0
   -2.4200   21.7540   17.0990 O   0  0  0  0  0  0  0  0  0  0  0  0
   -4.6580   20.4170   16.9620 C   0  0  0  0  0  0  0  0  0  0  0  0
   -5.5410   19.5590   16.3110 C   0  0  0  0  0  0  0  0  0  0  0  0
   -6.7370   19.2050   16.9380 C   0  0  0  0  0  0  0  0  0  0  0  0
   -7.0550   19.7030   18.2130 C   0  0  0  0  0  0  0  0  0  0  0  0
   -8.2490   19.3460   18.8600 C   0  0  0  0  0  0  0  0  0  0  0  0
   -8.5530   19.8490   20.1260 C   0  0  0  0  0  0  0  0  0  0  0  0
   -7.6690   20.7170   20.7630 C   0  0  0  0  0  0  0  0  0  0  0  0
   -6.4770   21.0820   20.1350 C   0  0  0  0  0  0  0  0  0  0  0  0
   -6.1560   20.5830   18.8630 C   0  0  0  0  0  0  0  0  0  0  0  0
   -4.9610   20.9390   18.2240 C   0  0  0  0  0  0  0  0  0  0  0  0
   -0.3540   18.8020   17.7650 C   0  0  0  0  0  0  0  0  0  0  0  0
    0.2570   18.4410   16.7520 O   0  0  0  0  0  0  0  0  0  0  0  0
    0.3150   19.0390   18.9730 N   0  0  0  0  0  0  0  0  0  0  0  0
    1.7690   19.1450   18.8580 C   0  0  0  0  0  0  0  0  0  0  0  0
    2.4420   19.1780   20.2230 C   0  0  0  0  0  0  0  0  0  0  0  0
    1.9900   20.3880   21.0380 C   0  0  0  0  0  0  0  0  0  0  0  0
    0.6280   20.9220   20.5870 C   0  0  0  0  0  0  0  0  0  0  0  0
   -0.3050   19.7970   20.1130 C   0  0  2  0  0  0  0  0  0  0  0  0
   -0.7910   18.9730   21.3400 C   0  0  0  0  0  0  0  0  0  0  0  0
   -1.2790   19.6310   22.3160 O   0  0  0  0  0  0  0  0  0  0  0  0
   -0.5210   17.7420   21.3820 O   0  0  0  0  0  0  0  0  0  0  0  0
   -1.9620   15.7450   16.7280 C   0  0  0  0  0  0  0  0  0  0  0  0
   -1.0640   12.0420   15.6980 H   0  0  0  0  0  0  0  0  0  0  0  0
   -1.9800   12.0420   14.2090 H   0  0  0  0  0  0  0  0  0  0  0  0
   -3.1370   14.0780   13.5580 H   0  0  0  0  0  0  0  0  0  0  0  0
   -3.1630   15.3560   14.6660 H   0  0  0  0  0  0  0  0  0  0  0  0
   -0.7313   12.6540   17.4590 H   0  0  0  0  0  0  0  0  0  0  0  0
   -0.2712   13.8143   19.6221 H   0  0  0  0  0  0  0  0  0  0  0  0
   -1.1054   16.1355   20.0009 H   0  0  0  0  0  0  0  0  0  0  0  0
   -3.5941   17.5699   17.6894 H   0  0  0  0  0  0  0  0  0  0  0  0
   -2.7629   17.7456   19.3051 H   0  0  0  0  0  0  0  0  0  0  0  0
   -2.1618   19.6853   18.4465 H   0  0  0  0  0  0  0  0  0  0  0  0
   -1.5900   19.2560   15.6610 H   0  0  0  0  0  0  0  0  0  0  0  0
   -5.2986   19.1644   15.3132 H   0  0  0  0  0  0  0  0  0  0  0  0
   -7.4386   18.5284   16.4281 H   0  0  0  0  0  0  0  0  0  0  0  0
   -8.9529   18.6620   18.3634 H   0  0  0  0  0  0  0  0  0  0  0  0
   -9.4916   19.5597   20.6213 H   0  0  0  0  0  0  0  0  0  0  0  0
   -7.9101   21.1144   21.7600 H   0  0  0  0  0  0  0  0  0  0  0  0
   -5.7822   21.7676   20.6421 H   0  0  0  0  0  0  0  0  0  0  0  0
   -4.2601   21.6299   18.7153 H   0  0  0  0  0  0  0  0  0  0  0  0
    2.1461   18.2780   18.2958 H   0  0  0  0  0  0  0  0  0  0  0  0
    2.0037   20.0853   18.3377 H   0  0  0  0  0  0  0  0  0  0  0  0
    2.1837   18.2602   20.7716 H   0  0  0  0  0  0  0  0  0  0  0  0
    3.5292   19.2493   20.0714 H   0  0  0  0  0  0  0  0  0  0  0  0
    1.9215   20.0952   22.0961 H   0  0  0  0  0  0  0  0  0  0  0  0
    2.7297   21.1881   20.8873 H   0  0  0  0  0  0  0  0  0  0  0  0
    0.1541   21.4438   21.4315 H   0  0  0  0  0  0  0  0  0  0  0  0
    0.7947   21.6037   19.7399 H   0  0  0  0  0  0  0  0  0  0  0  0
   -1.2310   20.1921   19.6698 H   0  0  0  0  0  0  0  0  0  0  0  0
   -2.2922   16.3413   15.8646 H   0  0  0  0  0  0  0  0  0  0  0  0
  1  2  1  0
  2  3  2  0
  2  4  1  0
  4  5  2  0
  5  6  1  0
  6  7  2  0
  7  8  1  0
  8  9  1  0
  9 10  1  0
 10 11  1  0
 11 12  1  0
 12 13  2  0
 12 14  2  0
 12 15  1  0
 15 16  2  0
 16 17  1  0
 17 18  2  0
 18 19  1  0
 19 20  2  0
 20 21  1  0
 21 22  2  0
 22 23  1  0
 23 24  2  0
 10 25  1  0
 25 26  2  0
 25 27  1  0
 27 28  1  0
 28 29  1  0
 29 30  1  0
 30 31  1  0
 31 32  1  0
 32 33  1  0
 33 34  2  0
 33 35  1  0
  8 36  2  0
 36  4  1  0
 24 15  1  0
 32 27  1  0
 23 18  1  0
  1 37  1  0
  1 38  1  0
  3 39  1  0
  3 40  1  0
  5 41  1  0
  6 42  1  0
  7 43  1  0
  9 44  1  0
  9 45  1  0
 10 46  1  1
 11 47  1  0
 16 48  1  0
 17 49  1  0
 19 50  1  0
 20 51  1  0
 21 52  1  0
 22 53  1  0
 24 54  1  0
 28 55  1  0
 28 56  1  0
 29 57  1  0
 29 58  1  0
 30 59  1  0
 30 60  1  0
 31 61  1  0
 31 62  1  0
 32 63  1  6
 36 64  1  0
M  CHG  2   3   1  35  -1
M  END
>  <meeko>  (1) 
{"is_sidechain": [false], "free_energy": -8.947, "intermolecular_energy": -13.655, "internal_energy": -1.965}

$$$$
1k1i_ligand
     RDKit          3D

 64 67  0  0  0  0  0  0  0  0999 V2000
   -3.0870   14.3070   14.7420 N   0  0  0  0  0  0  0  0  0  0  0  0
   -2.1530   13.7500   15.4810 C   0  0  0  0  0  0  0  0  0  0  0  0
   -1.6260   12.5970   15.1500 N   0  0  0  0  0  0  0  0  0  0  0  0
   -1.6950   14.4300   16.7000 C   0  0  0  0  0  0  0  0  0  0  0  0
   -1.1910   13.7370   17.8050 C   0  0  0  0  0  0  0  0  0  0  0  0
   -0.9440   14.4150   19.0040 C   0  0  0  0  0  0  0  0  0  0  0  0
   -1.2570   15.7730   19.1250 C   0  0  0  0  0  0  0  0  0  0  0  0
   -1.7550   16.4750   18.0260 C   0  0  0  0  0  0  0  0  0  0  0  0
   -2.4040   17.8410   18.1660 C   0  0  0  0  0  0  0  0  0  0  0  0
   -1.4580   19.0110   17.7930 C   0  0  2  0  0  0  0  0  0  0  0  0
   -1.7220   19.5320   16.4300 N   0  0  0  0  0  0  0  0  0  0  0  0
   -1.6730   21.1820   16.1890 S   0  0  0  0  0  0  0  0  0  0  0  0
   -1.4050   21.8290   17.4540 O   0  0  0  0  0  0  0  0  0  0  0  0
   -2.8030   21.5580   15.3670 O   0  0  0  0  0  0  0  0  0  0  0  0
   -0.2150   21.2740   15.1780 C   0  0  0  0  0  0  0  0  0  0  0  0
   -0.3100   21.6640   13.8440 C   0  0  0  0  0  0  0  0  0  0  0  0
    0.8540   21.7960   13.0860 C   0  0  0  0  0  0  0  0  0  0  0  0
    2.1140   21.5420   13.6530 C   0  0  0  0  0  0  0  0  0  0  0  0
    3.2940   21.6820   12.9050 C   0  0  0  0  0  0  0  0  0  0  0  0
    4.5400   21.4260   13.4810 C   0  0  0  0  0  0  0  0  0  0  0  0
    4.6240   21.0250   14.8130 C   0  0  0  0  0  0  0  0  0  0  0  0
    3.4610   20.8810   15.5710 C   0  0  0  0  0  0  0  0  0  0  0  0
    2.2020   21.1370   15.0070 C   0  0  0  0  0  0  0  0  0  0  0  0
    1.0280   21.0000   15.7600 C   0  0  0  0  0  0  0  0  0  0  0  0
    0.0380   18.7040   17.9760 C   0  0  0  0  0  0  0  0  0  0  0  0
    0.6300   18.0470   17.1120 O   0  0  0  0  0  0  0  0  0  0  0  0
    0.6820   19.1050   19.1540 N   0  0  0  0  0  0  0  0  0  0  0  0
    2.1070   19.3960   19.0050 C   0  0  0  0  0  0  0  0  0  0  0  0
    2.7840   19.6050   20.3510 C   0  0  0  0  0  0  0  0  0  0  0  0
    2.1820   20.7940   21.0990 C   0  0  0  0  0  0  0  0  0  0  0  0
    0.7560   21.1110   20.6420 C   0  0  0  0  0  0  0  0  0  0  0  0
   -0.0220   19.8440   20.2570 C   0  0  2  0  0  0  0  0  0  0  0  0
   -0.3800   19.0430   21.5410 C   0  0  0  0  0  0  0  0  0  0  0  0
   -0.1660   17.7870   21.5130 O   0  0  0  0  0  0  0  0  0  0  0  0
   -1.0140   19.6320   22.4590 O   0  0  0  0  0  0  0  0  0  0  0  0
   -1.8700   15.8140   16.8000 C   0  0  0  0  0  0  0  0  0  0  0  0
   -3.5050   15.1780   15.0380 H   0  0  0  0  0  0  0  0  0  0  0  0
   -3.4250   13.8420   13.9120 H   0  0  0  0  0  0  0  0  0  0  0  0
   -1.9500   11.9800   14.4250 H   0  0  0  0  0  0  0  0  0  0  0  0
   -0.9190   12.1370   15.7570 H   0  0  0  0  0  0  0  0  0  0  0  0
   -0.9886   12.6583   17.7317 H   0  0  0  0  0  0  0  0  0  0  0  0
   -0.5015   13.8774   19.8556 H   0  0  0  0  0  0  0  0  0  0  0  0
   -1.1107   16.2877   20.0861 H   0  0  0  0  0  0  0  0  0  0  0  0
   -3.2832   17.8790   17.5060 H   0  0  0  0  0  0  0  0  0  0  0  0
   -2.6745   17.9659   19.2249 H   0  0  0  0  0  0  0  0  0  0  0  0
   -1.6985   19.7978   18.5231 H   0  0  0  0  0  0  0  0  0  0  0  0
   -1.1330   19.0660   15.7080 H   0  0  0  0  0  0  0  0  0  0  0  0
   -1.2927   21.8658   13.3928 H   0  0  0  0  0  0  0  0  0  0  0  0
    0.7842   22.1026   12.0319 H   0  0  0  0  0  0  0  0  0  0  0  0
    3.2362   21.9971   11.8527 H   0  0  0  0  0  0  0  0  0  0  0  0
    5.4560   21.5410   12.8829 H   0  0  0  0  0  0  0  0  0  0  0  0
    5.6055   20.8223   15.2663 H   0  0  0  0  0  0  0  0  0  0  0  0
    3.5322   20.5634   16.6218 H   0  0  0  0  0  0  0  0  0  0  0  0
    1.0835   20.6767   16.8099 H   0  0  0  0  0  0  0  0  0  0  0  0
    2.5908   18.5529   18.4901 H   0  0  0  0  0  0  0  0  0  0  0  0
    2.2077   20.3243   18.4235 H   0  0  0  0  0  0  0  0  0  0  0  0
    2.6575   18.6977   20.9600 H   0  0  0  0  0  0  0  0  0  0  0  0
    3.8500   19.8108   20.1742 H   0  0  0  0  0  0  0  0  0  0  0  0
    2.1649   20.5627   22.1743 H   0  0  0  0  0  0  0  0  0  0  0  0
    2.8057   21.6746   20.8854 H   0  0  0  0  0  0  0  0  0  0  0  0
    0.2253   21.6179   21.4614 H   0  0  0  0  0  0  0  0  0  0  0  0
    0.8205   21.7529   19.7511 H   0  0  0  0  0  0  0  0  0  0  0  0
   -0.9977   20.0823   19.8085 H   0  0  0  0  0  0  0  0  0  0  0  0
   -2.1030   16.3942   15.8950 H   0  0  0  0  0  0  0  0  0  0  0  0
  1  2  1  0
  2  3  2  0
  2  4  1  0
  4  5  2  0
  5  6  1  0
  6  7  2  0
  7  8  1  0
  8  9  1  0
  9 10  1  0
 10 11  1  0
 11 12  1  0
 12 13  2  0
 12 14  2  0
 12 15  1  0
 15 16  2  0
 16 17  1  0
 17 18  2  0
 18 19  1  0
 19 20  2  0
 20 21  1  0
 21 22  2  0
 22 23  1  0
 23 24  2  0
 10 25  1  0
 25 26  2  0
 25 27  1  0
 27 28  1  0
 28 29  1  0
 29 30  1  0
 30 31  1  0
 31 32  1  0
 32 33  1  0
 33 34  2  0
 33 35  1  0
  8 36  2  0
 36  4  1  0
 24 15  1  0
 32 27  1  0
 23 18  1  0
  1 37  1  0
  1 38  1  0
  3 39  1  0
  3 40  1  0
  5 41  1  0
  6 42  1  0
  7 43  1  0
  9 44  1  0
  9 45  1  0
 10 46  1  1
 11 47  1  0
 16 48  1  0
 17 49  1  0
 19 50  1  0
 20 51  1  0
 21 52  1  0
 22 53  1  0
 24 54  1  0
 28 55  1  0
 28 56  1  0
 29 57  1  0
 29 58  1  0
 30 59  1  0
 30 60  1  0
 31 61  1  0
 31 62  1  0
 32 63  1  6
 36 64  1  0
M  CHG  2   3   1  35  -1
M  END
>  <meeko>  (2) 
{"is_sidechain": [false], "free_energy": -8.584, "intermolecular_energy": -13.577, "internal_energy": -1.489}

$$$$
1k1i_ligand
     RDKit          3D

 64 67  0  0  0  0  0  0  0  0999 V2000
   -1.0400   13.2190   16.0180 N   0  0  0  0  0  0  0  0  0  0  0  0
   -1.8740   14.2350   15.9760 C   0  0  0  0  0  0  0  0  0  0  0  0
   -2.8360   14.2830   15.0880 N   0  0  0  0  0  0  0  0  0  0  0  0
   -1.7220   15.3350   16.9360 C   0  0  0  0  0  0  0  0  0  0  0  0
   -0.7620   15.3230   17.9520 C   0  0  0  0  0  0  0  0  0  0  0  0
   -0.7830   16.3050   18.9490 C   0  0  0  0  0  0  0  0  0  0  0  0
   -1.7980   17.2670   18.9700 C   0  0  0  0  0  0  0  0  0  0  0  0
   -2.7580   17.2920   17.9570 C   0  0  0  0  0  0  0  0  0  0  0  0
   -4.0460   18.0860   18.0840 C   0  0  0  0  0  0  0  0  0  0  0  0
   -3.8690   19.5960   17.7760 C   0  0  2  0  0  0  0  0  0  0  0  0
   -4.4470   20.4550   18.8370 N   0  0  0  0  0  0  0  0  0  0  0  0
   -3.6060   21.8230   19.2920 S   0  0  0  0  0  0  0  0  0  0  0  0
   -4.2050   22.3600   20.4930 O   0  0  0  0  0  0  0  0  0  0  0  0
   -3.3920   22.6400   18.1170 O   0  0  0  0  0  0  0  0  0  0  0  0
   -2.0530   21.0690   19.7140 C   0  0  0  0  0  0  0  0  0  0  0  0
   -1.8790   20.4720   20.9610 C   0  0  0  0  0  0  0  0  0  0  0  0
   -0.6750   19.8270   21.2470 C   0  0  0  0  0  0  0  0  0  0  0  0
    0.3560   19.7720   20.2930 C   0  0  0  0  0  0  0  0  0  0  0  0
    1.5680   19.1160   20.5640 C   0  0  0  0  0  0  0  0  0  0  0  0
    2.5840   19.0700   19.6080 C   0  0  0  0  0  0  0  0  0  0  0  0
    2.4040   19.6800   18.3680 C   0  0  0  0  0  0  0  0  0  0  0  0
    1.2060   20.3380   18.0830 C   0  0  0  0  0  0  0  0  0  0  0  0
    0.1740   20.3900   19.0320 C   0  0  0  0  0  0  0  0  0  0  0  0
   -1.0340   21.0420   18.7550 C   0  0  0  0  0  0  0  0  0  0  0  0
   -4.3810   20.0260   16.3900 C   0  0  0  0  0  0  0  0  0  0  0  0
   -3.5750   20.1480   15.4600 O   0  0  0  0  0  0  0  0  0  0  0  0
   -5.7350   20.3500   16.2280 N   0  0  0  0  0  0  0  0  0  0  0  0
   -5.9920   21.4920   15.3530 C   0  0  0  0  0  0  0  0  0  0  0  0
   -7.4510   21.9220   15.4000 C   0  0  0  0  0  0  0  0  0  0  0  0
   -8.3770   20.8040   14.9250 C   0  0  0  0  0  0  0  0  0  0  0  0
   -7.7430   19.4180   15.0690 C   0  0  0  0  0  0  0  0  0  0  0  0
   -6.8320   19.3250   16.3030 C   0  0  2  0  0  0  0  0  0  0  0  0
   -7.7020   19.3000   17.5910 C   0  0  0  0  0  0  0  0  0  0  0  0
   -8.7330   18.5520   17.5730 O   0  0  0  0  0  0  0  0  0  0  0  0
   -7.4500   20.1350   18.5030 O   0  0  0  0  0  0  0  0  0  0  0  0
   -2.6440   16.3860   16.8990 C   0  0  0  0  0  0  0  0  0  0  0  0
   -0.2830   13.2230   16.6870 H   0  0  0  0  0  0  0  0  0  0  0  0
   -1.1200   12.4650   15.3520 H   0  0  0  0  0  0  0  0  0  0  0  0
   -2.9540   13.6660   14.3020 H   0  0  0  0  0  0  0  0  0  0  0  0
   -3.4680   15.1060   15.0260 H   0  0  0  0  0  0  0  0  0  0  0  0
    0.0111   14.5406   17.9679 H   0  0  0  0  0  0  0  0  0  0  0  0
    0.0021   16.3203   19.7193 H   0  0  0  0  0  0  0  0  0  0  0  0
   -1.8398   18.0043   19.7853 H   0  0  0  0  0  0  0  0  0  0  0  0
   -4.7831   17.6704   17.3812 H   0  0  0  0  0  0  0  0  0  0  0  0
   -4.3778   18.0035   19.1295 H   0  0  0  0  0  0  0  0  0  0  0  0
   -2.7793   19.7452   17.7583 H   0  0  0  0  0  0  0  0  0  0  0  0
   -5.4360   20.7150   18.6400 H   0  0  0  0  0  0  0  0  0  0  0  0
   -2.6820   20.5087   21.7119 H   0  0  0  0  0  0  0  0  0  0  0  0
   -0.5310   19.3560   22.2306 H   0  0  0  0  0  0  0  0  0  0  0  0
    1.7182   18.6330   21.5408 H   0  0  0  0  0  0  0  0  0  0  0  0
    3.5277   18.5518   19.8336 H   0  0  0  0  0  0  0  0  0  0  0  0
    3.2048   19.6431   17.6147 H   0  0  0  0  0  0  0  0  0  0  0  0
    1.0699   20.8208   17.1040 H   0  0  0  0  0  0  0  0  0  0  0  0
   -1.1822   21.5337   17.7822 H   0  0  0  0  0  0  0  0  0  0  0  0
   -5.3618   22.3349   15.6730 H   0  0  0  0  0  0  0  0  0  0  0  0
   -5.7566   21.1923   14.3211 H   0  0  0  0  0  0  0  0  0  0  0  0
   -7.7126   22.1880   16.4348 H   0  0  0  0  0  0  0  0  0  0  0  0
   -7.5792   22.7855   14.7308 H   0  0  0  0  0  0  0  0  0  0  0  0
   -9.3006   20.8333   15.5217 H   0  0  0  0  0  0  0  0  0  0  0  0
   -8.5807   20.9694   13.8568 H   0  0  0  0  0  0  0  0  0  0  0  0
   -8.5437   18.6695   15.1619 H   0  0  0  0  0  0  0  0  0  0  0  0
   -7.1258   19.2333   14.1774 H   0  0  0  0  0  0  0  0  0  0  0  0
   -6.2789   18.3747   16.3349 H   0  0  0  0  0  0  0  0  0  0  0  0
   -3.2931   16.5020   16.0186 H   0  0  0  0  0  0  0  0  0  0  0  0
  1  2  1  0
  2  3  2  0
  2  4  1  0
  4  5  2  0
  5  6  1  0
  6  7  2  0
  7  8  1  0
  8  9  1  0
  9 10  1  0
 10 11  1  0
 11 12  1  0
 12 13  2  0
 12 14  2  0
 12 15  1  0
 15 16  2  0
 16 17  1  0
 17 18  2  0
 18 19  1  0
 19 20  2  0
 20 21  1  0
 21 22  2  0
 22 23  1  0
 23 24  2  0
 10 25  1  0
 25 26  2  0
 25 27  1  0
 27 28  1  0
 28 29  1  0
 29 30  1  0
 30 31  1  0
 31 32  1  0
 32 33  1  0
 33 34  2  0
 33 35  1  0
  8 36  2  0
 36  4  1  0
 24 15  1  0
 32 27  1  0
 23 18  1  0
  1 37  1  0
  1 38  1  0
  3 39  1  0
  3 40  1  0
  5 41  1  0
  6 42  1  0
  7 43  1  0
  9 44  1  0
  9 45  1  0
 10 46  1  6
 11 47  1  0
 16 48  1  0
 17 49  1  0
 19 50  1  0
 20 51  1  0
 21 52  1  0
 22 53  1  0
 24 54  1  0
 28 55  1  0
 28 56  1  0
 29 57  1  0
 29 58  1  0
 30 59  1  0
 30 60  1  0
 31 61  1  0
 31 62  1  0
 32 63  1  6
 36 64  1  0
M  CHG  2   3   1  35  -1
M  END
>  <meeko>  (3) 
{"is_sidechain": [false], "free_energy": -8.329, "intermolecular_energy": -11.624, "internal_energy": -3.053}

$$$$
1k1i_ligand
     RDKit          3D

 64 67  0  0  0  0  0  0  0  0999 V2000
   -2.8580   14.1900   14.7650 N   0  0  0  0  0  0  0  0  0  0  0  0
   -1.8430   13.8860   15.5420 C   0  0  0  0  0  0  0  0  0  0  0  0
   -1.1000   12.8330   15.3050 N   0  0  0  0  0  0  0  0  0  0  0  0
   -1.5380   14.7380   16.6990 C   0  0  0  0  0  0  0  0  0  0  0  0
   -0.7170   14.3160   17.7510 C   0  0  0  0  0  0  0  0  0  0  0  0
   -0.6110   15.0930   18.9100 C   0  0  0  0  0  0  0  0  0  0  0  0
   -1.3680   16.2590   19.0510 C   0  0  0  0  0  0  0  0  0  0  0  0
   -2.1850   16.6920   18.0050 C   0  0  0  0  0  0  0  0  0  0  0  0
   -3.2570   17.7500   18.2010 C   0  0  0  0  0  0  0  0  0  0  0  0
   -2.8060   19.1690   17.7680 C   0  0  2  0  0  0  0  0  0  0  0  0
   -2.9820   20.1670   18.8500 N   0  0  0  0  0  0  0  0  0  0  0  0
   -1.7140   20.4240   19.9040 S   0  0  0  0  0  0  0  0  0  0  0  0
   -1.5850   19.2720   20.7670 O   0  0  0  0  0  0  0  0  0  0  0  0
   -1.8280   21.7650   20.4370 O   0  0  0  0  0  0  0  0  0  0  0  0
   -0.3740   20.4190   18.7360 C   0  0  0  0  0  0  0  0  0  0  0  0
    0.6140   19.4400   18.8080 C   0  0  0  0  0  0  0  0  0  0  0  0
    1.6200   19.4140   17.8410 C   0  0  0  0  0  0  0  0  0  0  0  0
    1.6430   20.3600   16.8010 C   0  0  0  0  0  0  0  0  0  0  0  0
    2.6430   20.3370   15.8150 C   0  0  0  0  0  0  0  0  0  0  0  0
    2.6550   21.2830   14.7890 C   0  0  0  0  0  0  0  0  0  0  0  0
    1.6680   22.2660   14.7330 C   0  0  0  0  0  0  0  0  0  0  0  0
    0.6670   22.3030   15.7050 C   0  0  0  0  0  0  0  0  0  0  0  0
    0.6400   21.3570   16.7420 C   0  0  0  0  0  0  0  0  0  0  0  0
   -0.3620   21.3810   17.7200 C   0  0  0  0  0  0  0  0  0  0  0  0
   -3.4440   19.6680   16.4600 C   0  0  0  0  0  0  0  0  0  0  0  0
   -2.7940   19.6070   15.4090 O   0  0  0  0  0  0  0  0  0  0  0  0
   -4.7160   20.2530   16.4960 N   0  0  0  0  0  0  0  0  0  0  0  0
   -4.8630   21.4520   15.6730 C   0  0  0  0  0  0  0  0  0  0  0  0
   -6.1870   22.1570   15.9320 C   0  0  0  0  0  0  0  0  0  0  0  0
   -7.3730   21.2560   15.5900 C   0  0  0  0  0  0  0  0  0  0  0  0
   -7.0110   19.7700   15.6340 C   0  0  0  0  0  0  0  0  0  0  0  0
   -5.9720   19.4600   16.7220 C   0  0  2  0  0  0  0  0  0  0  0  0
   -6.6410   19.5610   18.1230 C   0  0  0  0  0  0  0  0  0  0  0  0
   -6.0420   20.2710   18.9960 O   0  0  0  0  0  0  0  0  0  0  0  0
   -7.6230   18.8110   18.3750 O   0  0  0  0  0  0  0  0  0  0  0  0
   -2.1780   15.9760   16.8050 C   0  0  0  0  0  0  0  0  0  0  0  0
   -3.4390   14.9850   14.9910 H   0  0  0  0  0  0  0  0  0  0  0  0
   -3.0910   13.6030   13.9780 H   0  0  0  0  0  0  0  0  0  0  0  0
   -1.2910   12.1080   14.6340 H   0  0  0  0  0  0  0  0  0  0  0  0
   -0.3250   12.5680   15.9450 H   0  0  0  0  0  0  0  0  0  0  0  0
   -0.1553   13.3740   17.6668 H   0  0  0  0  0  0  0  0  0  0  0  0
    0.0723   14.7841   19.7148 H   0  0  0  0  0  0  0  0  0  0  0  0
   -1.3202   16.8359   19.9864 H   0  0  0  0  0  0  0  0  0  0  0  0
   -4.1387   17.4676   17.6070 H   0  0  0  0  0  0  0  0  0  0  0  0
   -3.4785   17.7933   19.2776 H   0  0  0  0  0  0  0  0  0  0  0  0
   -1.7311   19.0615   17.5608 H   0  0  0  0  0  0  0  0  0  0  0  0
   -3.3150   21.0850   18.4890 H   0  0  0  0  0  0  0  0  0  0  0  0
    0.6016   18.6957   19.6179 H   0  0  0  0  0  0  0  0  0  0  0  0
    2.4042   18.6443   17.8931 H   0  0  0  0  0  0  0  0  0  0  0  0
    3.4255   19.5647   15.8519 H   0  0  0  0  0  0  0  0  0  0  0  0
    3.4443   21.2530   14.0234 H   0  0  0  0  0  0  0  0  0  0  0  0
    1.6781   23.0113   13.9240 H   0  0  0  0  0  0  0  0  0  0  0  0
   -0.1088   23.0814   15.6580 H   0  0  0  0  0  0  0  0  0  0  0  0
   -1.1408   22.1573   17.6894 H   0  0  0  0  0  0  0  0  0  0  0  0
   -4.0399   22.1446   15.9028 H   0  0  0  0  0  0  0  0  0  0  0  0
   -4.8395   21.1464   14.6166 H   0  0  0  0  0  0  0  0  0  0  0  0
   -6.2430   22.4347   16.9949 H   0  0  0  0  0  0  0  0  0  0  0  0
   -6.2348   23.0509   15.2927 H   0  0  0  0  0  0  0  0  0  0  0  0
   -8.1795   21.4443   16.3139 H   0  0  0  0  0  0  0  0  0  0  0  0
   -7.6881   21.4932   14.5632 H   0  0  0  0  0  0  0  0  0  0  0  0
   -7.9224   19.1889   15.8381 H   0  0  0  0  0  0  0  0  0  0  0  0
   -6.5741   19.4990   14.6615 H   0  0  0  0  0  0  0  0  0  0  0  0
   -5.6180   18.4200   16.6673 H   0  0  0  0  0  0  0  0  0  0  0  0
   -2.6871   16.3957   15.9249 H   0  0  0  0  0  0  0  0  0  0  0  0
  1  2  1  0
  2  3  2  0
  2  4  1  0
  4  5  2  0
  5  6  1  0
  6  7  2  0
  7  8  1  0
  8  9  1  0
  9 10  1  0
 10 11  1  0
 11 12  1  0
 12 13  2  0
 12 14  2  0
 12 15  1  0
 15 16  2  0
 16 17  1  0
 17 18  2  0
 18 19  1  0
 19 20  2  0
 20 21  1  0
 21 22  2  0
 22 23  1  0
 23 24  2  0
 10 25  1  0
 25 26  2  0
 25 27  1  0
 27 28  1  0
 28 29  1  0
 29 30  1  0
 30 31  1  0
 31 32  1  0
 32 33  1  0
 33 34  2  0
 33 35  1  0
  8 36  2  0
 36  4  1  0
 24 15  1  0
 32 27  1  0
 23 18  1  0
  1 37  1  0
  1 38  1  0
  3 39  1  0
  3 40  1  0
  5 41  1  0
  6 42  1  0
  7 43  1  0
  9 44  1  0
  9 45  1  0
 10 46  1  6
 11 47  1  0
 16 48  1  0
 17 49  1  0
 19 50  1  0
 20 51  1  0
 21 52  1  0
 22 53  1  0
 24 54  1  0
 28 55  1  0
 28 56  1  0
 29 57  1  0
 29 58  1  0
 30 59  1  0
 30 60  1  0
 31 61  1  0
 31 62  1  0
 32 63  1  6
 36 64  1  0
M  CHG  2   3   1  35  -1
M  END
>  <meeko>  (4) 
{"is_sidechain": [false], "free_energy": -8.314, "intermolecular_energy": -12.184, "internal_energy": -2.47}

$$$$
1k1i_ligand
     RDKit          3D

 64 67  0  0  0  0  0  0  0  0999 V2000
   -0.6300   13.0990   16.6390 N   0  0  0  0  0  0  0  0  0  0  0  0
   -1.5620   13.9730   16.3320 C   0  0  0  0  0  0  0  0  0  0  0  0
   -2.3400   13.7970   15.2920 N   0  0  0  0  0  0  0  0  0  0  0  0
   -1.7330   15.1710   17.1650 C   0  0  0  0  0  0  0  0  0  0  0  0
   -2.8320   16.0260   17.0400 C   0  0  0  0  0  0  0  0  0  0  0  0
   -2.8520   17.2460   17.7260 C   0  0  0  0  0  0  0  0  0  0  0  0
   -1.7500   17.6450   18.4880 C   0  0  0  0  0  0  0  0  0  0  0  0
   -0.6500   16.7960   18.6240 C   0  0  0  0  0  0  0  0  0  0  0  0
    0.6850   17.2830   19.1600 C   0  0  0  0  0  0  0  0  0  0  0  0
    0.7980   18.8290   19.2140 C   0  0  2  0  0  0  0  0  0  0  0  0
    1.3990   19.3900   17.9800 N   0  0  0  0  0  0  0  0  0  0  0  0
    0.6660   20.7110   17.2730 S   0  0  0  0  0  0  0  0  0  0  0  0
    0.7450   21.8310   18.1830 O   0  0  0  0  0  0  0  0  0  0  0  0
   -0.5940   20.2830   16.7020 O   0  0  0  0  0  0  0  0  0  0  0  0
    1.8020   20.9780   15.9330 C   0  0  0  0  0  0  0  0  0  0  0  0
    1.3800   21.6270   14.7750 C   0  0  0  0  0  0  0  0  0  0  0  0
    2.3050   21.8870   13.7620 C   0  0  0  0  0  0  0  0  0  0  0  0
    3.6500   21.5040   13.9010 C   0  0  0  0  0  0  0  0  0  0  0  0
    4.5930   21.7710   12.8950 C   0  0  0  0  0  0  0  0  0  0  0  0
    5.9260   21.3840   13.0460 C   0  0  0  0  0  0  0  0  0  0  0  0
    6.3350   20.7250   14.2030 C   0  0  0  0  0  0  0  0  0  0  0  0
    5.4100   20.4520   15.2120 C   0  0  0  0  0  0  0  0  0  0  0  0
    4.0680   20.8360   15.0780 C   0  0  0  0  0  0  0  0  0  0  0  0
    3.1320   20.5730   16.0860 C   0  0  0  0  0  0  0  0  0  0  0  0
    1.5140   19.3710   20.4630 C   0  0  0  0  0  0  0  0  0  0  0  0
    2.7380   19.5460   20.4290 O   0  0  0  0  0  0  0  0  0  0  0  0
    0.7810   19.5810   21.6380 N   0  0  0  0  0  0  0  0  0  0  0  0
    1.1660   20.7700   22.3970 C   0  0  0  0  0  0  0  0  0  0  0  0
    0.4900   20.8130   23.7600 C   0  0  0  0  0  0  0  0  0  0  0  0
   -1.0310   20.8670   23.6260 C   0  0  0  0  0  0  0  0  0  0  0  0
   -1.5210   20.3040   22.2900 C   0  0  0  0  0  0  0  0  0  0  0  0
   -0.6470   19.1410   21.7980 C   0  0  2  0  0  0  0  0  0  0  0  0
   -0.9150   17.8830   22.6730 C   0  0  0  0  0  0  0  0  0  0  0  0
   -0.1760   17.7290   23.6990 O   0  0  0  0  0  0  0  0  0  0  0  0
   -1.7110   17.0070   22.2370 O   0  0  0  0  0  0  0  0  0  0  0  0
   -0.7030   15.5270   18.0420 C   0  0  0  0  0  0  0  0  0  0  0  0
   -0.0180   13.2760   17.4230 H   0  0  0  0  0  0  0  0  0  0  0  0
   -0.4890   12.2810   16.0640 H   0  0  0  0  0  0  0  0  0  0  0  0
   -2.2300   13.0970   14.5780 H   0  0  0  0  0  0  0  0  0  0  0  0
   -3.0470   14.5100   15.0240 H   0  0  0  0  0  0  0  0  0  0  0  0
   -3.6814   15.7399   16.4023 H   0  0  0  0  0  0  0  0  0  0  0  0
   -3.7390   17.8938   17.6652 H   0  0  0  0  0  0  0  0  0  0  0  0
   -1.7495   18.6285   18.9807 H   0  0  0  0  0  0  0  0  0  0  0  0
    0.8177   16.8876   20.1779 H   0  0  0  0  0  0  0  0  0  0  0  0
    1.4632   16.9236   18.4707 H   0  0  0  0  0  0  0  0  0  0  0  0
   -0.2433   19.1762   19.2859 H   0  0  0  0  0  0  0  0  0  0  0  0
    2.4160   19.5850   18.0910 H   0  0  0  0  0  0  0  0  0  0  0  0
    0.3293   21.9314   14.6598 H   0  0  0  0  0  0  0  0  0  0  0  0
    1.9772   22.3975   12.8445 H   0  0  0  0  0  0  0  0  0  0  0  0
    4.2779   22.2907   11.9781 H   0  0  0  0  0  0  0  0  0  0  0  0
    6.6541   21.5998   12.2502 H   0  0  0  0  0  0  0  0  0  0  0  0
    7.3853   20.4202   14.3213 H   0  0  0  0  0  0  0  0  0  0  0  0
    5.7376   19.9295   16.1229 H   0  0  0  0  0  0  0  0  0  0  0  0
    3.4436   20.0466   17.0003 H   0  0  0  0  0  0  0  0  0  0  0  0
    2.2566   20.7634   22.5404 H   0  0  0  0  0  0  0  0  0  0  0  0
    0.8476   21.6566   21.8290 H   0  0  0  0  0  0  0  0  0  0  0  0
    0.7677   19.9115   24.3259 H   0  0  0  0  0  0  0  0  0  0  0  0
    0.8240   21.7208   24.2838 H   0  0  0  0  0  0  0  0  0  0  0  0
   -1.4782   20.2800   24.4417 H   0  0  0  0  0  0  0  0  0  0  0  0
   -1.3340   21.9233   23.6753 H   0  0  0  0  0  0  0  0  0  0  0  0
   -2.5532   19.9444   22.4138 H   0  0  0  0  0  0  0  0  0  0  0  0
   -1.4659   21.1091   21.5424 H   0  0  0  0  0  0  0  0  0  0  0  0
   -0.9207   18.8247   20.7806 H   0  0  0  0  0  0  0  0  0  0  0  0
    0.0813   14.7928   18.2782 H   0  0  0  0  0  0  0  0  0  0  0  0
  1  2  1  0
  2  3  2  0
  2  4  1  0
  4  5  2  0
  5  6  1  0
  6  7  2  0
  7  8  1  0
  8  9  1  0
  9 10  1  0
 10 11  1  0
 11 12  1  0
 12 13  2  0
 12 14  2  0
 12 15  1  0
 15 16  2  0
 16 17  1  0
 17 18  2  0
 18 19  1  0
 19 20  2  0
 20 21  1  0
 21 22  2  0
 22 23  1  0
 23 24  2  0
 10 25  1  0
 25 26  2  0
 25 27  1  0
 27 28  1  0
 28 29  1  0
 29 30  1  0
 30 31  1  0
 31 32  1  0
 32 33  1  0
 33 34  2  0
 33 35  1  0
  8 36  2  0
 36  4  1  0
 24 15  1  0
 32 27  1  0
 23 18  1  0
  1 37  1  0
  1 38  1  0
  3 39  1  0
  3 40  1  0
  5 41  1  0
  6 42  1  0
  7 43  1  0
  9 44  1  0
  9 45  1  0
 10 46  1  1
 11 47  1  0
 16 48  1  0
 17 49  1  0
 19 50  1  0
 20 51  1  0
 21 52  1  0
 22 53  1  0
 24 54  1  0
 28 55  1  0
 28 56  1  0
 29 57  1  0
 29 58  1  0
 30 59  1  0
 30 60  1  0
 31 61  1  0
 31 62  1  0
 32 63  1  6
 36 64  1  0
M  CHG  2   3   1  35  -1
M  END
>  <meeko>  (5) 
{"is_sidechain": [false], "free_energy": -8.299, "intermolecular_energy": -13.207, "internal_energy": -1.423}

$$$$
1k1i_ligand
     RDKit          3D

 64 67  0  0  0  0  0  0  0  0999 V2000
   -1.0680   13.1840   15.8490 N   0  0  0  0  0  0  0  0  0  0  0  0
   -1.8670   14.2280   15.8760 C   0  0  0  0  0  0  0  0  0  0  0  0
   -2.8630   14.3410   15.0330 N   0  0  0  0  0  0  0  0  0  0  0  0
   -1.6360   15.2890   16.8650 C   0  0  0  0  0  0  0  0  0  0  0  0
   -0.6650   15.1890   17.8660 C   0  0  0  0  0  0  0  0  0  0  0  0
   -0.6130   16.1410   18.8910 C   0  0  0  0  0  0  0  0  0  0  0  0
   -1.5670   17.1610   18.9550 C   0  0  0  0  0  0  0  0  0  0  0  0
   -2.5370   17.2740   17.9570 C   0  0  0  0  0  0  0  0  0  0  0  0
   -3.7730   18.1400   18.1260 C   0  0  0  0  0  0  0  0  0  0  0  0
   -3.7350   19.4360   17.2750 C   0  0  2  0  0  0  0  0  0  0  0  0
   -2.3780   20.0280   17.2170 N   0  0  0  0  0  0  0  0  0  0  0  0
   -2.0570   21.1590   16.0320 S   0  0  0  0  0  0  0  0  0  0  0  0
   -2.4070   22.4690   16.5310 O   0  0  0  0  0  0  0  0  0  0  0  0
   -2.5740   20.6610   14.7740 O   0  0  0  0  0  0  0  0  0  0  0  0
   -0.2870   21.0180   15.9820 C   0  0  0  0  0  0  0  0  0  0  0  0
    0.3960   20.3800   17.0150 C   0  0  0  0  0  0  0  0  0  0  0  0
    1.7790   20.2210   16.9230 C   0  0  0  0  0  0  0  0  0  0  0  0
    2.4850   20.6930   15.8030 C   0  0  0  0  0  0  0  0  0  0  0  0
    3.8750   20.5280   15.6930 C   0  0  0  0  0  0  0  0  0  0  0  0
    4.5640   21.0040   14.5750 C   0  0  0  0  0  0  0  0  0  0  0  0
    3.8740   21.6510   13.5530 C   0  0  0  0  0  0  0  0  0  0  0  0
    2.4920   21.8230   13.6470 C   0  0  0  0  0  0  0  0  0  0  0  0
    1.7850   21.3490   14.7620 C   0  0  0  0  0  0  0  0  0  0  0  0
    0.3970   21.5120   14.8650 C   0  0  0  0  0  0  0  0  0  0  0  0
   -4.7740   20.4960   17.6820 C   0  0  0  0  0  0  0  0  0  0  0  0
   -4.5580   21.2040   18.6720 O   0  0  0  0  0  0  0  0  0  0  0  0
   -5.9780   20.5850   16.9710 N   0  0  0  0  0  0  0  0  0  0  0  0
   -5.9160   21.4000   15.7590 C   0  0  0  0  0  0  0  0  0  0  0  0
   -7.2970   21.6360   15.1660 C   0  0  0  0  0  0  0  0  0  0  0  0
   -7.9610   20.3210   14.7610 C   0  0  0  0  0  0  0  0  0  0  0  0
   -7.3990   19.1210   15.5280 C   0  0  0  0  0  0  0  0  0  0  0  0
   -7.0050   19.4880   16.9660 C   0  0  2  0  0  0  0  0  0  0  0  0
   -8.2890   19.7050   17.8170 C   0  0  0  0  0  0  0  0  0  0  0  0
   -9.1870   18.8050   17.7420 O   0  0  0  0  0  0  0  0  0  0  0  0
   -8.4510   20.8200   18.3860 O   0  0  0  0  0  0  0  0  0  0  0  0
   -2.4930   16.3940   16.8720 C   0  0  0  0  0  0  0  0  0  0  0  0
   -0.2840   13.1390   16.4840 H   0  0  0  0  0  0  0  0  0  0  0  0
   -1.2030   12.4570   15.1620 H   0  0  0  0  0  0  0  0  0  0  0  0
   -3.0360   13.7550   14.2330 H   0  0  0  0  0  0  0  0  0  0  0  0
   -3.4670   15.1860   15.0260 H   0  0  0  0  0  0  0  0  0  0  0  0
    0.0591   14.3611   17.8481 H   0  0  0  0  0  0  0  0  0  0  0  0
    0.1819   16.0863   19.6494 H   0  0  0  0  0  0  0  0  0  0  0  0
   -1.5534   17.8748   19.7919 H   0  0  0  0  0  0  0  0  0  0  0  0
   -4.6542   17.5526   17.8285 H   0  0  0  0  0  0  0  0  0  0  0  0
   -3.8154   18.4448   19.1821 H   0  0  0  0  0  0  0  0  0  0  0  0
   -4.0174   19.1061   16.2643 H   0  0  0  0  0  0  0  0  0  0  0  0
   -2.0730   20.4070   18.1380 H   0  0  0  0  0  0  0  0  0  0  0  0
   -0.1493   20.0056   17.8939 H   0  0  0  0  0  0  0  0  0  0  0  0
    2.3236   19.7201   17.7370 H   0  0  0  0  0  0  0  0  0  0  0  0
    4.4275   20.0183   16.4961 H   0  0  0  0  0  0  0  0  0  0  0  0
    5.6531   20.8676   14.5018 H   0  0  0  0  0  0  0  0  0  0  0  0
    4.4172   22.0259   12.6730 H   0  0  0  0  0  0  0  0  0  0  0  0
    1.9514   22.3359   12.8379 H   0  0  0  0  0  0  0  0  0  0  0  0
   -0.1559   22.0289   14.0669 H   0  0  0  0  0  0  0  0  0  0  0  0
   -5.4637   22.3718   16.0061 H   0  0  0  0  0  0  0  0  0  0  0  0
   -5.3117   20.8607   15.0147 H   0  0  0  0  0  0  0  0  0  0  0  0
   -7.9267   22.1395   15.9143 H   0  0  0  0  0  0  0  0  0  0  0  0
   -7.1860   22.2596   14.2666 H   0  0  0  0  0  0  0  0  0  0  0  0
   -9.0401   20.3941   14.9615 H   0  0  0  0  0  0  0  0  0  0  0  0
   -7.7588   20.1594   13.6919 H   0  0  0  0  0  0  0  0  0  0  0  0
   -8.1637   18.3309   15.5604 H   0  0  0  0  0  0  0  0  0  0  0  0
   -6.4936   18.7787   15.0055 H   0  0  0  0  0  0  0  0  0  0  0  0
   -6.4830   18.6623   17.4717 H   0  0  0  0  0  0  0  0  0  0  0  0
   -3.1462   16.5744   16.0055 H   0  0  0  0  0  0  0  0  0  0  0  0
  1  2  1  0
  2  3  2  0
  2  4  1  0
  4  5  2  0
  5  6  1  0
  6  7  2  0
  7  8  1  0
  8  9  1  0
  9 10  1  0
 10 11  1  0
 11 12  1  0
 12 13  2  0
 12 14  2  0
 12 15  1  0
 15 16  2  0
 16 17  1  0
 17 18  2  0
 18 19  1  0
 19 20  2  0
 20 21  1  0
 21 22  2  0
 22 23  1  0
 23 24  2  0
 10 25  1  0
 25 26  2  0
 25 27  1  0
 27 28  1  0
 28 29  1  0
 29 30  1  0
 30 31  1  0
 31 32  1  0
 32 33  1  0
 33 34  2  0
 33 35  1  0
  8 36  2  0
 36  4  1  0
 24 15  1  0
 32 27  1  0
 23 18  1  0
  1 37  1  0
  1 38  1  0
  3 39  1  0
  3 40  1  0
  5 41  1  0
  6 42  1  0
  7 43  1  0
  9 44  1  0
  9 45  1  0
 10 46  1  6
 11 47  1  0
 16 48  1  0
 17 49  1  0
 19 50  1  0
 20 51  1  0
 21 52  1  0
 22 53  1  0
 24 54  1  0
 28 55  1  0
 28 56  1  0
 29 57  1  0
 29 58  1  0
 30 59  1  0
 30 60  1  0
 31 61  1  0
 31 62  1  0
 32 63  1  1
 36 64  1  0
M  CHG  2   3   1  35  -1
M  END
>  <meeko>  (6) 
{"is_sidechain": [false], "free_energy": -8.231, "intermolecular_energy": -12.74, "internal_energy": -1.787}

$$$$
1k1i_ligand
     RDKit          3D

 64 67  0  0  0  0  0  0  0  0999 V2000
   -3.0460   14.2820   14.6210 N   0  0  0  0  0  0  0  0  0  0  0  0
   -2.1030   13.7920   15.3940 C   0  0  0  0  0  0  0  0  0  0  0  0
   -1.5340   12.6430   15.1220 N   0  0  0  0  0  0  0  0  0  0  0  0
   -1.6820   14.5420   16.5840 C   0  0  0  0  0  0  0  0  0  0  0  0
   -1.0050   13.9430   17.6520 C   0  0  0  0  0  0  0  0  0  0  0  0
   -0.7930   14.6590   18.8360 C   0  0  0  0  0  0  0  0  0  0  0  0
   -1.3080   15.9500   18.9830 C   0  0  0  0  0  0  0  0  0  0  0  0
   -1.9790   16.5590   17.9210 C   0  0  0  0  0  0  0  0  0  0  0  0
   -2.8260   17.8060   18.1090 C   0  0  0  0  0  0  0  0  0  0  0  0
   -2.1350   19.0990   17.6050 C   0  0  2  0  0  0  0  0  0  0  0  0
   -2.5300   19.4410   16.2170 N   0  0  0  0  0  0  0  0  0  0  0  0
   -3.0540   20.9940   15.9040 S   0  0  0  0  0  0  0  0  0  0  0  0
   -3.1290   21.1810   14.4730 O   0  0  0  0  0  0  0  0  0  0  0  0
   -2.3160   21.9060   16.7530 O   0  0  0  0  0  0  0  0  0  0  0  0
   -4.7040   20.8690   16.5530 C   0  0  0  0  0  0  0  0  0  0  0  0
   -5.1470   21.7680   17.5210 C   0  0  0  0  0  0  0  0  0  0  0  0
   -6.4670   21.6950   17.9680 C   0  0  0  0  0  0  0  0  0  0  0  0
   -7.3480   20.7290   17.4520 C   0  0  0  0  0  0  0  0  0  0  0  0
   -8.6820   20.6520   17.8850 C   0  0  0  0  0  0  0  0  0  0  0  0
   -9.5460   19.6870   17.3650 C   0  0  0  0  0  0  0  0  0  0  0  0
   -9.0900   18.7840   16.4070 C   0  0  0  0  0  0  0  0  0  0  0  0
   -7.7670   18.8470   15.9660 C   0  0  0  0  0  0  0  0  0  0  0  0
   -6.8870   19.8120   16.4770 C   0  0  0  0  0  0  0  0  0  0  0  0
   -5.5580   19.8880   16.0380 C   0  0  0  0  0  0  0  0  0  0  0  0
   -0.6030   19.0990   17.7490 C   0  0  0  0  0  0  0  0  0  0  0  0
    0.0870   18.5770   16.8660 O   0  0  0  0  0  0  0  0  0  0  0  0
   -0.0230   19.6200   18.9140 N   0  0  0  0  0  0  0  0  0  0  0  0
   -0.9270   20.4100   19.7480 C   0  0  0  0  0  0  0  0  0  0  0  0
   -0.1840   21.1240   20.8670 C   0  0  0  0  0  0  0  0  0  0  0  0
    0.5020   20.1300   21.8030 C   0  0  0  0  0  0  0  0  0  0  0  0
    0.7740   18.7830   21.1290 C   0  0  0  0  0  0  0  0  0  0  0  0
    1.1050   18.9410   19.6370 C   0  0  2  0  0  0  0  0  0  0  0  0
    2.5270   19.5510   19.4810 C   0  0  0  0  0  0  0  0  0  0  0  0
    2.7060   20.3480   18.5030 O   0  0  0  0  0  0  0  0  0  0  0  0
    3.4560   19.1010   20.2060 O   0  0  0  0  0  0  0  0  0  0  0  0
   -2.0660   15.8810   16.7020 C   0  0  0  0  0  0  0  0  0  0  0  0
   -3.4960   15.1520   14.8730 H   0  0  0  0  0  0  0  0  0  0  0  0
   -3.3600   13.7690   13.8110 H   0  0  0  0  0  0  0  0  0  0  0  0
   -1.8300   11.9830   14.4230 H   0  0  0  0  0  0  0  0  0  0  0  0
   -0.8200   12.2350   15.7570 H   0  0  0  0  0  0  0  0  0  0  0  0
   -0.6394   12.9095   17.5612 H   0  0  0  0  0  0  0  0  0  0  0  0
   -0.2179   14.2030   19.6553 H   0  0  0  0  0  0  0  0  0  0  0  0
   -1.1846   16.4862   19.9355 H   0  0  0  0  0  0  0  0  0  0  0  0
   -3.7676   17.6750   17.5557 H   0  0  0  0  0  0  0  0  0  0  0  0
   -2.9932   17.9262   19.1896 H   0  0  0  0  0  0  0  0  0  0  0  0
   -2.5046   19.8856   18.2792 H   0  0  0  0  0  0  0  0  0  0  0  0
   -1.7970   19.1840   15.5240 H   0  0  0  0  0  0  0  0  0  0  0  0
   -4.4634   22.5273   17.9286 H   0  0  0  0  0  0  0  0  0  0  0  0
   -6.8220   22.4014   18.7328 H   0  0  0  0  0  0  0  0  0  0  0  0
   -9.0498   21.3600   18.6422 H   0  0  0  0  0  0  0  0  0  0  0  0
  -10.5887   19.6393   17.7121 H   0  0  0  0  0  0  0  0  0  0  0  0
   -9.7712   18.0228   15.9989 H   0  0  0  0  0  0  0  0  0  0  0  0
   -7.4109   18.1321   15.2096 H   0  0  0  0  0  0  0  0  0  0  0  0
   -5.1860   19.1751   15.2874 H   0  0  0  0  0  0  0  0  0  0  0  0
   -1.4284   21.1598   19.1184 H   0  0  0  0  0  0  0  0  0  0  0  0
   -1.6570   19.7254   20.2046 H   0  0  0  0  0  0  0  0  0  0  0  0
    0.5771   21.7849   20.4266 H   0  0  0  0  0  0  0  0  0  0  0  0
   -0.9130   21.7041   21.4518 H   0  0  0  0  0  0  0  0  0  0  0  0
    1.4595   20.5592   22.1330 H   0  0  0  0  0  0  0  0  0  0  0  0
   -0.1737   19.9489   22.6519 H   0  0  0  0  0  0  0  0  0  0  0  0
    1.6246   18.2998   21.6320 H   0  0  0  0  0  0  0  0  0  0  0  0
   -0.1371   18.1723   21.2115 H   0  0  0  0  0  0  0  0  0  0  0  0
    1.1732   17.9690   19.1265 H   0  0  0  0  0  0  0  0  0  0  0  0
   -2.4447   16.4123   15.8164 H   0  0  0  0  0  0  0  0  0  0  0  0
  1  2  1  0
  2  3  2  0
  2  4  1  0
  4  5  2  0
  5  6  1  0
  6  7  2  0
  7  8  1  0
  8  9  1  0
  9 10  1  0
 10 11  1  0
 11 12  1  0
 12 13  2  0
 12 14  2  0
 12 15  1  0
 15 16  2  0
 16 17  1  0
 17 18  2  0
 18 19  1  0
 19 20  2  0
 20 21  1  0
 21 22  2  0
 22 23  1  0
 23 24  2  0
 10 25  1  0
 25 26  2  0
 25 27  1  0
 27 28  1  0
 28 29  1  0
 29 30  1  0
 30 31  1  0
 31 32  1  0
 32 33  1  0
 33 34  2  0
 33 35  1  0
  8 36  2  0
 36  4  1  0
 24 15  1  0
 32 27  1  0
 23 18  1  0
  1 37  1  0
  1 38  1  0
  3 39  1  0
  3 40  1  0
  5 41  1  0
  6 42  1  0
  7 43  1  0
  9 44  1  0
  9 45  1  0
 10 46  1  1
 11 47  1  0
 16 48  1  0
 17 49  1  0
 19 50  1  0
 20 51  1  0
 21 52  1  0
 22 53  1  0
 24 54  1  0
 28 55  1  0
 28 56  1  0
 29 57  1  0
 29 58  1  0
 30 59  1  0
 30 60  1  0
 31 61  1  0
 31 62  1  0
 32 63  1  6
 36 64  1  0
M  CHG  2   3   1  35  -1
M  END
>  <meeko>  (7) 
{"is_sidechain": [false], "free_energy": -8.199, "intermolecular_energy": -12.695, "internal_energy": -1.783}

$$$$
1k1i_ligand
     RDKit          3D

 64 67  0  0  0  0  0  0  0  0999 V2000
   -3.1910   14.2600   14.7810 N   0  0  0  0  0  0  0  0  0  0  0  0
   -2.1870   13.8050   15.4990 C   0  0  0  0  0  0  0  0  0  0  0  0
   -1.5870   12.6830   15.1880 N   0  0  0  0  0  0  0  0  0  0  0  0
   -1.7340   14.5660   16.6710 C   0  0  0  0  0  0  0  0  0  0  0  0
   -0.9140   14.0100   17.6590 C   0  0  0  0  0  0  0  0  0  0  0  0
   -0.6650   14.7170   18.8410 C   0  0  0  0  0  0  0  0  0  0  0  0
   -1.2820   15.9510   19.0690 C   0  0  0  0  0  0  0  0  0  0  0  0
   -2.0970   16.5170   18.0860 C   0  0  0  0  0  0  0  0  0  0  0  0
   -3.0350   17.6740   18.3820 C   0  0  0  0  0  0  0  0  0  0  0  0
   -2.4400   19.0570   18.0100 C   0  0  2  0  0  0  0  0  0  0  0  0
   -1.0560   19.2250   18.5140 N   0  0  0  0  0  0  0  0  0  0  0  0
    0.1430   19.6140   17.4210 S   0  0  0  0  0  0  0  0  0  0  0  0
   -0.2600   20.7920   16.6870 O   0  0  0  0  0  0  0  0  0  0  0  0
    0.5570   18.4020   16.7460 O   0  0  0  0  0  0  0  0  0  0  0  0
    1.4300   20.0610   18.5620 C   0  0  0  0  0  0  0  0  0  0  0  0
    1.7360   19.2280   19.6360 C   0  0  0  0  0  0  0  0  0  0  0  0
    2.7940   19.5630   20.4810 C   0  0  0  0  0  0  0  0  0  0  0  0
    3.5510   20.7270   20.2590 C   0  0  0  0  0  0  0  0  0  0  0  0
    4.6260   21.0700   21.0940 C   0  0  0  0  0  0  0  0  0  0  0  0
    5.3680   22.2290   20.8630 C   0  0  0  0  0  0  0  0  0  0  0  0
    5.0470   23.0620   19.7930 C   0  0  0  0  0  0  0  0  0  0  0  0
    3.9810   22.7360   18.9530 C   0  0  0  0  0  0  0  0  0  0  0  0
    3.2260   21.5730   19.1710 C   0  0  0  0  0  0  0  0  0  0  0  0
    2.1580   21.2330   18.3310 C   0  0  0  0  0  0  0  0  0  0  0  0
   -3.3140   20.2560   18.4140 C   0  0  0  0  0  0  0  0  0  0  0  0
   -2.9240   21.0140   19.3090 O   0  0  0  0  0  0  0  0  0  0  0  0
   -4.5710   20.4210   17.8160 N   0  0  0  0  0  0  0  0  0  0  0  0
   -4.5790   20.2930   16.3600 C   0  0  0  0  0  0  0  0  0  0  0  0
   -5.9180   20.7030   15.7640 C   0  0  0  0  0  0  0  0  0  0  0  0
   -7.0500   19.8140   16.2760 C   0  0  0  0  0  0  0  0  0  0  0  0
   -6.7170   19.1560   17.6180 C   0  0  0  0  0  0  0  0  0  0  0  0
   -5.8560   20.0650   18.5080 C   0  0  2  0  0  0  0  0  0  0  0  0
   -6.7260   21.2350   19.0520 C   0  0  0  0  0  0  0  0  0  0  0  0
   -7.8600   20.9270   19.5430 O   0  0  0  0  0  0  0  0  0  0  0  0
   -6.3520   22.4170   18.8220 O   0  0  0  0  0  0  0  0  0  0  0  0
   -2.2280   15.8600   16.8600 C   0  0  0  0  0  0  0  0  0  0  0  0
   -3.6620   15.1080   15.0630 H   0  0  0  0  0  0  0  0  0  0  0  0
   -3.5260   13.7380   13.9850 H   0  0  0  0  0  0  0  0  0  0  0  0
   -1.8920   12.0140   14.5010 H   0  0  0  0  0  0  0  0  0  0  0  0
   -0.8230   12.3020   15.7810 H   0  0  0  0  0  0  0  0  0  0  0  0
   -0.4651   13.0174   17.5068 H   0  0  0  0  0  0  0  0  0  0  0  0
    0.0194   14.2999   19.5943 H   0  0  0  0  0  0  0  0  0  0  0  0
   -1.1254   16.4761   20.0228 H   0  0  0  0  0  0  0  0  0  0  0  0
   -3.9622   17.5272   17.8086 H   0  0  0  0  0  0  0  0  0  0  0  0
   -3.2149   17.6780   19.4672 H   0  0  0  0  0  0  0  0  0  0  0  0
   -2.4159   19.0554   16.9103 H   0  0  0  0  0  0  0  0  0  0  0  0
   -1.0070   19.8830   19.3200 H   0  0  0  0  0  0  0  0  0  0  0  0
    1.1491   18.3152   19.8158 H   0  0  0  0  0  0  0  0  0  0  0  0
    3.0390   18.9090   21.3309 H   0  0  0  0  0  0  0  0  0  0  0  0
    4.8865   20.4175   21.9404 H   0  0  0  0  0  0  0  0  0  0  0  0
    6.2072   22.4854   21.5263 H   0  0  0  0  0  0  0  0  0  0  0  0
    5.6328   23.9750   19.6106 H   0  0  0  0  0  0  0  0  0  0  0  0
    3.7298   23.3977   18.1110 H   0  0  0  0  0  0  0  0  0  0  0  0
    1.8914   21.8883   17.4887 H   0  0  0  0  0  0  0  0  0  0  0  0
   -3.7910   20.9365   15.9417 H   0  0  0  0  0  0  0  0  0  0  0  0
   -4.4018   19.2369   16.1086 H   0  0  0  0  0  0  0  0  0  0  0  0
   -6.1289   21.7465   16.0410 H   0  0  0  0  0  0  0  0  0  0  0  0
   -5.8590   20.5943   14.6710 H   0  0  0  0  0  0  0  0  0  0  0  0
   -7.9536   20.4291   16.3992 H   0  0  0  0  0  0  0  0  0  0  0  0
   -7.2045   19.0118   15.5394 H   0  0  0  0  0  0  0  0  0  0  0  0
   -7.6557   18.9295   18.1448 H   0  0  0  0  0  0  0  0  0  0  0  0
   -6.1437   18.2398   17.4136 H   0  0  0  0  0  0  0  0  0  0  0  0
   -5.5097   19.5445   19.4131 H   0  0  0  0  0  0  0  0  0  0  0  0
   -2.7304   16.3717   16.0259 H   0  0  0  0  0  0  0  0  0  0  0  0
  1  2  1  0
  2  3  2  0
  2  4  1  0
  4  5  2  0
  5  6  1  0
  6  7  2  0
  7  8  1  0
  8  9  1  0
  9 10  1  0
 10 11  1  0
 11 12  1  0
 12 13  2  0
 12 14  2  0
 12 15  1  0
 15 16  2  0
 16 17  1  0
 17 18  2  0
 18 19  1  0
 19 20  2  0
 20 21  1  0
 21 22  2  0
 22 23  1  0
 23 24  2  0
 10 25  1  0
 25 26  2  0
 25 27  1  0
 27 28  1  0
 28 29  1  0
 29 30  1  0
 30 31  1  0
 31 32  1  0
 32 33  1  0
 33 34  2  0
 33 35  1  0
  8 36  2  0
 36  4  1  0
 24 15  1  0
 32 27  1  0
 23 18  1  0
  1 37  1  0
  1 38  1  0
  3 39  1  0
  3 40  1  0
  5 41  1  0
  6 42  1  0
  7 43  1  0
  9 44  1  0
  9 45  1  0
 10 46  1  6
 11 47  1  0
 16 48  1  0
 17 49  1  0
 19 50  1  0
 20 51  1  0
 21 52  1  0
 22 53  1  0
 24 54  1  0
 28 55  1  0
 28 56  1  0
 29 57  1  0
 29 58  1  0
 30 59  1  0
 30 60  1  0
 31 61  1  0
 31 62  1  0
 32 63  1  1
 36 64  1  0
M  CHG  2   3   1  35  -1
M  END
>  <meeko>  (8) 
{"is_sidechain": [false], "free_energy": -8.135, "intermolecular_energy": -12.718, "internal_energy": -1.663}

$$$$
1k1i_ligand
     RDKit          3D

 64 67  0  0  0  0  0  0  0  0999 V2000
    6.5050   21.8320   21.9290 N   0  0  0  0  0  0  0  0  0  0  0  0
    5.8460   22.8100   21.3480 C   0  0  0  0  0  0  0  0  0  0  0  0
    6.2570   24.0510   21.4380 N   0  0  0  0  0  0  0  0  0  0  0  0
    4.6260   22.5070   20.5890 C   0  0  0  0  0  0  0  0  0  0  0  0
    3.6860   23.4870   20.2510 C   0  0  0  0  0  0  0  0  0  0  0  0
    2.4580   23.1150   19.6910 C   0  0  0  0  0  0  0  0  0  0  0  0
    2.1380   21.7640   19.5240 C   0  0  0  0  0  0  0  0  0  0  0  0
    3.0710   20.7790   19.8520 C   0  0  0  0  0  0  0  0  0  0  0  0
    2.6860   19.3170   19.9970 C   0  0  0  0  0  0  0  0  0  0  0  0
    1.1560   19.0770   19.9420 C   0  0  2  0  0  0  0  0  0  0  0  0
    0.7050   18.1000   20.9610 N   0  0  0  0  0  0  0  0  0  0  0  0
   -0.3480   18.6210   22.1460 S   0  0  0  0  0  0  0  0  0  0  0  0
   -0.2020   17.7720   23.3060 O   0  0  0  0  0  0  0  0  0  0  0  0
   -1.6390   18.8620   21.5370 O   0  0  0  0  0  0  0  0  0  0  0  0
    0.3850   20.2010   22.4970 C   0  0  0  0  0  0  0  0  0  0  0  0
   -0.3080   21.3750   22.2100 C   0  0  0  0  0  0  0  0  0  0  0  0
    0.2580   22.6040   22.5560 C   0  0  0  0  0  0  0  0  0  0  0  0
    1.5110   22.6660   23.1880 C   0  0  0  0  0  0  0  0  0  0  0  0
    2.0850   23.8950   23.5520 C   0  0  0  0  0  0  0  0  0  0  0  0
    3.3320   23.9430   24.1790 C   0  0  0  0  0  0  0  0  0  0  0  0
    4.0220   22.7630   24.4510 C   0  0  0  0  0  0  0  0  0  0  0  0
    3.4660   21.5330   24.0960 C   0  0  0  0  0  0  0  0  0  0  0  0
    2.2130   21.4680   23.4670 C   0  0  0  0  0  0  0  0  0  0  0  0
    1.6420   20.2400   23.1110 C   0  0  0  0  0  0  0  0  0  0  0  0
    0.6210   18.6960   18.5500 C   0  0  0  0  0  0  0  0  0  0  0  0
    1.2590   19.0300   17.5450 O   0  0  0  0  0  0  0  0  0  0  0  0
   -0.6170   18.0490   18.4440 N   0  0  0  0  0  0  0  0  0  0  0  0
   -1.7540   18.9360   18.2050 C   0  0  0  0  0  0  0  0  0  0  0  0
   -3.0800   18.1990   18.3240 C   0  0  0  0  0  0  0  0  0  0  0  0
   -3.1890   17.0780   17.2920 C   0  0  0  0  0  0  0  0  0  0  0  0
   -1.8210   16.5910   16.8090 C   0  0  0  0  0  0  0  0  0  0  0  0
   -0.7630   16.6480   17.9220 C   0  0  2  0  0  0  0  0  0  0  0  0
   -1.0390   15.5220   18.9590 C   0  0  0  0  0  0  0  0  0  0  0  0
   -1.1060   14.3310   18.5100 O   0  0  0  0  0  0  0  0  0  0  0  0
   -1.3530   15.8520   20.1350 O   0  0  0  0  0  0  0  0  0  0  0  0
    4.3400   21.1720   20.2850 C   0  0  0  0  0  0  0  0  0  0  0  0
    6.1470   20.8890   21.8780 H   0  0  0  0  0  0  0  0  0  0  0  0
    7.3340   22.0270   22.4710 H   0  0  0  0  0  0  0  0  0  0  0  0
    6.9890   24.3930   22.0370 H   0  0  0  0  0  0  0  0  0  0  0  0
    5.7120   24.8280   21.0160 H   0  0  0  0  0  0  0  0  0  0  0  0
    3.9119   24.5494   20.4253 H   0  0  0  0  0  0  0  0  0  0  0  0
    1.7411   23.8895   19.3807 H   0  0  0  0  0  0  0  0  0  0  0  0
    1.1503   21.4773   19.1339 H   0  0  0  0  0  0  0  0  0  0  0  0
    3.1579   18.7493   19.1815 H   0  0  0  0  0  0  0  0  0  0  0  0
    3.0320   18.9859   20.9873 H   0  0  0  0  0  0  0  0  0  0  0  0
    0.7184   20.0581   20.1786 H   0  0  0  0  0  0  0  0  0  0  0  0
    0.3290   17.2280   20.5330 H   0  0  0  0  0  0  0  0  0  0  0  0
   -1.2902   21.3344   21.7163 H   0  0  0  0  0  0  0  0  0  0  0  0
   -0.2838   23.5345   22.3309 H   0  0  0  0  0  0  0  0  0  0  0  0
    1.5462   24.8305   23.3408 H   0  0  0  0  0  0  0  0  0  0  0  0
    3.7698   24.9127   24.4583 H   0  0  0  0  0  0  0  0  0  0  0  0
    5.0041   22.8010   24.9451 H   0  0  0  0  0  0  0  0  0  0  0  0
    4.0156   20.6048   24.3115 H   0  0  0  0  0  0  0  0  0  0  0  0
    2.1827   19.3039   23.3144 H   0  0  0  0  0  0  0  0  0  0  0  0
   -1.7317   19.7505   18.9439 H   0  0  0  0  0  0  0  0  0  0  0  0
   -1.6718   19.3291   17.1809 H   0  0  0  0  0  0  0  0  0  0  0  0
   -3.1598   17.7664   19.3322 H   0  0  0  0  0  0  0  0  0  0  0  0
   -3.8930   18.9173   18.1421 H   0  0  0  0  0  0  0  0  0  0  0  0
   -3.7247   16.2313   17.7461 H   0  0  0  0  0  0  0  0  0  0  0  0
   -3.7284   17.4773   16.4205 H   0  0  0  0  0  0  0  0  0  0  0  0
   -1.9163   15.5513   16.4627 H   0  0  0  0  0  0  0  0  0  0  0  0
   -1.4929   17.2536   15.9945 H   0  0  0  0  0  0  0  0  0  0  0  0
    0.2445   16.4231   17.5421 H   0  0  0  0  0  0  0  0  0  0  0  0
    5.1313   20.4151   20.3891 H   0  0  0  0  0  0  0  0  0  0  0  0
  1  2  1  0
  2  3  2  0
  2  4  1  0
  4  5  2  0
  5  6  1  0
  6  7  2  0
  7  8  1  0
  8  9  1  0
  9 10  1  0
 10 11  1  0
 11 12  1  0
 12 13  2  0
 12 14  2  0
 12 15  1  0
 15 16  2  0
 16 17  1  0
 17 18  2  0
 18 19  1  0
 19 20  2  0
 20 21  1  0
 21 22  2  0
 22 23  1  0
 23 24  2  0
 10 25  1  0
 25 26  2  0
 25 27  1  0
 27 28  1  0
 28 29  1  0
 29 30  1  0
 30 31  1  0
 31 32  1  0
 32 33  1  0
 33 34  2  0
 33 35  1  0
  8 36  2  0
 36  4  1  0
 24 15  1  0
 32 27  1  0
 23 18  1  0
  1 37  1  0
  1 38  1  0
  3 39  1  0
  3 40  1  0
  5 41  1  0
  6 42  1  0
  7 43  1  0
  9 44  1  0
  9 45  1  0
 10 46  1  1
 11 47  1  0
 16 48  1  0
 17 49  1  0
 19 50  1  0
 20 51  1  0
 21 52  1  0
 22 53  1  0
 24 54  1  0
 28 55  1  0
 28 56  1  0
 29 57  1  0
 29 58  1  0
 30 59  1  0
 30 60  1  0
 31 61  1  0
 31 62  1  0
 32 63  1  6
 36 64  1  0
M  CHG  2   3   1  35  -1
M  END
>  <meeko>  (9) 
{"is_sidechain": [false], "free_energy": -8.116, "intermolecular_energy": -10.052, "internal_energy": -4.299}

$$$$
