3ao4_ligand
     RDKit          3D

 27 29  0  0  0  0  0  0  0  0999 V2000
  -11.9400   33.0540   -1.6030 C   0  0  0  0  0  0  0  0  0  0  0  0
  -12.5630   32.1560   -0.6620 N   0  0  0  0  0  0  0  0  0  0  0  0
  -12.7750   30.8750   -1.0160 N   0  0  0  0  0  0  0  0  0  0  0  0
  -13.3260   30.3040    0.0690 C   0  0  0  0  0  0  0  0  0  0  0  0
  -13.6950   28.8810    0.0850 C   0  0  0  0  0  0  0  0  0  0  0  0
  -12.8730   27.9270   -0.5650 C   0  0  0  0  0  0  0  0  0  0  0  0
  -13.1950   26.5640   -0.5700 C   0  0  0  0  0  0  0  0  0  0  0  0
  -14.3440   26.1790    0.0800 C   0  0  0  0  0  0  0  0  0  0  0  0
  -15.1520   27.0930    0.7150 C   0  0  0  0  0  0  0  0  0  0  0  0
  -14.8590   28.4420    0.7370 C   0  0  0  0  0  0  0  0  0  0  0  0
  -16.2360   26.5090    1.2960 O   0  0  0  0  0  0  0  0  0  0  0  0
  -16.0140   25.1250    0.9540 C   0  0  0  0  0  0  0  0  0  0  0  0
  -14.8160   24.9090    0.1810 O   0  0  0  0  0  0  0  0  0  0  0  0
  -13.4740   31.2660    1.1090 C   0  0  0  0  0  0  0  0  0  0  0  0
  -12.9910   32.4490    0.6070 C   0  0  0  0  0  0  0  0  0  0  0  0
  -12.9060   33.6710    1.1740 N   0  0  0  0  0  0  0  0  0  0  0  0
  -11.3959   33.8383   -1.0563 H   0  0  0  0  0  0  0  0  0  0  0  0
  -11.2365   32.4924   -2.2352 H   0  0  0  0  0  0  0  0  0  0  0  0
  -12.7124   33.5163   -2.2352 H   0  0  0  0  0  0  0  0  0  0  0  0
  -11.9604   28.2650   -1.0778 H   0  0  0  0  0  0  0  0  0  0  0  0
  -12.5522   25.8283   -1.0755 H   0  0  0  0  0  0  0  0  0  0  0  0
  -15.5201   29.1546    1.2519 H   0  0  0  0  0  0  0  0  0  0  0  0
  -15.9372   24.5442    1.8850 H   0  0  0  0  0  0  0  0  0  0  0  0
  -16.8628   24.8051    0.3318 H   0  0  0  0  0  0  0  0  0  0  0  0
  -13.8913   31.0954    2.1124 H   0  0  0  0  0  0  0  0  0  0  0  0
  -12.0060   34.1460    1.2050 H   0  0  0  0  0  0  0  0  0  0  0  0
  -13.5190   33.9540    1.9340 H   0  0  0  0  0  0  0  0  0  0  0  0
  1  2  1  0
  2  3  1  0
  3  4  2  0
  4  5  1  0
  5  6  2  0
  6  7  1  0
  7  8  2  0
  8  9  1  0
  9 10  2  0
  9 11  1  0
 11 12  1  0
 12 13  1  0
  4 14  1  0
 14 15  2  0
 15 16  1  0
 15  2  1  0
 10  5  1  0
 13  8  1  0
  1 17  1  0
  1 18  1  0
  1 19  1  0
  6 20  1  0
  7 21  1  0
 10 22  1  0
 12 23  1  0
 12 24  1  0
 14 25  1  0
 16 26  1  0
 16 27  1  0
M  END
>  <meeko>  (1) 
{"is_sidechain": [false], "free_energy": -5.647, "intermolecular_energy": -6.143, "internal_energy": -0.189}

$$$$
3ao4_ligand
     RDKit          3D

 27 29  0  0  0  0  0  0  0  0999 V2000
  -20.1200   26.7900    0.6320 C   0  0  0  0  0  0  0  0  0  0  0  0
  -18.7510   26.3490    0.5230 N   0  0  0  0  0  0  0  0  0  0  0  0
  -17.8010   27.2320    0.1630 N   0  0  0  0  0  0  0  0  0  0  0  0
  -16.6530   26.5330    0.1870 C   0  0  0  0  0  0  0  0  0  0  0  0
  -15.3650   27.1620   -0.1380 C   0  0  0  0  0  0  0  0  0  0  0  0
  -14.2410   26.3580   -0.4560 C   0  0  0  0  0  0  0  0  0  0  0  0
  -13.0000   26.9250   -0.7700 C   0  0  0  0  0  0  0  0  0  0  0  0
  -12.9050   28.2960   -0.7580 C   0  0  0  0  0  0  0  0  0  0  0  0
  -13.9850   29.0890   -0.4520 C   0  0  0  0  0  0  0  0  0  0  0  0
  -15.2210   28.5590   -0.1400 C   0  0  0  0  0  0  0  0  0  0  0  0
  -13.6830   30.4160   -0.4980 O   0  0  0  0  0  0  0  0  0  0  0  0
  -12.2890   30.3640   -0.8690 C   0  0  0  0  0  0  0  0  0  0  0  0
  -11.7900   29.0210   -1.0350 O   0  0  0  0  0  0  0  0  0  0  0  0
  -16.9080   25.1800    0.5530 C   0  0  0  0  0  0  0  0  0  0  0  0
  -18.2640   25.0860    0.7470 C   0  0  0  0  0  0  0  0  0  0  0  0
  -19.0280   24.0290    1.0960 N   0  0  0  0  0  0  0  0  0  0  0  0
  -20.3934   26.8781    1.6938 H   0  0  0  0  0  0  0  0  0  0  0  0
  -20.2299   27.7690    0.1426 H   0  0  0  0  0  0  0  0  0  0  0  0
  -20.7807   26.0592    0.1426 H   0  0  0  0  0  0  0  0  0  0  0  0
  -14.3466   25.2631   -0.4560 H   0  0  0  0  0  0  0  0  0  0  0  0
  -12.1323   26.2958   -1.0174 H   0  0  0  0  0  0  0  0  0  0  0  0
  -16.0712   29.2141    0.1008 H   0  0  0  0  0  0  0  0  0  0  0  0
  -12.1607   30.9035   -1.8190 H   0  0  0  0  0  0  0  0  0  0  0  0
  -11.7175   30.8237   -0.0492 H   0  0  0  0  0  0  0  0  0  0  0  0
  -16.1678   24.3733    0.6588 H   0  0  0  0  0  0  0  0  0  0  0  0
  -18.6330   23.3000    1.6870 H   0  0  0  0  0  0  0  0  0  0  0  0
  -19.7670   23.6790    0.4920 H   0  0  0  0  0  0  0  0  0  0  0  0
  1  2  1  0
  2  3  1  0
  3  4  2  0
  4  5  1  0
  5  6  2  0
  6  7  1  0
  7  8  2  0
  8  9  1  0
  9 10  2  0
  9 11  1  0
 11 12  1  0
 12 13  1  0
  4 14  1  0
 14 15  2  0
 15 16  1  0
 15  2  1  0
 10  5  1  0
 13  8  1  0
  1 17  1  0
  1 18  1  0
  1 19  1  0
  6 20  1  0
  7 21  1  0
 10 22  1  0
 12 23  1  0
 12 24  1  0
 14 25  1  0
 16 26  1  0
 16 27  1  0
M  END
>  <meeko>  (2) 
{"is_sidechain": [false], "free_energy": -5.604, "intermolecular_energy": -6.074, "internal_energy": -0.211}

$$$$
3ao4_ligand
     RDKit          3D

 27 29  0  0  0  0  0  0  0  0999 V2000
  -14.7400   33.3910   -2.3480 C   0  0  0  0  0  0  0  0  0  0  0  0
  -13.9970   32.3160   -1.7370 N   0  0  0  0  0  0  0  0  0  0  0  0
  -14.5890   31.1180   -1.5690 N   0  0  0  0  0  0  0  0  0  0  0  0
  -13.6410   30.3400   -1.0180 C   0  0  0  0  0  0  0  0  0  0  0  0
  -13.9010   28.9300   -0.6920 C   0  0  0  0  0  0  0  0  0  0  0  0
  -12.8560   27.9760   -0.7790 C   0  0  0  0  0  0  0  0  0  0  0  0
  -13.0690   26.6260   -0.4760 C   0  0  0  0  0  0  0  0  0  0  0  0
  -14.3350   26.2530   -0.0890 C   0  0  0  0  0  0  0  0  0  0  0  0
  -15.3580   27.1650    0.0000 C   0  0  0  0  0  0  0  0  0  0  0  0
  -15.1770   28.5030   -0.2910 C   0  0  0  0  0  0  0  0  0  0  0  0
  -16.5270   26.5940    0.4000 O   0  0  0  0  0  0  0  0  0  0  0  0
  -16.1190   25.2190    0.5530 C   0  0  0  0  0  0  0  0  0  0  0  0
  -14.7290   24.9950    0.2420 O   0  0  0  0  0  0  0  0  0  0  0  0
  -12.4430   31.0850   -0.8240 C   0  0  0  0  0  0  0  0  0  0  0  0
  -12.7040   32.3540   -1.2800 C   0  0  0  0  0  0  0  0  0  0  0  0
  -11.9170   33.4500   -1.3190 N   0  0  0  0  0  0  0  0  0  0  0  0
  -15.1786   34.0256   -1.5638 H   0  0  0  0  0  0  0  0  0  0  0  0
  -14.0651   33.9942   -2.9730 H   0  0  0  0  0  0  0  0  0  0  0  0
  -15.5428   32.9729   -2.9730 H   0  0  0  0  0  0  0  0  0  0  0  0
  -11.8539   28.3044   -1.0921 H   0  0  0  0  0  0  0  0  0  0  0  0
  -12.2539   25.8906   -0.5449 H   0  0  0  0  0  0  0  0  0  0  0  0
  -16.0110   29.2157   -0.2107 H   0  0  0  0  0  0  0  0  0  0  0  0
  -16.2958   24.9170    1.5959 H   0  0  0  0  0  0  0  0  0  0  0  0
  -16.7104   24.6242   -0.1587 H   0  0  0  0  0  0  0  0  0  0  0  0
  -11.4988   30.7181   -0.3953 H   0  0  0  0  0  0  0  0  0  0  0  0
  -12.2890   34.3440   -1.0040 H   0  0  0  0  0  0  0  0  0  0  0  0
  -11.1840   33.5590   -2.0150 H   0  0  0  0  0  0  0  0  0  0  0  0
  1  2  1  0
  2  3  1  0
  3  4  2  0
  4  5  1  0
  5  6  2  0
  6  7  1  0
  7  8  2  0
  8  9  1  0
  9 10  2  0
  9 11  1  0
 11 12  1  0
 12 13  1  0
  4 14  1  0
 14 15  2  0
 15 16  1  0
 15  2  1  0
 10  5  1  0
 13  8  1  0
  1 17  1  0
  1 18  1  0
  1 19  1  0
  6 20  1  0
  7 21  1  0
 10 22  1  0
 12 23  1  0
 12 24  1  0
 14 25  1  0
 16 26  1  0
 16 27  1  0
M  END
>  <meeko>  (3) 
{"is_sidechain": [false], "free_energy": -5.555, "intermolecular_energy": -6.027, "internal_energy": -0.205}

$$$$
3ao4_ligand
     RDKit          3D

 27 29  0  0  0  0  0  0  0  0999 V2000
  -16.7260   24.8570    0.2690 C   0  0  0  0  0  0  0  0  0  0  0  0
  -16.2290   25.8340   -0.6680 N   0  0  0  0  0  0  0  0  0  0  0  0
  -15.4950   26.8670   -0.2150 N   0  0  0  0  0  0  0  0  0  0  0  0
  -15.1610   27.5620   -1.3160 C   0  0  0  0  0  0  0  0  0  0  0  0
  -14.3330   28.7740   -1.2370 C   0  0  0  0  0  0  0  0  0  0  0  0
  -12.9410   28.6710   -0.9910 C   0  0  0  0  0  0  0  0  0  0  0  0
  -12.1250   29.8040   -0.9100 C   0  0  0  0  0  0  0  0  0  0  0  0
  -12.7210   31.0320   -1.0760 C   0  0  0  0  0  0  0  0  0  0  0  0
  -14.0700   31.1500   -1.3150 C   0  0  0  0  0  0  0  0  0  0  0  0
  -14.8990   30.0490   -1.4020 C   0  0  0  0  0  0  0  0  0  0  0  0
  -14.4600   32.4470   -1.4500 O   0  0  0  0  0  0  0  0  0  0  0  0
  -13.2010   33.1290   -1.2690 C   0  0  0  0  0  0  0  0  0  0  0  0
  -12.0940   32.2360   -1.0300 O   0  0  0  0  0  0  0  0  0  0  0  0
  -15.7210   26.9490   -2.4740 C   0  0  0  0  0  0  0  0  0  0  0  0
  -16.4140   25.8510   -2.0270 C   0  0  0  0  0  0  0  0  0  0  0  0
  -17.1330   24.9330   -2.7080 N   0  0  0  0  0  0  0  0  0  0  0  0
  -16.5468   25.2092    1.2956 H   0  0  0  0  0  0  0  0  0  0  0  0
  -17.8057   24.7155    0.1131 H   0  0  0  0  0  0  0  0  0  0  0  0
  -16.2046   23.9010    0.1131 H   0  0  0  0  0  0  0  0  0  0  0  0
  -12.4914   27.6756   -0.8606 H   0  0  0  0  0  0  0  0  0  0  0  0
  -11.0451   29.7159   -0.7203 H   0  0  0  0  0  0  0  0  0  0  0  0
  -15.9753   30.1674   -1.5956 H   0  0  0  0  0  0  0  0  0  0  0  0
  -12.9877   33.7135   -2.1761 H   0  0  0  0  0  0  0  0  0  0  0  0
  -13.3023   33.7657   -0.3778 H   0  0  0  0  0  0  0  0  0  0  0  0
  -15.6188   27.2871   -3.5158 H   0  0  0  0  0  0  0  0  0  0  0  0
  -17.2740   25.0510   -3.7090 H   0  0  0  0  0  0  0  0  0  0  0  0
  -17.8850   24.4090   -2.2690 H   0  0  0  0  0  0  0  0  0  0  0  0
  1  2  1  0
  2  3  1  0
  3  4  2  0
  4  5  1  0
  5  6  2  0
  6  7  1  0
  7  8  2  0
  8  9  1  0
  9 10  2  0
  9 11  1  0
 11 12  1  0
 12 13  1  0
  4 14  1  0
 14 15  2  0
 15 16  1  0
 15  2  1  0
 10  5  1  0
 13  8  1  0
  1 17  1  0
  1 18  1  0
  1 19  1  0
  6 20  1  0
  7 21  1  0
 10 22  1  0
 12 23  1  0
 12 24  1  0
 14 25  1  0
 16 26  1  0
 16 27  1  0
M  END
>  <meeko>  (4) 
{"is_sidechain": [false], "free_energy": -5.466, "intermolecular_energy": -5.952, "internal_energy": -0.182}

$$$$
3ao4_ligand
     RDKit          3D

 27 29  0  0  0  0  0  0  0  0999 V2000
  -21.5930   29.8820    2.0300 C   0  0  0  0  0  0  0  0  0  0  0  0
  -21.0780   28.6440    1.4980 N   0  0  0  0  0  0  0  0  0  0  0  0
  -19.7470   28.4540    1.4420 N   0  0  0  0  0  0  0  0  0  0  0  0
  -19.5960   27.2160    0.9410 C   0  0  0  0  0  0  0  0  0  0  0  0
  -18.2640   26.6270    0.7400 C   0  0  0  0  0  0  0  0  0  0  0  0
  -18.0800   25.2270    0.8640 C   0  0  0  0  0  0  0  0  0  0  0  0
  -16.8260   24.6340    0.6790 C   0  0  0  0  0  0  0  0  0  0  0  0
  -15.7700   25.4590    0.3710 C   0  0  0  0  0  0  0  0  0  0  0  0
  -15.9330   26.8180    0.2460 C   0  0  0  0  0  0  0  0  0  0  0  0
  -17.1580   27.4310    0.4220 C   0  0  0  0  0  0  0  0  0  0  0  0
  -14.7680   27.4530   -0.0620 O   0  0  0  0  0  0  0  0  0  0  0  0
  -13.8570   26.3350   -0.1190 C   0  0  0  0  0  0  0  0  0  0  0  0
  -14.4870   25.0670    0.1560 O   0  0  0  0  0  0  0  0  0  0  0  0
  -20.8680   26.6390    0.6640 C   0  0  0  0  0  0  0  0  0  0  0  0
  -21.8010   27.5830    1.0160 C   0  0  0  0  0  0  0  0  0  0  0  0
  -23.1490   27.5500    0.9480 N   0  0  0  0  0  0  0  0  0  0  0  0
  -21.5770   29.8435    3.1292 H   0  0  0  0  0  0  0  0  0  0  0  0
  -20.9681   30.7182    1.6832 H   0  0  0  0  0  0  0  0  0  0  0  0
  -22.6266   30.0283    1.6832 H   0  0  0  0  0  0  0  0  0  0  0  0
  -18.9432   24.5917    1.1115 H   0  0  0  0  0  0  0  0  0  0  0  0
  -16.6900   23.5468    0.7765 H   0  0  0  0  0  0  0  0  0  0  0  0
  -17.2643   28.5207    0.3158 H   0  0  0  0  0  0  0  0  0  0  0  0
  -13.4176   26.2946   -1.1266 H   0  0  0  0  0  0  0  0  0  0  0  0
  -13.0974   26.4955    0.6603 H   0  0  0  0  0  0  0  0  0  0  0  0
  -21.0638   25.6384    0.2511 H   0  0  0  0  0  0  0  0  0  0  0  0
  -23.6730   28.4210    1.0090 H   0  0  0  0  0  0  0  0  0  0  0  0
  -23.6830   26.7520    1.2810 H   0  0  0  0  0  0  0  0  0  0  0  0
  1  2  1  0
  2  3  1  0
  3  4  2  0
  4  5  1  0
  5  6  2  0
  6  7  1  0
  7  8  2  0
  8  9  1  0
  9 10  2  0
  9 11  1  0
 11 12  1  0
 12 13  1  0
  4 14  1  0
 14 15  2  0
 15 16  1  0
 15  2  1  0
 10  5  1  0
 13  8  1  0
  1 17  1  0
  1 18  1  0
  1 19  1  0
  6 20  1  0
  7 21  1  0
 10 22  1  0
 12 23  1  0
 12 24  1  0
 14 25  1  0
 16 26  1  0
 16 27  1  0
M  END
>  <meeko>  (5) 
{"is_sidechain": [false], "free_energy": -5.339, "intermolecular_energy": -5.79, "internal_energy": -0.206}

$$$$
3ao4_ligand
     RDKit          3D

 27 29  0  0  0  0  0  0  0  0999 V2000
  -16.3740   32.2350   -4.4840 C   0  0  0  0  0  0  0  0  0  0  0  0
  -15.6840   31.6830   -3.3450 N   0  0  0  0  0  0  0  0  0  0  0  0
  -15.7920   30.3670   -3.0840 N   0  0  0  0  0  0  0  0  0  0  0  0
  -15.0190   30.1660   -2.0020 C   0  0  0  0  0  0  0  0  0  0  0  0
  -14.8630   28.8300   -1.4090 C   0  0  0  0  0  0  0  0  0  0  0  0
  -13.5930   28.1990   -1.4030 C   0  0  0  0  0  0  0  0  0  0  0  0
  -13.4090   26.9270   -0.8470 C   0  0  0  0  0  0  0  0  0  0  0  0
  -14.5080   26.3050   -0.3030 C   0  0  0  0  0  0  0  0  0  0  0  0
  -15.7450   26.9040   -0.3010 C   0  0  0  0  0  0  0  0  0  0  0  0
  -15.9560   28.1570   -0.8410 C   0  0  0  0  0  0  0  0  0  0  0  0
  -16.6960   26.1240    0.2840 O   0  0  0  0  0  0  0  0  0  0  0  0
  -15.9120   24.9690    0.6490 C   0  0  0  0  0  0  0  0  0  0  0  0
  -14.5230   25.0770    0.2780 O   0  0  0  0  0  0  0  0  0  0  0  0
  -14.4370   31.3940   -1.5780 C   0  0  0  0  0  0  0  0  0  0  0  0
  -14.8920   32.3540   -2.4480 C   0  0  0  0  0  0  0  0  0  0  0  0
  -14.6530   33.6820   -2.4910 N   0  0  0  0  0  0  0  0  0  0  0  0
  -17.1894   32.8873   -4.1380 H   0  0  0  0  0  0  0  0  0  0  0  0
  -15.6685   32.8208   -5.0916 H   0  0  0  0  0  0  0  0  0  0  0  0
  -16.7906   31.4181   -5.0916 H   0  0  0  0  0  0  0  0  0  0  0  0
  -12.7319   28.7212   -1.8456 H   0  0  0  0  0  0  0  0  0  0  0  0
  -12.4212   26.4430   -0.8455 H   0  0  0  0  0  0  0  0  0  0  0  0
  -16.9554   28.6163   -0.8265 H   0  0  0  0  0  0  0  0  0  0  0  0
  -15.9721   24.8377    1.7395 H   0  0  0  0  0  0  0  0  0  0  0  0
  -16.3274   24.1097    0.1022 H   0  0  0  0  0  0  0  0  0  0  0  0
  -13.7590   31.5438   -0.7248 H   0  0  0  0  0  0  0  0  0  0  0  0
  -15.1000   34.2460   -3.2110 H   0  0  0  0  0  0  0  0  0  0  0  0
  -13.7700   34.0780   -2.1790 H   0  0  0  0  0  0  0  0  0  0  0  0
  1  2  1  0
  2  3  1  0
  3  4  2  0
  4  5  1  0
  5  6  2  0
  6  7  1  0
  7  8  2  0
  8  9  1  0
  9 10  2  0
  9 11  1  0
 11 12  1  0
 12 13  1  0
  4 14  1  0
 14 15  2  0
 15 16  1  0
 15  2  1  0
 10  5  1  0
 13  8  1  0
  1 17  1  0
  1 18  1  0
  1 19  1  0
  6 20  1  0
  7 21  1  0
 10 22  1  0
 12 23  1  0
 12 24  1  0
 14 25  1  0
 16 26  1  0
 16 27  1  0
M  END
>  <meeko>  (6) 
{"is_sidechain": [false], "free_energy": -5.25, "intermolecular_energy": -5.708, "internal_energy": -0.191}

$$$$
3ao4_ligand
     RDKit          3D

 27 29  0  0  0  0  0  0  0  0999 V2000
  -16.1770   27.0940    2.1740 C   0  0  0  0  0  0  0  0  0  0  0  0
  -15.1480   27.6700    1.3440 N   0  0  0  0  0  0  0  0  0  0  0  0
  -14.9990   29.0080    1.3120 N   0  0  0  0  0  0  0  0  0  0  0  0
  -13.9560   29.2190    0.4910 C   0  0  0  0  0  0  0  0  0  0  0  0
  -13.4660   30.5750    0.2070 C   0  0  0  0  0  0  0  0  0  0  0  0
  -12.7140   30.8280   -0.9680 C   0  0  0  0  0  0  0  0  0  0  0  0
  -12.2330   32.1080   -1.2690 C   0  0  0  0  0  0  0  0  0  0  0  0
  -12.5150   33.1200   -0.3810 C   0  0  0  0  0  0  0  0  0  0  0  0
  -13.2430   32.8910    0.7620 C   0  0  0  0  0  0  0  0  0  0  0  0
  -13.7310   31.6400    1.0840 C   0  0  0  0  0  0  0  0  0  0  0  0
  -13.4110   34.0200    1.5030 O   0  0  0  0  0  0  0  0  0  0  0  0
  -12.7060   34.9840    0.6930 C   0  0  0  0  0  0  0  0  0  0  0  0
  -12.1340   34.4180   -0.5040 O   0  0  0  0  0  0  0  0  0  0  0  0
  -13.4640   27.9800   -0.0090 C   0  0  0  0  0  0  0  0  0  0  0  0
  -14.2570   27.0030    0.5430 C   0  0  0  0  0  0  0  0  0  0  0  0
  -14.2260   25.6620    0.3930 N   0  0  0  0  0  0  0  0  0  0  0  0
  -15.9178   27.2391    3.2331 H   0  0  0  0  0  0  0  0  0  0  0  0
  -17.1378   27.5855    1.9610 H   0  0  0  0  0  0  0  0  0  0  0  0
  -16.2604   26.0180    1.9610 H   0  0  0  0  0  0  0  0  0  0  0  0
  -12.5034   29.9989   -1.6596 H   0  0  0  0  0  0  0  0  0  0  0  0
  -11.6506   32.2975   -2.1827 H   0  0  0  0  0  0  0  0  0  0  0  0
  -14.3126   31.4813    2.0041 H   0  0  0  0  0  0  0  0  0  0  0  0
  -13.4110   35.7764    0.4014 H   0  0  0  0  0  0  0  0  0  0  0  0
  -11.8734   35.3703    1.2993 H   0  0  0  0  0  0  0  0  0  0  0  0
  -12.6192   27.8343   -0.6983 H   0  0  0  0  0  0  0  0  0  0  0  0
  -14.9480   25.2050   -0.1610 H   0  0  0  0  0  0  0  0  0  0  0  0
  -13.8420   25.0510    1.1090 H   0  0  0  0  0  0  0  0  0  0  0  0
  1  2  1  0
  2  3  1  0
  3  4  2  0
  4  5  1  0
  5  6  2  0
  6  7  1  0
  7  8  2  0
  8  9  1  0
  9 10  2  0
  9 11  1  0
 11 12  1  0
 12 13  1  0
  4 14  1  0
 14 15  2  0
 15 16  1  0
 15  2  1  0
 10  5  1  0
 13  8  1  0
  1 17  1  0
  1 18  1  0
  1 19  1  0
  6 20  1  0
  7 21  1  0
 10 22  1  0
 12 23  1  0
 12 24  1  0
 14 25  1  0
 16 26  1  0
 16 27  1  0
M  END
>  <meeko>  (7) 
{"is_sidechain": [false], "free_energy": -5.146, "intermolecular_energy": -5.577, "internal_energy": -0.209}

$$$$
3ao4_ligand
     RDKit          3D

 27 29  0  0  0  0  0  0  0  0999 V2000
  -14.7820   26.9610    3.0000 C   0  0  0  0  0  0  0  0  0  0  0  0
  -14.2990   27.6680    1.8390 N   0  0  0  0  0  0  0  0  0  0  0  0
  -14.1290   29.0020    1.9040 N   0  0  0  0  0  0  0  0  0  0  0  0
  -13.6460   29.3460    0.6980 C   0  0  0  0  0  0  0  0  0  0  0  0
  -13.3120   30.7410    0.3750 C   0  0  0  0  0  0  0  0  0  0  0  0
  -13.4660   31.7540    1.3550 C   0  0  0  0  0  0  0  0  0  0  0  0
  -13.1580   33.0910    1.0810 C   0  0  0  0  0  0  0  0  0  0  0  0
  -12.6970   33.3930   -0.1790 C   0  0  0  0  0  0  0  0  0  0  0  0
  -12.5410   32.4230   -1.1400 C   0  0  0  0  0  0  0  0  0  0  0  0
  -12.8370   31.0960   -0.8980 C   0  0  0  0  0  0  0  0  0  0  0  0
  -12.0740   32.9280   -2.3150 O   0  0  0  0  0  0  0  0  0  0  0  0
  -11.9540   34.3260   -1.9800 C   0  0  0  0  0  0  0  0  0  0  0  0
  -12.3490   34.6280   -0.6260 O   0  0  0  0  0  0  0  0  0  0  0  0
  -13.5350   28.1960   -0.1350 C   0  0  0  0  0  0  0  0  0  0  0  0
  -13.9750   27.1350    0.6170 C   0  0  0  0  0  0  0  0  0  0  0  0
  -14.0850   25.8260    0.3060 N   0  0  0  0  0  0  0  0  0  0  0  0
  -14.4339   27.4705    3.9106 H   0  0  0  0  0  0  0  0  0  0  0  0
  -15.8818   26.9434    2.9873 H   0  0  0  0  0  0  0  0  0  0  0  0
  -14.3986   25.9301    2.9873 H   0  0  0  0  0  0  0  0  0  0  0  0
  -13.8364   31.4823    2.3545 H   0  0  0  0  0  0  0  0  0  0  0  0
  -13.2801   33.8723    1.8457 H   0  0  0  0  0  0  0  0  0  0  0  0
  -12.7041   30.3364   -1.6824 H   0  0  0  0  0  0  0  0  0  0  0  0
  -10.9043   34.6270   -2.1121 H   0  0  0  0  0  0  0  0  0  0  0  0
  -12.6328   34.8784   -2.6465 H   0  0  0  0  0  0  0  0  0  0  0  0
  -13.1701   28.1643   -1.1722 H   0  0  0  0  0  0  0  0  0  0  0  0
  -13.2600   25.3150    0.0000 H   0  0  0  0  0  0  0  0  0  0  0  0
  -14.9450   25.4350   -0.0690 H   0  0  0  0  0  0  0  0  0  0  0  0
  1  2  1  0
  2  3  1  0
  3  4  2  0
  4  5  1  0
  5  6  2  0
  6  7  1  0
  7  8  2  0
  8  9  1  0
  9 10  2  0
  9 11  1  0
 11 12  1  0
 12 13  1  0
  4 14  1  0
 14 15  2  0
 15 16  1  0
 15  2  1  0
 10  5  1  0
 13  8  1  0
  1 17  1  0
  1 18  1  0
  1 19  1  0
  6 20  1  0
  7 21  1  0
 10 22  1  0
 12 23  1  0
 12 24  1  0
 14 25  1  0
 16 26  1  0
 16 27  1  0
M  END
>  <meeko>  (8) 
{"is_sidechain": [false], "free_energy": -5.115, "intermolecular_energy": -5.562, "internal_energy": -0.191}

$$$$
3ao4_ligand
     RDKit          3D

 27 29  0  0  0  0  0  0  0  0999 V2000
  -16.1820   29.0850   -0.2940 C   0  0  0  0  0  0  0  0  0  0  0  0
  -15.0240   29.9440   -0.2600 N   0  0  0  0  0  0  0  0  0  0  0  0
  -14.7880   30.7710   -1.2960 N   0  0  0  0  0  0  0  0  0  0  0  0
  -13.6790   31.4480   -0.9500 C   0  0  0  0  0  0  0  0  0  0  0  0
  -13.1010   32.4740   -1.8290 C   0  0  0  0  0  0  0  0  0  0  0  0
  -13.9340   33.2030   -2.7150 C   0  0  0  0  0  0  0  0  0  0  0  0
  -13.4170   34.1860   -3.5660 C   0  0  0  0  0  0  0  0  0  0  0  0
  -12.0630   34.4250   -3.5150 C   0  0  0  0  0  0  0  0  0  0  0  0
  -11.2420   33.7270   -2.6620 C   0  0  0  0  0  0  0  0  0  0  0  0
  -11.7250   32.7520   -1.8110 C   0  0  0  0  0  0  0  0  0  0  0  0
   -9.9410   34.1130   -2.7650 O   0  0  0  0  0  0  0  0  0  0  0  0
  -10.0410   35.1340   -3.7800 C   0  0  0  0  0  0  0  0  0  0  0  0
  -11.3850   35.3350   -4.2610 O   0  0  0  0  0  0  0  0  0  0  0  0
  -13.2120   31.0110    0.3230 C   0  0  0  0  0  0  0  0  0  0  0  0
  -14.0850   30.0340    0.7350 C   0  0  0  0  0  0  0  0  0  0  0  0
  -14.0970   29.2890    1.8610 N   0  0  0  0  0  0  0  0  0  0  0  0
  -16.4960   28.8520    0.7342 H   0  0  0  0  0  0  0  0  0  0  0  0
  -17.0017   29.5952   -0.8210 H   0  0  0  0  0  0  0  0  0  0  0  0
  -15.9315   28.1525   -0.8210 H   0  0  0  0  0  0  0  0  0  0  0  0
  -15.0131   32.9906   -2.7338 H   0  0  0  0  0  0  0  0  0  0  0  0
  -14.0694   34.7474   -4.2510 H   0  0  0  0  0  0  0  0  0  0  0  0
  -11.0485   32.2071   -1.1362 H   0  0  0  0  0  0  0  0  0  0  0  0
   -9.6766   36.0821   -3.3577 H   0  0  0  0  0  0  0  0  0  0  0  0
   -9.4367   34.8001   -4.6364 H   0  0  0  0  0  0  0  0  0  0  0  0
  -12.3302   31.3813    0.8663 H   0  0  0  0  0  0  0  0  0  0  0  0
  -13.7140   29.6770    2.7210 H   0  0  0  0  0  0  0  0  0  0  0  0
  -14.0390   28.2750    1.8330 H   0  0  0  0  0  0  0  0  0  0  0  0
  1  2  1  0
  2  3  1  0
  3  4  2  0
  4  5  1  0
  5  6  2  0
  6  7  1  0
  7  8  2  0
  8  9  1  0
  9 10  2  0
  9 11  1  0
 11 12  1  0
 12 13  1  0
  4 14  1  0
 14 15  2  0
 15 16  1  0
 15  2  1  0
 10  5  1  0
 13  8  1  0
  1 17  1  0
  1 18  1  0
  1 19  1  0
  6 20  1  0
  7 21  1  0
 10 22  1  0
 12 23  1  0
 12 24  1  0
 14 25  1  0
 16 26  1  0
 16 27  1  0
M  END
>  <meeko>  (9) 
{"is_sidechain": [false], "free_energy": -5.014, "intermolecular_energy": -5.455, "internal_energy": -0.188}

$$$$
