2x00_ligand
     RDKit          3D

 85 89  0  0  0  0  0  0  0  0999 V2000
  -14.7030  -22.9420   -2.7520 C   0  0  0  0  0  0  0  0  0  0  0  0
  -15.3660  -21.6920   -2.2020 C   0  0  0  0  0  0  0  0  0  0  0  0
  -15.9600  -20.7710   -3.0060 C   0  0  0  0  0  0  0  0  0  0  0  0
  -16.2800  -20.9680   -4.4930 C   0  0  2  0  0  0  0  0  0  0  0  0
  -15.8990  -19.7990   -5.3900 C   0  0  0  0  0  0  0  0  0  0  0  0
  -16.7770  -20.0290   -6.6040 C   0  0  2  0  0  0  0  0  0  0  0  0
  -17.0580  -18.7540   -7.3770 C   0  0  0  0  0  0  0  0  0  0  0  0
  -18.0050  -20.6050   -5.9570 C   0  0  0  0  0  0  0  0  0  0  0  0
  -19.1230  -20.6510   -6.4410 O   0  0  0  0  0  0  0  0  0  0  0  0
  -17.6860  -21.1030   -4.7270 O   0  0  0  0  0  0  0  0  0  0  0  0
  -16.3020  -19.3860   -2.4900 C   0  0  0  0  0  0  0  0  0  0  0  0
  -15.6990  -19.0540   -1.1240 C   0  0  0  0  0  0  0  0  0  0  0  0
  -15.8630  -20.2000   -0.0940 C   0  0  2  0  0  0  0  0  0  0  0  0
  -17.3850  -20.4580    0.1690 C   0  0  0  0  0  0  0  0  0  0  0  0
  -17.9860  -19.4430    1.1300 C   0  0  0  0  0  0  0  0  0  0  0  0
  -17.2820  -19.5750    2.4640 C   0  0  0  0  0  0  0  0  0  0  0  0
  -15.8260  -19.4720    2.2550 N   0  0  0  0  0  0  0  0  0  0  0  0
  -15.1380  -19.7300    1.1940 C   0  0  0  0  0  0  0  0  0  0  0  0
  -13.6480  -19.3740    1.2380 C   0  0  0  0  0  0  0  0  0  0  0  0
  -13.0120  -19.1290    2.6160 C   0  0  0  0  0  0  0  0  0  0  0  0
  -13.0340  -20.3780    3.4430 C   0  0  0  0  0  0  0  0  0  0  0  0
  -13.5200  -20.5560    4.6900 C   0  0  0  0  0  0  0  0  0  0  0  0
  -14.0360  -19.4670    5.5920 C   0  0  0  0  0  0  0  0  0  0  0  0
  -13.6570  -21.9730    5.2150 C   0  0  2  0  0  0  0  0  0  0  0  0
  -14.1760  -22.7610    4.1220 O   0  0  0  0  0  0  0  0  0  0  0  0
  -14.9230  -23.8580    4.6850 C   0  0  1  0  0  0  0  0  0  0  0  0
  -14.4850  -25.2310    4.1480 C   0  0  0  0  0  0  0  0  0  0  0  0
  -14.0170  -25.2360    2.6880 C   0  0  0  0  0  0  0  0  0  0  0  0
  -15.0690  -24.7050    1.6630 C   0  0  2  0  0  0  0  0  0  0  0  0
  -15.4890  -25.7350    0.7720 O   0  0  0  0  0  0  0  0  0  0  0  0
  -14.5430  -23.5120    0.8660 C   0  0  0  0  0  0  0  0  0  0  0  0
  -13.0400  -23.3830    0.9080 C   0  0  0  0  0  0  0  0  0  0  0  0
  -15.3830  -22.7070    0.1740 C   0  0  0  0  0  0  0  0  0  0  0  0
  -15.1640  -21.4780   -0.6980 C   0  0  1  0  0  0  0  0  0  0  0  0
  -14.8270  -23.7350    6.2050 C   0  0  0  0  0  0  0  0  0  0  0  0
  -14.5990  -22.2440    6.3850 C   0  0  1  0  0  0  0  0  0  0  0  0
  -14.0240  -21.8670    7.7380 C   0  0  0  0  0  0  0  0  0  0  0  0
  -14.3668  -23.5758   -1.9182 H   0  0  0  0  0  0  0  0  0  0  0  0
  -15.4243  -23.4988   -3.3682 H   0  0  0  0  0  0  0  0  0  0  0  0
  -13.8374  -22.6571   -3.3682 H   0  0  0  0  0  0  0  0  0  0  0  0
  -15.6940  -21.8667   -4.7358 H   0  0  0  0  0  0  0  0  0  0  0  0
  -16.1271  -18.8363   -4.9092 H   0  0  0  0  0  0  0  0  0  0  0  0
  -14.8251  -19.7528   -5.6236 H   0  0  0  0  0  0  0  0  0  0  0  0
  -16.3272  -20.6761   -7.3714 H   0  0  0  0  0  0  0  0  0  0  0  0
  -17.2396  -17.9299   -6.6714 H   0  0  0  0  0  0  0  0  0  0  0  0
  -16.1920  -18.5106   -8.0100 H   0  0  0  0  0  0  0  0  0  0  0  0
  -17.9461  -18.8972   -8.0100 H   0  0  0  0  0  0  0  0  0  0  0  0
  -15.9340  -18.6473   -3.2173 H   0  0  0  0  0  0  0  0  0  0  0  0
  -17.3946  -19.3581   -2.3660 H   0  0  0  0  0  0  0  0  0  0  0  0
  -14.6258  -18.8513   -1.2547 H   0  0  0  0  0  0  0  0  0  0  0  0
  -16.2377  -18.1792   -0.7308 H   0  0  0  0  0  0  0  0  0  0  0  0
  -17.9239  -20.4008   -0.7882 H   0  0  0  0  0  0  0  0  0  0  0  0
  -17.4830  -21.4534    0.6268 H   0  0  0  0  0  0  0  0  0  0  0  0
  -17.8443  -18.4267    0.7338 H   0  0  0  0  0  0  0  0  0  0  0  0
  -19.0636  -19.6279    1.2507 H   0  0  0  0  0  0  0  0  0  0  0  0
  -17.6150  -18.7712    3.1371 H   0  0  0  0  0  0  0  0  0  0  0  0
  -17.5231  -20.5490    2.9148 H   0  0  0  0  0  0  0  0  0  0  0  0
  -15.3230  -19.1940    3.1030 H   0  0  0  0  0  0  0  0  0  0  0  0
  -13.0985  -20.2013    0.7650 H   0  0  0  0  0  0  0  0  0  0  0  0
  -13.5787  -18.4042    0.7235 H   0  0  0  0  0  0  0  0  0  0  0  0
  -11.9696  -18.8055    2.4794 H   0  0  0  0  0  0  0  0  0  0  0  0
  -13.5897  -18.3514    3.1372 H   0  0  0  0  0  0  0  0  0  0  0  0
  -12.5954  -21.2695    2.9710 H   0  0  0  0  0  0  0  0  0  0  0  0
  -13.8956  -19.7633    6.6420 H   0  0  0  0  0  0  0  0  0  0  0  0
  -13.4831  -18.5363    5.3966 H   0  0  0  0  0  0  0  0  0  0  0  0
  -15.1064  -19.3055    5.3966 H   0  0  0  0  0  0  0  0  0  0  0  0
  -12.6531  -22.2115    5.5961 H   0  0  0  0  0  0  0  0  0  0  0  0
  -15.9765  -23.7956    4.3746 H   0  0  0  0  0  0  0  0  0  0  0  0
  -13.6559  -25.5934    4.7734 H   0  0  0  0  0  0  0  0  0  0  0  0
  -15.3757  -25.8752    4.1877 H   0  0  0  0  0  0  0  0  0  0  0  0
  -13.1185  -24.6058    2.6142 H   0  0  0  0  0  0  0  0  0  0  0  0
  -13.8311  -26.2878    2.4252 H   0  0  0  0  0  0  0  0  0  0  0  0
  -15.9353  -24.3671    2.2506 H   0  0  0  0  0  0  0  0  0  0  0  0
  -16.0300  -26.3440    1.3060 H   0  0  0  0  0  0  0  0  0  0  0  0
  -12.7036  -23.3541    1.9549 H   0  0  0  0  0  0  0  0  0  0  0  0
  -12.5836  -24.2453    0.3999 H   0  0  0  0  0  0  0  0  0  0  0  0
  -12.7372  -22.4556    0.3999 H   0  0  0  0  0  0  0  0  0  0  0  0
  -16.4397  -23.0007    0.2590 H   0  0  0  0  0  0  0  0  0  0  0  0
  -14.0839  -21.2732   -0.6594 H   0  0  0  0  0  0  0  0  0  0  0  0
  -15.7585  -24.0590    6.6922 H   0  0  0  0  0  0  0  0  0  0  0  0
  -14.0419  -24.3619    6.6529 H   0  0  0  0  0  0  0  0  0  0  0  0
  -15.5184  -21.6402    6.3780 H   0  0  0  0  0  0  0  0  0  0  0  0
  -14.6583  -22.2829    8.5347 H   0  0  0  0  0  0  0  0  0  0  0  0
  -13.0060  -22.2735    7.8300 H   0  0  0  0  0  0  0  0  0  0  0  0
  -13.9909  -20.7713    7.8300 H   0  0  0  0  0  0  0  0  0  0  0  0
  1  2  1  0
  2  3  2  0
  3  4  1  0
  4  5  1  0
  5  6  1  0
  6  7  1  0
  6  8  1  0
  8  9  2  0
  8 10  1  0
  3 11  1  0
 11 12  1  0
 13 12  1  6
 13 14  1  0
 14 15  1  0
 15 16  1  0
 16 17  1  0
 17 18  2  0
 18 19  1  0
 19 20  1  0
 20 21  1  0
 21 22  2  0
 22 23  1  0
 22 24  1  0
 24 25  1  0
 25 26  1  0
 26 27  1  0
 27 28  1  0
 28 29  1  0
 29 30  1  0
 29 31  1  0
 31 32  1  0
 31 33  2  0
 33 34  1  0
 26 35  1  0
 35 36  1  0
 36 37  1  0
 34  2  1  0
 10  4  1  0
 18 13  1  0
 36 24  1  0
 34 13  1  0
  1 38  1  0
  1 39  1  0
  1 40  1  0
  4 41  1  6
  5 42  1  0
  5 43  1  0
  6 44  1  6
  7 45  1  0
  7 46  1  0
  7 47  1  0
 11 48  1  0
 11 49  1  0
 12 50  1  0
 12 51  1  0
 14 52  1  0
 14 53  1  0
 15 54  1  0
 15 55  1  0
 16 56  1  0
 16 57  1  0
 17 58  1  0
 19 59  1  0
 19 60  1  0
 20 61  1  0
 20 62  1  0
 21 63  1  0
 23 64  1  0
 23 65  1  0
 23 66  1  0
 24 67  1  1
 26 68  1  1
 27 69  1  0
 27 70  1  0
 28 71  1  0
 28 72  1  0
 29 73  1  1
 30 74  1  0
 32 75  1  0
 32 76  1  0
 32 77  1  0
 33 78  1  0
 34 79  1  6
 35 80  1  0
 35 81  1  0
 36 82  1  6
 37 83  1  0
 37 84  1  0
 37 85  1  0
M  CHG  1  17   1
M  END
>  <meeko>  (1) 
{"is_sidechain": [false], "free_energy": -8.88, "intermolecular_energy": -13.812, "internal_energy": -0.532}

$$$$
2x00_ligand
     RDKit          3D

 85 89  0  0  0  0  0  0  0  0999 V2000
  -15.9680  -24.1960    6.6400 C   0  0  0  0  0  0  0  0  0  0  0  0
  -15.5870  -22.7410    6.4290 C   0  0  0  0  0  0  0  0  0  0  0  0
  -15.6380  -21.8250    7.4320 C   0  0  0  0  0  0  0  0  0  0  0  0
  -15.8170  -22.1500    8.9200 C   0  0  2  0  0  0  0  0  0  0  0  0
  -15.2410  -23.4890    9.3580 C   0  0  0  0  0  0  0  0  0  0  0  0
  -16.0030  -23.7620   10.6380 C   0  0  2  0  0  0  0  0  0  0  0  0
  -16.0860  -25.2400   10.9700 C   0  0  0  0  0  0  0  0  0  0  0  0
  -17.3380  -23.1600   10.3030 C   0  0  0  0  0  0  0  0  0  0  0  0
  -18.3990  -23.4030   10.8530 O   0  0  0  0  0  0  0  0  0  0  0  0
  -17.1960  -22.2630    9.2840 O   0  0  0  0  0  0  0  0  0  0  0  0
  -15.5950  -20.3380    7.1360 C   0  0  0  0  0  0  0  0  0  0  0  0
  -15.7510  -19.9830    5.6570 C   0  0  0  0  0  0  0  0  0  0  0  0
  -14.8820  -20.8660    4.7260 C   0  0  2  0  0  0  0  0  0  0  0  0
  -13.3670  -20.6440    5.0540 C   0  0  0  0  0  0  0  0  0  0  0  0
  -12.8210  -19.3670    4.4330 C   0  0  0  0  0  0  0  0  0  0  0  0
  -12.9310  -19.4840    2.9280 C   0  0  0  0  0  0  0  0  0  0  0  0
  -14.3190  -19.8270    2.5690 N   0  0  0  0  0  0  0  0  0  0  0  0
  -15.2170  -20.4270    3.2770 C   0  0  0  0  0  0  0  0  0  0  0  0
  -16.6270  -20.5000    2.6810 C   0  0  0  0  0  0  0  0  0  0  0  0
  -16.7680  -20.3350    1.1590 C   0  0  0  0  0  0  0  0  0  0  0  0
  -16.3860  -21.5970    0.4480 C   0  0  0  0  0  0  0  0  0  0  0  0
  -15.5840  -21.7510   -0.6270 C   0  0  0  0  0  0  0  0  0  0  0  0
  -14.9940  -20.6340   -1.4460 C   0  0  0  0  0  0  0  0  0  0  0  0
  -15.1470  -23.1540   -1.0060 C   0  0  2  0  0  0  0  0  0  0  0  0
  -14.1690  -23.5520   -0.0230 O   0  0  0  0  0  0  0  0  0  0  0  0
  -13.2770  -24.4980   -0.6470 C   0  0  1  0  0  0  0  0  0  0  0  0
  -13.1320  -25.8090    0.1440 C   0  0  0  0  0  0  0  0  0  0  0  0
  -14.0060  -25.9090    1.4000 C   0  0  0  0  0  0  0  0  0  0  0  0
  -13.5280  -25.0640    2.6140 C   0  0  2  0  0  0  0  0  0  0  0  0
  -12.9900  -25.8910    3.6420 O   0  0  0  0  0  0  0  0  0  0  0  0
  -14.6460  -24.1910    3.1820 C   0  0  0  0  0  0  0  0  0  0  0  0
  -15.9820  -24.4290    2.5220 C   0  0  0  0  0  0  0  0  0  0  0  0
  -14.4150  -23.3350    4.2050 C   0  0  0  0  0  0  0  0  0  0  0  0
  -15.3050  -22.3650    4.9710 C   0  0  1  0  0  0  0  0  0  0  0  0
  -13.7640  -24.6970   -2.0800 C   0  0  0  0  0  0  0  0  0  0  0  0
  -14.4740  -23.3830   -2.3560 C   0  0  1  0  0  0  0  0  0  0  0  0
  -15.4400  -23.4370   -3.5250 C   0  0  0  0  0  0  0  0  0  0  0  0
  -16.0235  -24.4079    7.7180 H   0  0  0  0  0  0  0  0  0  0  0  0
  -16.9471  -24.3894    6.1774 H   0  0  0  0  0  0  0  0  0  0  0  0
  -15.2094  -24.8445    6.1774 H   0  0  0  0  0  0  0  0  0  0  0  0
  -15.2910  -21.3119    9.4004 H   0  0  0  0  0  0  0  0  0  0  0  0
  -15.4308  -24.2697    8.6067 H   0  0  0  0  0  0  0  0  0  0  0  0
  -14.1488  -23.4784    9.4881 H   0  0  0  0  0  0  0  0  0  0  0  0
  -15.5348  -23.3438   11.5413 H   0  0  0  0  0  0  0  0  0  0  0  0
  -16.0933  -25.3706   12.0622 H   0  0  0  0  0  0  0  0  0  0  0  0
  -17.0092  -25.6602   10.5443 H   0  0  0  0  0  0  0  0  0  0  0  0
  -15.2157  -25.7609   10.5443 H   0  0  0  0  0  0  0  0  0  0  0  0
  -16.4093  -19.8526    7.6939 H   0  0  0  0  0  0  0  0  0  0  0  0
  -14.5978  -19.9865    7.4394 H   0  0  0  0  0  0  0  0  0  0  0  0
  -16.8067  -20.1106    5.3756 H   0  0  0  0  0  0  0  0  0  0  0  0
  -15.4146  -18.9432    5.5315 H   0  0  0  0  0  0  0  0  0  0  0  0
  -13.2467  -20.5855    6.1458 H   0  0  0  0  0  0  0  0  0  0  0  0
  -12.8046  -21.4898    4.6316 H   0  0  0  0  0  0  0  0  0  0  0  0
  -13.4065  -18.5039    4.7825 H   0  0  0  0  0  0  0  0  0  0  0  0
  -11.7704  -19.2231    4.7256 H   0  0  0  0  0  0  0  0  0  0  0  0
  -12.6569  -18.5254    2.4634 H   0  0  0  0  0  0  0  0  0  0  0  0
  -12.2509  -20.2699    2.5676 H   0  0  0  0  0  0  0  0  0  0  0  0
  -14.5530  -19.5740    1.6040 H   0  0  0  0  0  0  0  0  0  0  0  0
  -17.0451  -21.4825    2.9452 H   0  0  0  0  0  0  0  0  0  0  0  0
  -17.1538  -19.6324    3.1051 H   0  0  0  0  0  0  0  0  0  0  0  0
  -17.8126  -20.0880    0.9185 H   0  0  0  0  0  0  0  0  0  0  0  0
  -16.0972  -19.5282    0.8288 H   0  0  0  0  0  0  0  0  0  0  0  0
  -16.8170  -22.5228    0.8569 H   0  0  0  0  0  0  0  0  0  0  0  0
  -14.5868  -19.8631   -0.7753 H   0  0  0  0  0  0  0  0  0  0  0  0
  -14.1879  -21.0309   -2.0806 H   0  0  0  0  0  0  0  0  0  0  0  0
  -15.7762  -20.1919   -2.0806 H   0  0  0  0  0  0  0  0  0  0  0  0
  -16.0892  -23.7192   -1.0585 H   0  0  0  0  0  0  0  0  0  0  0  0
  -12.2514  -24.1005   -0.6570 H   0  0  0  0  0  0  0  0  0  0  0  0
  -13.3981  -26.6415   -0.5239 H   0  0  0  0  0  0  0  0  0  0  0  0
  -12.0891  -25.8439    0.4920 H   0  0  0  0  0  0  0  0  0  0  0  0
  -15.0208  -25.5778    1.1345 H   0  0  0  0  0  0  0  0  0  0  0  0
  -13.9540  -26.9594    1.7226 H   0  0  0  0  0  0  0  0  0  0  0  0
  -12.7343  -24.4009    2.2394 H   0  0  0  0  0  0  0  0  0  0  0  0
  -13.7510  -26.3540    4.0360 H   0  0  0  0  0  0  0  0  0  0  0  0
  -16.7532  -24.5664    3.2943 H   0  0  0  0  0  0  0  0  0  0  0  0
  -16.2409  -23.5628    1.8953 H   0  0  0  0  0  0  0  0  0  0  0  0
  -15.9258  -25.3313    1.8953 H   0  0  0  0  0  0  0  0  0  0  0  0
  -13.3719  -23.3413    4.5542 H   0  0  0  0  0  0  0  0  0  0  0  0
  -16.3078  -22.4676    4.5308 H   0  0  0  0  0  0  0  0  0  0  0  0
  -12.9218  -24.8494   -2.7711 H   0  0  0  0  0  0  0  0  0  0  0  0
  -14.4021  -25.5831   -2.2132 H   0  0  0  0  0  0  0  0  0  0  0  0
  -13.8105  -22.5669   -2.6780 H   0  0  0  0  0  0  0  0  0  0  0  0
  -16.4711  -23.4946   -3.1462 H   0  0  0  0  0  0  0  0  0  0  0  0
  -15.3247  -22.5310   -4.1381 H   0  0  0  0  0  0  0  0  0  0  0  0
  -15.2244  -24.3245   -4.1381 H   0  0  0  0  0  0  0  0  0  0  0  0
  1  2  1  0
  2  3  2  0
  3  4  1  0
  4  5  1  0
  5  6  1  0
  6  7  1  0
  6  8  1  0
  8  9  2  0
  8 10  1  0
  3 11  1  0
 11 12  1  0
 13 12  1  1
 13 14  1  0
 14 15  1  0
 15 16  1  0
 16 17  1  0
 17 18  2  0
 18 19  1  0
 19 20  1  0
 20 21  1  0
 21 22  2  0
 22 23  1  0
 22 24  1  0
 24 25  1  0
 25 26  1  0
 26 27  1  0
 27 28  1  0
 28 29  1  0
 29 30  1  0
 29 31  1  0
 31 32  1  0
 31 33  2  0
 33 34  1  0
 26 35  1  0
 35 36  1  0
 36 37  1  0
 34  2  1  0
 10  4  1  0
 18 13  1  0
 36 24  1  0
 34 13  1  0
  1 38  1  0
  1 39  1  0
  1 40  1  0
  4 41  1  1
  5 42  1  0
  5 43  1  0
  6 44  1  1
  7 45  1  0
  7 46  1  0
  7 47  1  0
 11 48  1  0
 11 49  1  0
 12 50  1  0
 12 51  1  0
 14 52  1  0
 14 53  1  0
 15 54  1  0
 15 55  1  0
 16 56  1  0
 16 57  1  0
 17 58  1  0
 19 59  1  0
 19 60  1  0
 20 61  1  0
 20 62  1  0
 21 63  1  0
 23 64  1  0
 23 65  1  0
 23 66  1  0
 24 67  1  6
 26 68  1  6
 27 69  1  0
 27 70  1  0
 28 71  1  0
 28 72  1  0
 29 73  1  6
 30 74  1  0
 32 75  1  0
 32 76  1  0
 32 77  1  0
 33 78  1  0
 34 79  1  6
 35 80  1  0
 35 81  1  0
 36 82  1  6
 37 83  1  0
 37 84  1  0
 37 85  1  0
M  CHG  1  17   1
M  END
>  <meeko>  (2) 
{"is_sidechain": [false], "free_energy": -8.224, "intermolecular_energy": -13.05, "internal_energy": -0.274}

$$$$
2x00_ligand
     RDKit          3D

 85 89  0  0  0  0  0  0  0  0999 V2000
  -16.6030  -20.9530   -0.2200 C   0  0  0  0  0  0  0  0  0  0  0  0
  -15.5140  -21.8410   -0.7990 C   0  0  0  0  0  0  0  0  0  0  0  0
  -15.3360  -21.9910   -2.1380 C   0  0  0  0  0  0  0  0  0  0  0  0
  -15.9900  -21.1260   -3.2220 C   0  0  2  0  0  0  0  0  0  0  0  0
  -16.6790  -21.9040   -4.3340 C   0  0  0  0  0  0  0  0  0  0  0  0
  -16.7320  -20.8830   -5.4530 C   0  0  2  0  0  0  0  0  0  0  0  0
  -16.8070  -21.5210   -6.8280 C   0  0  0  0  0  0  0  0  0  0  0  0
  -15.4440  -20.1440   -5.2190 C   0  0  0  0  0  0  0  0  0  0  0  0
  -14.8500  -19.4550   -6.0300 O   0  0  0  0  0  0  0  0  0  0  0  0
  -15.0300  -20.3380   -3.9330 O   0  0  0  0  0  0  0  0  0  0  0  0
  -14.4950  -23.1250   -2.6930 C   0  0  0  0  0  0  0  0  0  0  0  0
  -14.1080  -24.1870   -1.6630 C   0  0  0  0  0  0  0  0  0  0  0  0
  -13.6010  -23.5830   -0.3290 C   0  0  2  0  0  0  0  0  0  0  0  0
  -12.2990  -22.7530   -0.5880 C   0  0  0  0  0  0  0  0  0  0  0  0
  -11.0660  -23.6360   -0.7120 C   0  0  0  0  0  0  0  0  0  0  0  0
  -10.8670  -24.3650    0.6000 C   0  0  0  0  0  0  0  0  0  0  0  0
  -12.1170  -25.0590    0.9620 N   0  0  0  0  0  0  0  0  0  0  0  0
  -13.3290  -24.7830    0.6140 C   0  0  0  0  0  0  0  0  0  0  0  0
  -14.4080  -25.7910    1.0260 C   0  0  0  0  0  0  0  0  0  0  0  0
  -14.3150  -26.4030    2.4330 C   0  0  0  0  0  0  0  0  0  0  0  0
  -14.7300  -25.4100    3.4750 C   0  0  0  0  0  0  0  0  0  0  0  0
  -14.2610  -25.2590    4.7320 C   0  0  0  0  0  0  0  0  0  0  0  0
  -13.2840  -26.1760    5.4170 C   0  0  0  0  0  0  0  0  0  0  0  0
  -14.6610  -24.0180    5.5080 C   0  0  2  0  0  0  0  0  0  0  0  0
  -13.9240  -22.9220    4.9250 O   0  0  0  0  0  0  0  0  0  0  0  0
  -13.7310  -21.9270    5.9510 C   0  0  1  0  0  0  0  0  0  0  0  0
  -14.1960  -20.5220    5.5300 C   0  0  0  0  0  0  0  0  0  0  0  0
  -14.5920  -20.3860    4.0550 C   0  0  0  0  0  0  0  0  0  0  0  0
  -13.3930  -20.2050    3.0810 C   0  0  2  0  0  0  0  0  0  0  0  0
  -12.9620  -18.8480    3.0200 O   0  0  0  0  0  0  0  0  0  0  0  0
  -13.7370  -20.7030    1.6780 C   0  0  0  0  0  0  0  0  0  0  0  0
  -13.3310  -19.7430    0.5880 C   0  0  0  0  0  0  0  0  0  0  0  0
  -14.3120  -21.9140    1.4870 C   0  0  0  0  0  0  0  0  0  0  0  0
  -14.7550  -22.6700    0.2410 C   0  0  1  0  0  0  0  0  0  0  0  0
  -14.4140  -22.4450    7.2150 C   0  0  0  0  0  0  0  0  0  0  0  0
  -14.3660  -23.9480    7.0030 C   0  0  1  0  0  0  0  0  0  0  0  0
  -15.3490  -24.7230    7.8610 C   0  0  0  0  0  0  0  0  0  0  0  0
  -16.5595  -20.9885    0.8786 H   0  0  0  0  0  0  0  0  0  0  0  0
  -16.4513  -19.9178   -0.5597 H   0  0  0  0  0  0  0  0  0  0  0  0
  -17.5864  -21.3100   -0.5597 H   0  0  0  0  0  0  0  0  0  0  0  0
  -16.7131  -20.5375   -2.6382 H   0  0  0  0  0  0  0  0  0  0  0  0
  -16.0913  -22.7865   -4.6267 H   0  0  0  0  0  0  0  0  0  0  0  0
  -17.6652  -22.3002   -4.0504 H   0  0  0  0  0  0  0  0  0  0  0  0
  -17.6267  -20.2432   -5.4402 H   0  0  0  0  0  0  0  0  0  0  0  0
  -16.9348  -22.6083   -6.7212 H   0  0  0  0  0  0  0  0  0  0  0  0
  -17.6623  -21.1037   -7.3797 H   0  0  0  0  0  0  0  0  0  0  0  0
  -15.8783  -21.3134   -7.3797 H   0  0  0  0  0  0  0  0  0  0  0  0
  -15.0655  -23.6157   -3.4954 H   0  0  0  0  0  0  0  0  0  0  0  0
  -13.5561  -22.6750   -3.0479 H   0  0  0  0  0  0  0  0  0  0  0  0
  -14.9906  -24.8090   -1.4528 H   0  0  0  0  0  0  0  0  0  0  0  0
  -13.2830  -24.7748   -2.0917 H   0  0  0  0  0  0  0  0  0  0  0  0
  -12.4220  -22.1842   -1.5214 H   0  0  0  0  0  0  0  0  0  0  0  0
  -12.1491  -22.0849    0.2729 H   0  0  0  0  0  0  0  0  0  0  0  0
  -11.2106  -24.3643   -1.5236 H   0  0  0  0  0  0  0  0  0  0  0  0
  -10.1826  -23.0219   -0.9412 H   0  0  0  0  0  0  0  0  0  0  0  0
  -10.0555  -25.0999    0.4935 H   0  0  0  0  0  0  0  0  0  0  0  0
  -10.6024  -23.6441    1.3876 H   0  0  0  0  0  0  0  0  0  0  0  0
  -11.9640  -25.8370    1.6100 H   0  0  0  0  0  0  0  0  0  0  0  0
  -15.3795  -25.2801    0.9536 H   0  0  0  0  0  0  0  0  0  0  0  0
  -14.2683  -26.6420    0.3432 H   0  0  0  0  0  0  0  0  0  0  0  0
  -14.9754  -27.2809    2.4885 H   0  0  0  0  0  0  0  0  0  0  0  0
  -13.2715  -26.6955    2.6213 H   0  0  0  0  0  0  0  0  0  0  0  0
  -15.5237  -24.7096    3.1757 H   0  0  0  0  0  0  0  0  0  0  0  0
  -13.3902  -26.0764    6.5073 H   0  0  0  0  0  0  0  0  0  0  0  0
  -13.4885  -27.2158    5.1222 H   0  0  0  0  0  0  0  0  0  0  0  0
  -12.2592  -25.9061    5.1222 H   0  0  0  0  0  0  0  0  0  0  0  0
  -15.7584  -24.0034    5.4345 H   0  0  0  0  0  0  0  0  0  0  0  0
  -12.6570  -21.7860    6.1424 H   0  0  0  0  0  0  0  0  0  0  0  0
  -15.0683  -20.2529    6.1438 H   0  0  0  0  0  0  0  0  0  0  0  0
  -13.3343  -19.8549    5.6800 H   0  0  0  0  0  0  0  0  0  0  0  0
  -15.1399  -21.2934    3.7610 H   0  0  0  0  0  0  0  0  0  0  0  0
  -15.2003  -19.4729    3.9766 H   0  0  0  0  0  0  0  0  0  0  0  0
  -12.5670  -20.8123    3.4797 H   0  0  0  0  0  0  0  0  0  0  0  0
  -12.1600  -18.7970    3.5710 H   0  0  0  0  0  0  0  0  0  0  0  0
  -12.9403  -18.8193    1.0398 H   0  0  0  0  0  0  0  0  0  0  0  0
  -12.5511  -20.2046   -0.0354 H   0  0  0  0  0  0  0  0  0  0  0  0
  -14.2055  -19.5049   -0.0354 H   0  0  0  0  0  0  0  0  0  0  0  0
  -14.4968  -22.4636    2.4218 H   0  0  0  0  0  0  0  0  0  0  0  0
  -15.5450  -23.3589    0.5747 H   0  0  0  0  0  0  0  0  0  0  0  0
  -13.8601  -22.1504    8.1185 H   0  0  0  0  0  0  0  0  0  0  0  0
  -15.4293  -22.0494    7.3657 H   0  0  0  0  0  0  0  0  0  0  0  0
  -13.4177  -24.4186    7.3019 H   0  0  0  0  0  0  0  0  0  0  0  0
  -15.1261  -24.5472    8.9237 H   0  0  0  0  0  0  0  0  0  0  0  0
  -16.3728  -24.3865    7.6406 H   0  0  0  0  0  0  0  0  0  0  0  0
  -15.2607  -25.7971    7.6406 H   0  0  0  0  0  0  0  0  0  0  0  0
  1  2  1  0
  2  3  2  0
  3  4  1  0
  4  5  1  0
  5  6  1  0
  6  7  1  0
  6  8  1  0
  8  9  2  0
  8 10  1  0
  3 11  1  0
 11 12  1  0
 13 12  1  6
 13 14  1  0
 14 15  1  0
 15 16  1  0
 16 17  1  0
 17 18  2  0
 18 19  1  0
 19 20  1  0
 20 21  1  0
 21 22  2  0
 22 23  1  0
 22 24  1  0
 24 25  1  0
 25 26  1  0
 26 27  1  0
 27 28  1  0
 28 29  1  0
 29 30  1  0
 29 31  1  0
 31 32  1  0
 31 33  2  0
 33 34  1  0
 26 35  1  0
 35 36  1  0
 36 37  1  0
 34  2  1  0
 10  4  1  0
 18 13  1  0
 36 24  1  0
 34 13  1  0
  1 38  1  0
  1 39  1  0
  1 40  1  0
  4 41  1  1
  5 42  1  0
  5 43  1  0
  6 44  1  1
  7 45  1  0
  7 46  1  0
  7 47  1  0
 11 48  1  0
 11 49  1  0
 12 50  1  0
 12 51  1  0
 14 52  1  0
 14 53  1  0
 15 54  1  0
 15 55  1  0
 16 56  1  0
 16 57  1  0
 17 58  1  0
 19 59  1  0
 19 60  1  0
 20 61  1  0
 20 62  1  0
 21 63  1  0
 23 64  1  0
 23 65  1  0
 23 66  1  0
 24 67  1  1
 26 68  1  1
 27 69  1  0
 27 70  1  0
 28 71  1  0
 28 72  1  0
 29 73  1  1
 30 74  1  0
 32 75  1  0
 32 76  1  0
 32 77  1  0
 33 78  1  0
 34 79  1  1
 35 80  1  0
 35 81  1  0
 36 82  1  6
 37 83  1  0
 37 84  1  0
 37 85  1  0
M  CHG  1  17   1
M  END
>  <meeko>  (3) 
{"is_sidechain": [false], "free_energy": -7.594, "intermolecular_energy": -11.207, "internal_energy": -1.137}

$$$$
2x00_ligand
     RDKit          3D

 85 89  0  0  0  0  0  0  0  0999 V2000
  -16.3860  -23.4440    2.9460 C   0  0  0  0  0  0  0  0  0  0  0  0
  -15.1100  -22.9600    2.2780 C   0  0  0  0  0  0  0  0  0  0  0  0
  -14.4360  -21.8620    2.7100 C   0  0  0  0  0  0  0  0  0  0  0  0
  -14.6880  -21.1320    4.0350 C   0  0  2  0  0  0  0  0  0  0  0  0
  -13.6490  -20.0780    4.3930 C   0  0  0  0  0  0  0  0  0  0  0  0
  -13.8360  -19.9410    5.8900 C   0  0  2  0  0  0  0  0  0  0  0  0
  -12.5910  -19.4370    6.5950 C   0  0  0  0  0  0  0  0  0  0  0  0
  -14.1860  -21.3550    6.2590 C   0  0  0  0  0  0  0  0  0  0  0  0
  -14.1060  -21.8530    7.3690 O   0  0  0  0  0  0  0  0  0  0  0  0
  -14.6380  -22.0200    5.1560 O   0  0  0  0  0  0  0  0  0  0  0  0
  -13.3840  -21.1990    1.8420 C   0  0  0  0  0  0  0  0  0  0  0  0
  -13.3470  -21.7010    0.3980 C   0  0  0  0  0  0  0  0  0  0  0  0
  -13.4120  -23.2450    0.2910 C   0  0  2  0  0  0  0  0  0  0  0  0
  -12.1580  -23.8740    0.9860 C   0  0  0  0  0  0  0  0  0  0  0  0
  -10.9190  -23.8170    0.1060 C   0  0  0  0  0  0  0  0  0  0  0  0
  -11.1820  -24.6320   -1.1420 C   0  0  0  0  0  0  0  0  0  0  0  0
  -12.4330  -24.1670   -1.7690 N   0  0  0  0  0  0  0  0  0  0  0  0
  -13.4420  -23.5730   -1.2250 C   0  0  0  0  0  0  0  0  0  0  0  0
  -14.5350  -23.0680   -2.1730 C   0  0  0  0  0  0  0  0  0  0  0  0
  -15.0780  -24.0500   -3.2240 C   0  0  0  0  0  0  0  0  0  0  0  0
  -15.2800  -25.4100   -2.6300 C   0  0  0  0  0  0  0  0  0  0  0  0
  -15.9160  -26.4770   -3.1590 C   0  0  0  0  0  0  0  0  0  0  0  0
  -16.6970  -26.4810   -4.4460 C   0  0  0  0  0  0  0  0  0  0  0  0
  -15.7660  -27.8210   -2.4700 C   0  0  2  0  0  0  0  0  0  0  0  0
  -14.6340  -27.6960   -1.5830 O   0  0  0  0  0  0  0  0  0  0  0  0
  -14.0490  -29.0060   -1.4280 C   0  0  1  0  0  0  0  0  0  0  0  0
  -13.8810  -29.4260    0.0420 C   0  0  0  0  0  0  0  0  0  0  0  0
  -13.4840  -28.2960    0.9980 C   0  0  0  0  0  0  0  0  0  0  0  0
  -14.6610  -27.6330    1.7630 C   0  0  2  0  0  0  0  0  0  0  0  0
  -15.8990  -27.8290    1.0850 O   0  0  0  0  0  0  0  0  0  0  0  0
  -14.4120  -26.1400    1.9680 C   0  0  0  0  0  0  0  0  0  0  0  0
  -13.6200  -25.8330    3.2140 C   0  0  0  0  0  0  0  0  0  0  0  0
  -14.8460  -25.2270    1.0670 C   0  0  0  0  0  0  0  0  0  0  0  0
  -14.7460  -23.7090    0.9920 C   0  0  1  0  0  0  0  0  0  0  0  0
  -14.8950  -29.9760   -2.2510 C   0  0  0  0  0  0  0  0  0  0  0  0
  -15.4790  -29.0600   -3.3130 C   0  0  1  0  0  0  0  0  0  0  0  0
  -16.7020  -29.6260   -4.0110 C   0  0  0  0  0  0  0  0  0  0  0  0
  -16.2676  -23.3991    4.0387 H   0  0  0  0  0  0  0  0  0  0  0  0
  -17.2256  -22.8019    2.6415 H   0  0  0  0  0  0  0  0  0  0  0  0
  -16.5885  -24.4814    2.6415 H   0  0  0  0  0  0  0  0  0  0  0  0
  -15.6754  -20.6791    3.8619 H   0  0  0  0  0  0  0  0  0  0  0  0
  -12.6328  -20.4200    4.1475 H   0  0  0  0  0  0  0  0  0  0  0  0
  -13.7713  -19.1326    3.8441 H   0  0  0  0  0  0  0  0  0  0  0  0
  -14.5917  -19.1982    6.1853 H   0  0  0  0  0  0  0  0  0  0  0  0
  -12.7368  -19.4960    7.6837 H   0  0  0  0  0  0  0  0  0  0  0  0
  -11.7297  -20.0573    6.3063 H   0  0  0  0  0  0  0  0  0  0  0  0
  -12.4037  -18.3922    6.3063 H   0  0  0  0  0  0  0  0  0  0  0  0
  -13.5840  -20.1175    1.8250 H   0  0  0  0  0  0  0  0  0  0  0  0
  -12.4088  -21.4484    2.2857 H   0  0  0  0  0  0  0  0  0  0  0  0
  -14.2054  -21.2759   -0.1428 H   0  0  0  0  0  0  0  0  0  0  0  0
  -12.3882  -21.3816   -0.0364 H   0  0  0  0  0  0  0  0  0  0  0  0
  -11.9562  -23.3232    1.9166 H   0  0  0  0  0  0  0  0  0  0  0  0
  -12.3801  -24.9328    1.1849 H   0  0  0  0  0  0  0  0  0  0  0  0
  -10.7067  -22.7735   -0.1696 H   0  0  0  0  0  0  0  0  0  0  0  0
  -10.0518  -24.2233    0.6472 H   0  0  0  0  0  0  0  0  0  0  0  0
  -10.3474  -24.5049   -1.8472 H   0  0  0  0  0  0  0  0  0  0  0  0
  -11.2742  -25.6955   -0.8767 H   0  0  0  0  0  0  0  0  0  0  0  0
  -12.4880  -24.4000   -2.7640 H   0  0  0  0  0  0  0  0  0  0  0  0
  -15.3851  -22.7468   -1.5531 H   0  0  0  0  0  0  0  0  0  0  0  0
  -14.0500  -22.2733   -2.7589 H   0  0  0  0  0  0  0  0  0  0  0  0
  -16.0404  -23.6760   -3.6032 H   0  0  0  0  0  0  0  0  0  0  0  0
  -14.3473  -24.1287   -4.0424 H   0  0  0  0  0  0  0  0  0  0  0  0
  -14.8525  -25.5597   -1.6276 H   0  0  0  0  0  0  0  0  0  0  0  0
  -17.7738  -26.4865   -4.2214 H   0  0  0  0  0  0  0  0  0  0  0  0
  -16.4485  -25.5816   -5.0285 H   0  0  0  0  0  0  0  0  0  0  0  0
  -16.4393  -27.3778   -5.0285 H   0  0  0  0  0  0  0  0  0  0  0  0
  -16.7558  -28.0024   -2.0258 H   0  0  0  0  0  0  0  0  0  0  0  0
  -13.0155  -29.0058   -1.8045 H   0  0  0  0  0  0  0  0  0  0  0  0
  -14.8371  -29.8456    0.3882 H   0  0  0  0  0  0  0  0  0  0  0  0
  -13.0531  -30.1500    0.0618 H   0  0  0  0  0  0  0  0  0  0  0  0
  -12.7849  -28.7083    1.7405 H   0  0  0  0  0  0  0  0  0  0  0  0
  -13.0441  -27.5064    0.3711 H   0  0  0  0  0  0  0  0  0  0  0  0
  -14.7229  -28.1201    2.7473 H   0  0  0  0  0  0  0  0  0  0  0  0
  -16.3570  -28.5400    1.5680 H   0  0  0  0  0  0  0  0  0  0  0  0
  -14.2264  -26.0681    4.1011 H   0  0  0  0  0  0  0  0  0  0  0  0
  -12.7033  -26.4409    3.2249 H   0  0  0  0  0  0  0  0  0  0  0  0
  -13.3525  -24.7661    3.2249 H   0  0  0  0  0  0  0  0  0  0  0  0
  -15.3800  -25.6729    0.2149 H   0  0  0  0  0  0  0  0  0  0  0  0
  -15.5605  -23.3887    0.3257 H   0  0  0  0  0  0  0  0  0  0  0  0
  -14.2748  -30.7654   -2.7007 H   0  0  0  0  0  0  0  0  0  0  0  0
  -15.6530  -30.5139   -1.6626 H   0  0  0  0  0  0  0  0  0  0  0  0
  -14.8168  -28.8820   -4.1731 H   0  0  0  0  0  0  0  0  0  0  0  0
  -17.4303  -29.9631   -3.2587 H   0  0  0  0  0  0  0  0  0  0  0  0
  -17.1583  -28.8475   -4.6401 H   0  0  0  0  0  0  0  0  0  0  0  0
  -16.4038  -30.4777   -4.6401 H   0  0  0  0  0  0  0  0  0  0  0  0
  1  2  1  0
  2  3  2  0
  3  4  1  0
  4  5  1  0
  5  6  1  0
  6  7  1  0
  6  8  1  0
  8  9  2  0
  8 10  1  0
  3 11  1  0
 11 12  1  0
 13 12  1  6
 13 14  1  0
 14 15  1  0
 15 16  1  0
 16 17  1  0
 17 18  2  0
 18 19  1  0
 19 20  1  0
 20 21  1  0
 21 22  2  0
 22 23  1  0
 22 24  1  0
 24 25  1  0
 25 26  1  0
 26 27  1  0
 27 28  1  0
 28 29  1  0
 29 30  1  0
 29 31  1  0
 31 32  1  0
 31 33  2  0
 33 34  1  0
 26 35  1  0
 35 36  1  0
 36 37  1  0
 34  2  1  0
 10  4  1  0
 18 13  1  0
 36 24  1  0
 34 13  1  0
  1 38  1  0
  1 39  1  0
  1 40  1  0
  4 41  1  6
  5 42  1  0
  5 43  1  0
  6 44  1  6
  7 45  1  0
  7 46  1  0
  7 47  1  0
 11 48  1  0
 11 49  1  0
 12 50  1  0
 12 51  1  0
 14 52  1  0
 14 53  1  0
 15 54  1  0
 15 55  1  0
 16 56  1  0
 16 57  1  0
 17 58  1  0
 19 59  1  0
 19 60  1  0
 20 61  1  0
 20 62  1  0
 21 63  1  0
 23 64  1  0
 23 65  1  0
 23 66  1  0
 24 67  1  1
 26 68  1  6
 27 69  1  0
 27 70  1  0
 28 71  1  0
 28 72  1  0
 29 73  1  1
 30 74  1  0
 32 75  1  0
 32 76  1  0
 32 77  1  0
 33 78  1  0
 34 79  1  6
 35 80  1  0
 35 81  1  0
 36 82  1  6
 37 83  1  0
 37 84  1  0
 37 85  1  0
M  CHG  1  17   1
M  END
>  <meeko>  (4) 
{"is_sidechain": [false], "free_energy": -7.415, "intermolecular_energy": -11.055, "internal_energy": -1.011}

$$$$
2x00_ligand
     RDKit          3D

 85 89  0  0  0  0  0  0  0  0999 V2000
  -16.8990  -20.1790   -1.1040 C   0  0  0  0  0  0  0  0  0  0  0  0
  -15.8980  -21.2940   -1.3520 C   0  0  0  0  0  0  0  0  0  0  0  0
  -15.6110  -21.7480   -2.6010 C   0  0  0  0  0  0  0  0  0  0  0  0
  -16.0230  -21.0620   -3.9090 C   0  0  2  0  0  0  0  0  0  0  0  0
  -16.7260  -21.9650   -4.9120 C   0  0  0  0  0  0  0  0  0  0  0  0
  -16.5190  -21.2190   -6.2140 C   0  0  2  0  0  0  0  0  0  0  0  0
  -16.5740  -22.1270   -7.4280 C   0  0  0  0  0  0  0  0  0  0  0  0
  -15.1570  -20.6280   -5.9850 C   0  0  0  0  0  0  0  0  0  0  0  0
  -14.3910  -20.2210   -6.8420 O   0  0  0  0  0  0  0  0  0  0  0  0
  -14.8920  -20.5880   -4.6460 O   0  0  0  0  0  0  0  0  0  0  0  0
  -14.8920  -23.0670   -2.8070 C   0  0  0  0  0  0  0  0  0  0  0  0
  -14.7670  -23.9230   -1.5460 C   0  0  0  0  0  0  0  0  0  0  0  0
  -14.3130  -23.1130   -0.3060 C   0  0  2  0  0  0  0  0  0  0  0  0
  -12.8850  -22.5210   -0.5570 C   0  0  0  0  0  0  0  0  0  0  0  0
  -11.7860  -23.5520   -0.3450 C   0  0  0  0  0  0  0  0  0  0  0  0
  -11.8260  -24.0020    1.1000 C   0  0  0  0  0  0  0  0  0  0  0  0
  -13.1920  -24.4470    1.4300 N   0  0  0  0  0  0  0  0  0  0  0  0
  -14.3120  -24.1080    0.8840 C   0  0  0  0  0  0  0  0  0  0  0  0
  -15.5600  -24.8660    1.3470 C   0  0  0  0  0  0  0  0  0  0  0  0
  -15.7760  -25.0300    2.8610 C   0  0  0  0  0  0  0  0  0  0  0  0
  -15.6080  -23.7210    3.5680 C   0  0  0  0  0  0  0  0  0  0  0  0
  -14.9840  -23.4680    4.7390 C   0  0  0  0  0  0  0  0  0  0  0  0
  -14.4250  -24.5060    5.6750 C   0  0  0  0  0  0  0  0  0  0  0  0
  -14.7250  -22.0220    5.1210 C   0  0  2  0  0  0  0  0  0  0  0  0
  -13.4640  -21.6640    4.5160 O   0  0  0  0  0  0  0  0  0  0  0  0
  -12.8630  -20.6350    5.3280 C   0  0  1  0  0  0  0  0  0  0  0  0
  -12.4590  -19.3860    4.5250 C   0  0  0  0  0  0  0  0  0  0  0  0
  -12.5350  -19.5420    3.0020 C   0  0  0  0  0  0  0  0  0  0  0  0
  -13.9000  -19.1740    2.3760 C   0  0  2  0  0  0  0  0  0  0  0  0
  -14.9680  -19.4200    3.2870 O   0  0  0  0  0  0  0  0  0  0  0  0
  -14.1450  -19.9340    1.0730 C   0  0  0  0  0  0  0  0  0  0  0  0
  -13.3740  -19.3750   -0.0970 C   0  0  0  0  0  0  0  0  0  0  0  0
  -14.9520  -21.0210    1.0370 C   0  0  0  0  0  0  0  0  0  0  0  0
  -15.3730  -21.9670   -0.0800 C   0  0  1  0  0  0  0  0  0  0  0  0
  -13.8310  -20.3420    6.4720 C   0  0  0  0  0  0  0  0  0  0  0  0
  -14.5790  -21.6580    6.5950 C   0  0  1  0  0  0  0  0  0  0  0  0
  -15.8990  -21.5510    7.3370 C   0  0  0  0  0  0  0  0  0  0  0  0
  -17.0275  -20.0358   -0.0210 H   0  0  0  0  0  0  0  0  0  0  0  0
  -16.5289  -19.2468   -1.5557 H   0  0  0  0  0  0  0  0  0  0  0  0
  -17.8656  -20.4468   -1.5557 H   0  0  0  0  0  0  0  0  0  0  0  0
  -16.6924  -20.2668   -3.5490 H   0  0  0  0  0  0  0  0  0  0  0  0
  -16.2617  -22.9617   -4.9452 H   0  0  0  0  0  0  0  0  0  0  0  0
  -17.7835  -22.1513   -4.6731 H   0  0  0  0  0  0  0  0  0  0  0  0
  -17.2993  -20.4771   -6.4391 H   0  0  0  0  0  0  0  0  0  0  0  0
  -16.6375  -23.1749   -7.0995 H   0  0  0  0  0  0  0  0  0  0  0  0
  -17.4587  -21.8780   -8.0324 H   0  0  0  0  0  0  0  0  0  0  0  0
  -15.6657  -21.9866   -8.0324 H   0  0  0  0  0  0  0  0  0  0  0  0
  -15.4445  -23.6456   -3.5620 H   0  0  0  0  0  0  0  0  0  0  0  0
  -13.8672  -22.8198   -3.1210 H   0  0  0  0  0  0  0  0  0  0  0  0
  -15.7467  -24.3742   -1.3303 H   0  0  0  0  0  0  0  0  0  0  0  0
  -13.9976  -24.6846   -1.7408 H   0  0  0  0  0  0  0  0  0  0  0  0
  -12.8311  -22.1547   -1.5928 H   0  0  0  0  0  0  0  0  0  0  0  0
  -12.7266  -21.7073    0.1661 H   0  0  0  0  0  0  0  0  0  0  0  0
  -11.9525  -24.4142   -1.0075 H   0  0  0  0  0  0  0  0  0  0  0  0
  -10.8049  -23.1121   -0.5771 H   0  0  0  0  0  0  0  0  0  0  0  0
  -11.1222  -24.8347    1.2459 H   0  0  0  0  0  0  0  0  0  0  0  0
  -11.5403  -23.1665    1.7559 H   0  0  0  0  0  0  0  0  0  0  0  0
  -13.2190  -25.0810    2.2340 H   0  0  0  0  0  0  0  0  0  0  0  0
  -16.4352  -24.3339    0.9460 H   0  0  0  0  0  0  0  0  0  0  0  0
  -15.4173  -25.8909    0.9738 H   0  0  0  0  0  0  0  0  0  0  0  0
  -16.7928  -25.4090    3.0410 H   0  0  0  0  0  0  0  0  0  0  0  0
  -15.0287  -25.7380    3.2486 H   0  0  0  0  0  0  0  0  0  0  0  0
  -16.0522  -22.8484    3.0667 H   0  0  0  0  0  0  0  0  0  0  0  0
  -14.5946  -24.1911    6.7152 H   0  0  0  0  0  0  0  0  0  0  0  0
  -14.9267  -25.4686    5.4969 H   0  0  0  0  0  0  0  0  0  0  0  0
  -13.3452  -24.6169    5.4969 H   0  0  0  0  0  0  0  0  0  0  0  0
  -15.6299  -21.4939    4.7860 H   0  0  0  0  0  0  0  0  0  0  0  0
  -11.9044  -20.9876    5.7363 H   0  0  0  0  0  0  0  0  0  0  0  0
  -13.1264  -18.5619    4.8173 H   0  0  0  0  0  0  0  0  0  0  0  0
  -11.4016  -19.1970    4.7621 H   0  0  0  0  0  0  0  0  0  0  0  0
  -11.7678  -18.8936    2.5536 H   0  0  0  0  0  0  0  0  0  0  0  0
  -12.3788  -20.6107    2.7937 H   0  0  0  0  0  0  0  0  0  0  0  0
  -13.8682  -18.0981    2.1491 H   0  0  0  0  0  0  0  0  0  0  0  0
  -15.0600  -20.3880    3.3350 H   0  0  0  0  0  0  0  0  0  0  0  0
  -12.5354  -18.7670    0.2733 H   0  0  0  0  0  0  0  0  0  0  0  0
  -12.9850  -20.2023   -0.7087 H   0  0  0  0  0  0  0  0  0  0  0  0
  -14.0394  -18.7481   -0.7087 H   0  0  0  0  0  0  0  0  0  0  0  0
  -15.3932  -21.2717    2.0130 H   0  0  0  0  0  0  0  0  0  0  0  0
  -16.2830  -22.4686    0.2810 H   0  0  0  0  0  0  0  0  0  0  0  0
  -13.2921  -20.1000    7.3999 H   0  0  0  0  0  0  0  0  0  0  0  0
  -14.4837  -19.4753    6.2907 H   0  0  0  0  0  0  0  0  0  0  0  0
  -14.0649  -22.4174    7.2024 H   0  0  0  0  0  0  0  0  0  0  0  0
  -15.7126  -21.5661    8.4210 H   0  0  0  0  0  0  0  0  0  0  0  0
  -16.3979  -20.6095    7.0638 H   0  0  0  0  0  0  0  0  0  0  0  0
  -16.5430  -22.3999    7.0638 H   0  0  0  0  0  0  0  0  0  0  0  0
  1  2  1  0
  2  3  2  0
  3  4  1  0
  4  5  1  0
  5  6  1  0
  6  7  1  0
  6  8  1  0
  8  9  2  0
  8 10  1  0
  3 11  1  0
 11 12  1  0
 13 12  1  6
 13 14  1  0
 14 15  1  0
 15 16  1  0
 16 17  1  0
 17 18  2  0
 18 19  1  0
 19 20  1  0
 20 21  1  0
 21 22  2  0
 22 23  1  0
 22 24  1  0
 24 25  1  0
 25 26  1  0
 26 27  1  0
 27 28  1  0
 28 29  1  0
 29 30  1  0
 29 31  1  0
 31 32  1  0
 31 33  2  0
 33 34  1  0
 26 35  1  0
 35 36  1  0
 36 37  1  0
 34  2  1  0
 10  4  1  0
 18 13  1  0
 36 24  1  0
 34 13  1  0
  1 38  1  0
  1 39  1  0
  1 40  1  0
  4 41  1  1
  5 42  1  0
  5 43  1  0
  6 44  1  6
  7 45  1  0
  7 46  1  0
  7 47  1  0
 11 48  1  0
 11 49  1  0
 12 50  1  0
 12 51  1  0
 14 52  1  0
 14 53  1  0
 15 54  1  0
 15 55  1  0
 16 56  1  0
 16 57  1  0
 17 58  1  0
 19 59  1  0
 19 60  1  0
 20 61  1  0
 20 62  1  0
 21 63  1  0
 23 64  1  0
 23 65  1  0
 23 66  1  0
 24 67  1  6
 26 68  1  1
 27 69  1  0
 27 70  1  0
 28 71  1  0
 28 72  1  0
 29 73  1  6
 30 74  1  0
 32 75  1  0
 32 76  1  0
 32 77  1  0
 33 78  1  0
 34 79  1  1
 35 80  1  0
 35 81  1  0
 36 82  1  1
 37 83  1  0
 37 84  1  0
 37 85  1  0
M  CHG  1  17   1
M  END
>  <meeko>  (5) 
{"is_sidechain": [false], "free_energy": -7.311, "intermolecular_energy": -10.528, "internal_energy": -1.375}

$$$$
2x00_ligand
     RDKit          3D

 85 89  0  0  0  0  0  0  0  0999 V2000
  -15.0380  -25.6200    0.4590 C   0  0  0  0  0  0  0  0  0  0  0  0
  -15.0670  -24.4170   -0.4690 C   0  0  0  0  0  0  0  0  0  0  0  0
  -15.0550  -24.5440   -1.8220 C   0  0  0  0  0  0  0  0  0  0  0  0
  -15.2760  -25.8520   -2.5920 C   0  0  2  0  0  0  0  0  0  0  0  0
  -16.2300  -25.7460   -3.7730 C   0  0  0  0  0  0  0  0  0  0  0  0
  -16.6540  -27.1880   -3.9710 C   0  0  2  0  0  0  0  0  0  0  0  0
  -18.0040  -27.3160   -4.6500 C   0  0  0  0  0  0  0  0  0  0  0  0
  -16.6640  -27.6740   -2.5490 C   0  0  0  0  0  0  0  0  0  0  0  0
  -17.2500  -28.6550   -2.1250 O   0  0  0  0  0  0  0  0  0  0  0  0
  -15.8880  -26.8570   -1.7780 O   0  0  0  0  0  0  0  0  0  0  0  0
  -14.7360  -23.3600   -2.7150 C   0  0  0  0  0  0  0  0  0  0  0  0
  -14.1920  -22.1380   -1.9750 C   0  0  0  0  0  0  0  0  0  0  0  0
  -14.9940  -21.7990   -0.6930 C   0  0  2  0  0  0  0  0  0  0  0  0
  -16.4680  -21.4370   -1.0750 C   0  0  0  0  0  0  0  0  0  0  0  0
  -16.5990  -20.0120   -1.5920 C   0  0  0  0  0  0  0  0  0  0  0  0
  -16.1880  -19.0630   -0.4860 C   0  0  0  0  0  0  0  0  0  0  0  0
  -14.8510  -19.4450    0.0060 N   0  0  0  0  0  0  0  0  0  0  0  0
  -14.2680  -20.5960   -0.0350 C   0  0  0  0  0  0  0  0  0  0  0  0
  -12.8050  -20.6420    0.4190 C   0  0  0  0  0  0  0  0  0  0  0  0
  -12.3930  -19.7410    1.5950 C   0  0  0  0  0  0  0  0  0  0  0  0
  -12.7780  -20.3610    2.9020 C   0  0  0  0  0  0  0  0  0  0  0  0
  -12.6080  -19.8740    4.1500 C   0  0  0  0  0  0  0  0  0  0  0  0
  -11.8490  -18.6240    4.5060 C   0  0  0  0  0  0  0  0  0  0  0  0
  -13.3110  -20.5730    5.2990 C   0  0  2  0  0  0  0  0  0  0  0  0
  -14.7070  -20.6420    4.9370 O   0  0  0  0  0  0  0  0  0  0  0  0
  -15.4780  -20.6580    6.1550 C   0  0  1  0  0  0  0  0  0  0  0  0
  -16.4720  -21.8290    6.2300 C   0  0  0  0  0  0  0  0  0  0  0  0
  -16.1680  -22.9980    5.2870 C   0  0  0  0  0  0  0  0  0  0  0  0
  -16.7000  -22.8330    3.8280 C   0  0  2  0  0  0  0  0  0  0  0  0
  -17.8110  -23.6880    3.5740 O   0  0  0  0  0  0  0  0  0  0  0  0
  -15.6000  -23.0920    2.8000 C   0  0  0  0  0  0  0  0  0  0  0  0
  -14.3240  -23.6160    3.4110 C   0  0  0  0  0  0  0  0  0  0  0  0
  -15.8160  -22.8930    1.4780 C   0  0  0  0  0  0  0  0  0  0  0  0
  -14.9410  -23.0670    0.2430 C   0  0  1  0  0  0  0  0  0  0  0  0
  -14.4860  -20.6210    7.3160 C   0  0  0  0  0  0  0  0  0  0  0  0
  -13.2890  -19.9320    6.6840 C   0  0  1  0  0  0  0  0  0  0  0  0
  -11.9880  -20.1410    7.4380 C   0  0  0  0  0  0  0  0  0  0  0  0
  -15.0463  -25.2771    1.5042 H   0  0  0  0  0  0  0  0  0  0  0  0
  -15.9213  -26.2485    0.2723 H   0  0  0  0  0  0  0  0  0  0  0  0
  -14.1255  -26.2052    0.2723 H   0  0  0  0  0  0  0  0  0  0  0  0
  -14.2561  -26.0984   -2.9223 H   0  0  0  0  0  0  0  0  0  0  0  0
  -17.0919  -25.1059   -3.5335 H   0  0  0  0  0  0  0  0  0  0  0  0
  -15.7780  -25.2914   -4.6669 H   0  0  0  0  0  0  0  0  0  0  0  0
  -15.9983  -27.7653   -4.6394 H   0  0  0  0  0  0  0  0  0  0  0  0
  -18.7927  -27.3908   -3.8868 H   0  0  0  0  0  0  0  0  0  0  0  0
  -18.1840  -26.4309   -5.2778 H   0  0  0  0  0  0  0  0  0  0  0  0
  -18.0145  -28.2192   -5.2778 H   0  0  0  0  0  0  0  0  0  0  0  0
  -13.9843  -23.6782   -3.4524 H   0  0  0  0  0  0  0  0  0  0  0  0
  -15.6855  -23.0503   -3.1760 H   0  0  0  0  0  0  0  0  0  0  0  0
  -13.1473  -22.3356   -1.6928 H   0  0  0  0  0  0  0  0  0  0  0  0
  -14.2784  -21.2770   -2.6541 H   0  0  0  0  0  0  0  0  0  0  0  0
  -16.8106  -22.1298   -1.8577 H   0  0  0  0  0  0  0  0  0  0  0  0
  -17.0811  -21.5220   -0.1656 H   0  0  0  0  0  0  0  0  0  0  0  0
  -15.9440  -19.8716   -2.4645 H   0  0  0  0  0  0  0  0  0  0  0  0
  -17.6379  -19.8134   -1.8940 H   0  0  0  0  0  0  0  0  0  0  0  0
  -16.1572  -18.0347   -0.8755 H   0  0  0  0  0  0  0  0  0  0  0  0
  -16.9152  -19.1168    0.3376 H   0  0  0  0  0  0  0  0  0  0  0  0
  -14.3660  -18.6730    0.4730 H   0  0  0  0  0  0  0  0  0  0  0  0
  -12.5828  -21.6801    0.7070 H   0  0  0  0  0  0  0  0  0  0  0  0
  -12.2352  -20.2567   -0.4394 H   0  0  0  0  0  0  0  0  0  0  0  0
  -11.3029  -19.5952    1.5726 H   0  0  0  0  0  0  0  0  0  0  0  0
  -12.9113  -18.7757    1.4972 H   0  0  0  0  0  0  0  0  0  0  0  0
  -13.2647  -21.3453    2.8371 H   0  0  0  0  0  0  0  0  0  0  0  0
  -11.7914  -18.5292    5.6004 H   0  0  0  0  0  0  0  0  0  0  0  0
  -10.8327  -18.6808    4.0889 H   0  0  0  0  0  0  0  0  0  0  0  0
  -12.3681  -17.7485    4.0889 H   0  0  0  0  0  0  0  0  0  0  0  0
  -12.7568  -21.5164    5.4128 H   0  0  0  0  0  0  0  0  0  0  0  0
  -16.1322  -19.7748    6.1989 H   0  0  0  0  0  0  0  0  0  0  0  0
  -16.4700  -22.2128    7.2609 H   0  0  0  0  0  0  0  0  0  0  0  0
  -17.4461  -21.4260    5.9159 H   0  0  0  0  0  0  0  0  0  0  0  0
  -15.0759  -23.1209    5.2389 H   0  0  0  0  0  0  0  0  0  0  0  0
  -16.6912  -23.8706    5.7051 H   0  0  0  0  0  0  0  0  0  0  0  0
  -17.0348  -21.7899    3.7290 H   0  0  0  0  0  0  0  0  0  0  0  0
  -17.4460  -24.4750    3.1320 H   0  0  0  0  0  0  0  0  0  0  0  0
  -14.4024  -23.5838    4.5077 H   0  0  0  0  0  0  0  0  0  0  0  0
  -14.1608  -24.6539    3.0854 H   0  0  0  0  0  0  0  0  0  0  0  0
  -13.4784  -22.9923    3.0854 H   0  0  0  0  0  0  0  0  0  0  0  0
  -16.8297  -22.5323    1.2493 H   0  0  0  0  0  0  0  0  0  0  0  0
  -13.9070  -23.1221    0.6143 H   0  0  0  0  0  0  0  0  0  0  0  0
  -14.8816  -20.0396    8.1618 H   0  0  0  0  0  0  0  0  0  0  0  0
  -14.2575  -21.6113    7.7369 H   0  0  0  0  0  0  0  0  0  0  0  0
  -13.3481  -18.8336    6.6782 H   0  0  0  0  0  0  0  0  0  0  0  0
  -12.1823  -20.1098    8.5202 H   0  0  0  0  0  0  0  0  0  0  0  0
  -11.5620  -21.1191    7.1700 H   0  0  0  0  0  0  0  0  0  0  0  0
  -11.2770  -19.3456    7.1700 H   0  0  0  0  0  0  0  0  0  0  0  0
  1  2  1  0
  2  3  2  0
  3  4  1  0
  4  5  1  0
  5  6  1  0
  6  7  1  0
  6  8  1  0
  8  9  2  0
  8 10  1  0
  3 11  1  0
 11 12  1  0
 13 12  1  6
 13 14  1  0
 14 15  1  0
 15 16  1  0
 16 17  1  0
 17 18  2  0
 18 19  1  0
 19 20  1  0
 20 21  1  0
 21 22  2  0
 22 23  1  0
 22 24  1  0
 24 25  1  0
 25 26  1  0
 26 27  1  0
 27 28  1  0
 28 29  1  0
 29 30  1  0
 29 31  1  0
 31 32  1  0
 31 33  2  0
 33 34  1  0
 26 35  1  0
 35 36  1  0
 36 37  1  0
 34  2  1  0
 10  4  1  0
 18 13  1  0
 36 24  1  0
 34 13  1  0
  1 38  1  0
  1 39  1  0
  1 40  1  0
  4 41  1  6
  5 42  1  0
  5 43  1  0
  6 44  1  6
  7 45  1  0
  7 46  1  0
  7 47  1  0
 11 48  1  0
 11 49  1  0
 12 50  1  0
 12 51  1  0
 14 52  1  0
 14 53  1  0
 15 54  1  0
 15 55  1  0
 16 56  1  0
 16 57  1  0
 17 58  1  0
 19 59  1  0
 19 60  1  0
 20 61  1  0
 20 62  1  0
 21 63  1  0
 23 64  1  0
 23 65  1  0
 23 66  1  0
 24 67  1  1
 26 68  1  6
 27 69  1  0
 27 70  1  0
 28 71  1  0
 28 72  1  0
 29 73  1  1
 30 74  1  0
 32 75  1  0
 32 76  1  0
 32 77  1  0
 33 78  1  0
 34 79  1  1
 35 80  1  0
 35 81  1  0
 36 82  1  6
 37 83  1  0
 37 84  1  0
 37 85  1  0
M  CHG  1  17   1
M  END
>  <meeko>  (6) 
{"is_sidechain": [false], "free_energy": -6.903, "intermolecular_energy": -11.097, "internal_energy": -0.173}

$$$$
2x00_ligand
     RDKit          3D

 85 89  0  0  0  0  0  0  0  0999 V2000
  -13.3410  -25.9440    4.4580 C   0  0  0  0  0  0  0  0  0  0  0  0
  -13.5550  -26.8340    3.2460 C   0  0  0  0  0  0  0  0  0  0  0  0
  -13.1630  -28.1350    3.2220 C   0  0  0  0  0  0  0  0  0  0  0  0
  -12.7150  -28.9480    4.4430 C   0  0  2  0  0  0  0  0  0  0  0  0
  -13.3350  -30.3330    4.5530 C   0  0  0  0  0  0  0  0  0  0  0  0
  -13.1580  -30.6470    6.0250 C   0  0  2  0  0  0  0  0  0  0  0  0
  -14.1730  -31.6500    6.5390 C   0  0  0  0  0  0  0  0  0  0  0  0
  -13.3300  -29.2800    6.6250 C   0  0  0  0  0  0  0  0  0  0  0  0
  -13.6110  -29.0290    7.7840 O   0  0  0  0  0  0  0  0  0  0  0  0
  -13.1020  -28.3280    5.6730 O   0  0  0  0  0  0  0  0  0  0  0  0
  -13.0650  -28.8990    1.9150 C   0  0  0  0  0  0  0  0  0  0  0  0
  -13.1840  -28.0280    0.6640 C   0  0  0  0  0  0  0  0  0  0  0  0
  -14.3460  -27.0060    0.7440 C   0  0  2  0  0  0  0  0  0  0  0  0
  -15.7100  -27.7680    0.8580 C   0  0  0  0  0  0  0  0  0  0  0  0
  -16.1960  -28.2880   -0.4870 C   0  0  0  0  0  0  0  0  0  0  0  0
  -16.4310  -27.1040   -1.4000 C   0  0  0  0  0  0  0  0  0  0  0  0
  -15.2130  -26.2740   -1.4380 N   0  0  0  0  0  0  0  0  0  0  0  0
  -14.2750  -26.1660   -0.5580 C   0  0  0  0  0  0  0  0  0  0  0  0
  -13.0500  -25.3360   -0.9570 C   0  0  0  0  0  0  0  0  0  0  0  0
  -13.2530  -24.2120   -1.9860 C   0  0  0  0  0  0  0  0  0  0  0  0
  -13.8010  -22.9820   -1.3310 C   0  0  0  0  0  0  0  0  0  0  0  0
  -14.6790  -22.0820   -1.8240 C   0  0  0  0  0  0  0  0  0  0  0  0
  -15.2060  -22.0570   -3.2340 C   0  0  0  0  0  0  0  0  0  0  0  0
  -15.2750  -21.0600   -0.8740 C   0  0  2  0  0  0  0  0  0  0  0  0
  -16.2580  -21.7650   -0.0870 O   0  0  0  0  0  0  0  0  0  0  0  0
  -17.2650  -20.8130    0.3140 C   0  0  1  0  0  0  0  0  0  0  0  0
  -17.5240  -20.8050    1.8310 C   0  0  0  0  0  0  0  0  0  0  0  0
  -16.4890  -21.5650    2.6680 C   0  0  0  0  0  0  0  0  0  0  0  0
  -16.6610  -23.1100    2.6730 C   0  0  2  0  0  0  0  0  0  0  0  0
  -17.2210  -23.5860    3.8940 O   0  0  0  0  0  0  0  0  0  0  0  0
  -15.3250  -23.8030    2.4100 C   0  0  0  0  0  0  0  0  0  0  0  0
  -14.1550  -22.8510    2.3820 C   0  0  0  0  0  0  0  0  0  0  0  0
  -15.2490  -25.1470    2.2660 C   0  0  0  0  0  0  0  0  0  0  0  0
  -14.0900  -26.1020    2.0110 C   0  0  1  0  0  0  0  0  0  0  0  0
  -16.8480  -19.4540   -0.2440 C   0  0  0  0  0  0  0  0  0  0  0  0
  -16.0110  -19.8530   -1.4480 C   0  0  1  0  0  0  0  0  0  0  0  0
  -15.0940  -18.7550   -1.9530 C   0  0  0  0  0  0  0  0  0  0  0  0
  -13.4828  -26.5338    5.3756 H   0  0  0  0  0  0  0  0  0  0  0  0
  -12.3193  -25.5368    4.4381 H   0  0  0  0  0  0  0  0  0  0  0  0
  -14.0659  -25.1168    4.4381 H   0  0  0  0  0  0  0  0  0  0  0  0
  -11.6272  -29.0075    4.2906 H   0  0  0  0  0  0  0  0  0  0  0  0
  -14.3988  -30.3171    4.2737 H   0  0  0  0  0  0  0  0  0  0  0  0
  -12.8762  -31.0765    3.8846 H   0  0  0  0  0  0  0  0  0  0  0  0
  -12.2017  -31.1308    6.2726 H   0  0  0  0  0  0  0  0  0  0  0  0
  -14.1684  -31.6454    7.6390 H   0  0  0  0  0  0  0  0  0  0  0  0
  -15.1747  -31.3771    6.1754 H   0  0  0  0  0  0  0  0  0  0  0  0
  -13.9121  -32.6548    6.1754 H   0  0  0  0  0  0  0  0  0  0  0  0
  -12.0912  -29.4098    1.8872 H   0  0  0  0  0  0  0  0  0  0  0  0
  -13.9156  -29.5962    1.8943 H   0  0  0  0  0  0  0  0  0  0  0  0
  -12.2415  -27.4769    0.5300 H   0  0  0  0  0  0  0  0  0  0  0  0
  -13.3933  -28.6974   -0.1834 H   0  0  0  0  0  0  0  0  0  0  0  0
  -15.5828  -28.6203    1.5416 H   0  0  0  0  0  0  0  0  0  0  0  0
  -16.4610  -27.0584    1.2354 H   0  0  0  0  0  0  0  0  0  0  0  0
  -15.4355  -28.9505   -0.9260 H   0  0  0  0  0  0  0  0  0  0  0  0
  -17.1286  -28.8568   -0.3578 H   0  0  0  0  0  0  0  0  0  0  0  0
  -16.6648  -27.4614   -2.4137 H   0  0  0  0  0  0  0  0  0  0  0  0
  -17.2743  -26.5070   -1.0226 H   0  0  0  0  0  0  0  0  0  0  0  0
  -15.1600  -25.6860   -2.2760 H   0  0  0  0  0  0  0  0  0  0  0  0
  -12.6530  -24.8748   -0.0407 H   0  0  0  0  0  0  0  0  0  0  0  0
  -12.3795  -26.0516   -1.4554 H   0  0  0  0  0  0  0  0  0  0  0  0
  -12.2863  -23.9716   -2.4525 H   0  0  0  0  0  0  0  0  0  0  0  0
  -13.9706  -24.5556   -2.7456 H   0  0  0  0  0  0  0  0  0  0  0  0
  -13.4398  -22.7849   -0.3109 H   0  0  0  0  0  0  0  0  0  0  0  0
  -16.3046  -22.0049   -3.2140 H   0  0  0  0  0  0  0  0  0  0  0  0
  -14.8067  -21.1768   -3.7591 H   0  0  0  0  0  0  0  0  0  0  0  0
  -14.8918  -22.9711   -3.7591 H   0  0  0  0  0  0  0  0  0  0  0  0
  -14.4008  -20.6392   -0.3557 H   0  0  0  0  0  0  0  0  0  0  0  0
  -18.2420  -21.0992   -0.1026 H   0  0  0  0  0  0  0  0  0  0  0  0
  -17.5353  -19.7586    2.1699 H   0  0  0  0  0  0  0  0  0  0  0  0
  -18.4826  -21.3230    1.9823 H   0  0  0  0  0  0  0  0  0  0  0  0
  -15.4902  -21.3333    2.2697 H   0  0  0  0  0  0  0  0  0  0  0  0
  -16.6293  -21.2348    3.7078 H   0  0  0  0  0  0  0  0  0  0  0  0
  -17.3644  -23.3550    1.8636 H   0  0  0  0  0  0  0  0  0  0  0  0
  -18.0350  -24.0620    3.6460 H   0  0  0  0  0  0  0  0  0  0  0  0
  -13.8557  -22.6075    3.4121 H   0  0  0  0  0  0  0  0  0  0  0  0
  -13.3112  -23.3224    1.8567 H   0  0  0  0  0  0  0  0  0  0  0  0
  -14.4450  -21.9290    1.8567 H   0  0  0  0  0  0  0  0  0  0  0  0
  -16.2224  -25.6523    2.3503 H   0  0  0  0  0  0  0  0  0  0  0  0
  -13.2294  -25.4663    1.7557 H   0  0  0  0  0  0  0  0  0  0  0  0
  -17.7232  -18.8593   -0.5445 H   0  0  0  0  0  0  0  0  0  0  0  0
  -16.3127  -18.8217    0.4796 H   0  0  0  0  0  0  0  0  0  0  0  0
  -16.5938  -20.0653   -2.3565 H   0  0  0  0  0  0  0  0  0  0  0  0
  -14.6511  -18.2247   -1.0971 H   0  0  0  0  0  0  0  0  0  0  0  0
  -14.2937  -19.1978   -2.5640 H   0  0  0  0  0  0  0  0  0  0  0  0
  -15.6724  -18.0464   -2.5640 H   0  0  0  0  0  0  0  0  0  0  0  0
  1  2  1  0
  2  3  2  0
  3  4  1  0
  4  5  1  0
  5  6  1  0
  6  7  1  0
  6  8  1  0
  8  9  2  0
  8 10  1  0
  3 11  1  0
 11 12  1  0
 13 12  1  6
 13 14  1  0
 14 15  1  0
 15 16  1  0
 16 17  1  0
 17 18  2  0
 18 19  1  0
 19 20  1  0
 20 21  1  0
 21 22  2  0
 22 23  1  0
 22 24  1  0
 24 25  1  0
 25 26  1  0
 26 27  1  0
 27 28  1  0
 28 29  1  0
 29 30  1  0
 29 31  1  0
 31 32  1  0
 31 33  2  0
 33 34  1  0
 26 35  1  0
 35 36  1  0
 36 37  1  0
 34  2  1  0
 10  4  1  0
 18 13  1  0
 36 24  1  0
 34 13  1  0
  1 38  1  0
  1 39  1  0
  1 40  1  0
  4 41  1  1
  5 42  1  0
  5 43  1  0
  6 44  1  6
  7 45  1  0
  7 46  1  0
  7 47  1  0
 11 48  1  0
 11 49  1  0
 12 50  1  0
 12 51  1  0
 14 52  1  0
 14 53  1  0
 15 54  1  0
 15 55  1  0
 16 56  1  0
 16 57  1  0
 17 58  1  0
 19 59  1  0
 19 60  1  0
 20 61  1  0
 20 62  1  0
 21 63  1  0
 23 64  1  0
 23 65  1  0
 23 66  1  0
 24 67  1  1
 26 68  1  6
 27 69  1  0
 27 70  1  0
 28 71  1  0
 28 72  1  0
 29 73  1  6
 30 74  1  0
 32 75  1  0
 32 76  1  0
 32 77  1  0
 33 78  1  0
 34 79  1  6
 35 80  1  0
 35 81  1  0
 36 82  1  6
 37 83  1  0
 37 84  1  0
 37 85  1  0
M  CHG  1  17   1
M  END
>  <meeko>  (7) 
{"is_sidechain": [false], "free_energy": -6.424, "intermolecular_energy": -10.292, "internal_energy": -0.232}

$$$$
2x00_ligand
     RDKit          3D

 85 89  0  0  0  0  0  0  0  0999 V2000
  -14.6770  -20.0940    5.8050 C   0  0  0  0  0  0  0  0  0  0  0  0
  -14.8310  -21.5660    5.4630 C   0  0  0  0  0  0  0  0  0  0  0  0
  -14.8810  -22.5320    6.4180 C   0  0  0  0  0  0  0  0  0  0  0  0
  -15.0550  -22.2840    7.9210 C   0  0  2  0  0  0  0  0  0  0  0  0
  -14.5870  -23.4230    8.8160 C   0  0  0  0  0  0  0  0  0  0  0  0
  -15.3430  -23.1500   10.1010 C   0  0  2  0  0  0  0  0  0  0  0  0
  -15.5460  -24.3980   10.9400 C   0  0  0  0  0  0  0  0  0  0  0  0
  -16.6290  -22.5940    9.5570 C   0  0  0  0  0  0  0  0  0  0  0  0
  -17.6950  -22.5300   10.1450 O   0  0  0  0  0  0  0  0  0  0  0  0
  -16.4320  -22.1390    8.2850 O   0  0  0  0  0  0  0  0  0  0  0  0
  -14.6850  -23.9940    6.0620 C   0  0  0  0  0  0  0  0  0  0  0  0
  -14.1840  -24.2360    4.6380 C   0  0  0  0  0  0  0  0  0  0  0  0
  -14.9400  -23.3960    3.5770 C   0  0  2  0  0  0  0  0  0  0  0  0
  -16.4520  -23.8000    3.5660 C   0  0  0  0  0  0  0  0  0  0  0  0
  -16.7020  -25.0870    2.7940 C   0  0  0  0  0  0  0  0  0  0  0  0
  -16.2970  -24.8640    1.3520 C   0  0  0  0  0  0  0  0  0  0  0  0
  -14.9150  -24.3510    1.3110 N   0  0  0  0  0  0  0  0  0  0  0  0
  -14.2610  -23.7040    2.2170 C   0  0  0  0  0  0  0  0  0  0  0  0
  -12.7770  -23.4430    1.9390 C   0  0  0  0  0  0  0  0  0  0  0  0
  -12.2800  -23.6110    0.4940 C   0  0  0  0  0  0  0  0  0  0  0  0
  -12.9130  -22.5970   -0.4090 C   0  0  0  0  0  0  0  0  0  0  0  0
  -13.7090  -22.8000   -1.4800 C   0  0  0  0  0  0  0  0  0  0  0  0
  -14.0290  -24.1380   -2.0910 C   0  0  0  0  0  0  0  0  0  0  0  0
  -14.4330  -21.6080   -2.0780 C   0  0  2  0  0  0  0  0  0  0  0  0
  -15.0980  -20.9470   -0.9810 O   0  0  0  0  0  0  0  0  0  0  0  0
  -16.2620  -20.2800   -1.5090 C   0  0  1  0  0  0  0  0  0  0  0  0
  -16.3310  -18.7890   -1.1350 C   0  0  0  0  0  0  0  0  0  0  0  0
  -15.7200  -18.4340    0.2250 C   0  0  0  0  0  0  0  0  0  0  0  0
  -16.3170  -19.1950    1.4410 C   0  0  2  0  0  0  0  0  0  0  0  0
  -17.0160  -18.3080    2.3100 O   0  0  0  0  0  0  0  0  0  0  0  0
  -15.2470  -19.9530    2.2250 C   0  0  0  0  0  0  0  0  0  0  0  0
  -13.8520  -19.4260    1.9930 C   0  0  0  0  0  0  0  0  0  0  0  0
  -15.5770  -20.9630    3.0640 C   0  0  0  0  0  0  0  0  0  0  0  0
  -14.7570  -21.8780    3.9650 C   0  0  1  0  0  0  0  0  0  0  0  0
  -16.2820  -20.5350   -3.0150 C   0  0  0  0  0  0  0  0  0  0  0  0
  -15.5210  -21.8450   -3.1210 C   0  0  1  0  0  0  0  0  0  0  0  0
  -14.9880  -22.1380   -4.5120 C   0  0  0  0  0  0  0  0  0  0  0  0
  -14.6641  -19.9709    6.8980 H   0  0  0  0  0  0  0  0  0  0  0  0
  -13.7344  -19.7160    5.3823 H   0  0  0  0  0  0  0  0  0  0  0  0
  -15.5209  -19.5291    5.3823 H   0  0  0  0  0  0  0  0  0  0  0  0
  -14.4495  -21.3788    8.0756 H   0  0  0  0  0  0  0  0  0  0  0  0
  -14.8596  -24.4010    8.3927 H   0  0  0  0  0  0  0  0  0  0  0  0
  -13.4954  -23.4636    8.9454 H   0  0  0  0  0  0  0  0  0  0  0  0
  -14.8218  -22.4780   10.7987 H   0  0  0  0  0  0  0  0  0  0  0  0
  -15.5030  -24.1336   12.0069 H   0  0  0  0  0  0  0  0  0  0  0  0
  -16.5276  -24.8384   10.7107 H   0  0  0  0  0  0  0  0  0  0  0  0
  -14.7546  -25.1267   10.7107 H   0  0  0  0  0  0  0  0  0  0  0  0
  -13.9529  -24.4233    6.7618 H   0  0  0  0  0  0  0  0  0  0  0  0
  -15.6746  -24.4692    6.1314 H   0  0  0  0  0  0  0  0  0  0  0  0
  -13.1159  -23.9768    4.5938 H   0  0  0  0  0  0  0  0  0  0  0  0
  -14.3603  -25.2962    4.4038 H   0  0  0  0  0  0  0  0  0  0  0  0
  -16.7881  -23.9396    4.6041 H   0  0  0  0  0  0  0  0  0  0  0  0
  -17.0110  -22.9949    3.0666 H   0  0  0  0  0  0  0  0  0  0  0  0
  -16.1033  -25.9022    3.2265 H   0  0  0  0  0  0  0  0  0  0  0  0
  -17.7657  -25.3617    2.8503 H   0  0  0  0  0  0  0  0  0  0  0  0
  -16.3529  -25.8154    0.8027 H   0  0  0  0  0  0  0  0  0  0  0  0
  -16.9761  -24.1351    0.8856 H   0  0  0  0  0  0  0  0  0  0  0  0
  -14.4570  -24.5170    0.4100 H   0  0  0  0  0  0  0  0  0  0  0  0
  -12.5634  -22.4072    2.2415 H   0  0  0  0  0  0  0  0  0  0  0  0
  -12.2468  -24.2213    2.5075 H   0  0  0  0  0  0  0  0  0  0  0  0
  -11.1878  -23.4819    0.4712 H   0  0  0  0  0  0  0  0  0  0  0  0
  -12.5549  -24.6162    0.1419 H   0  0  0  0  0  0  0  0  0  0  0  0
  -12.7004  -21.5453   -0.1666 H   0  0  0  0  0  0  0  0  0  0  0  0
  -14.2049  -24.8733   -1.2920 H   0  0  0  0  0  0  0  0  0  0  0  0
  -14.9315  -24.0503   -2.7137 H   0  0  0  0  0  0  0  0  0  0  0  0
  -13.1845  -24.4681   -2.7137 H   0  0  0  0  0  0  0  0  0  0  0  0
  -13.6425  -21.0602   -2.6119 H   0  0  0  0  0  0  0  0  0  0  0  0
  -17.1731  -20.6926   -1.0512 H   0  0  0  0  0  0  0  0  0  0  0  0
  -15.7969  -18.2179   -1.9087 H   0  0  0  0  0  0  0  0  0  0  0  0
  -17.3998  -18.5380   -1.0671 H   0  0  0  0  0  0  0  0  0  0  0  0
  -14.6432  -18.6545    0.1816 H   0  0  0  0  0  0  0  0  0  0  0  0
  -15.9461  -17.3704    0.3914 H   0  0  0  0  0  0  0  0  0  0  0  0
  -17.0265  -19.9308    1.0345 H   0  0  0  0  0  0  0  0  0  0  0  0
  -16.5340  -17.4620    2.2720 H   0  0  0  0  0  0  0  0  0  0  0  0
  -13.3639  -19.2416    2.9614 H   0  0  0  0  0  0  0  0  0  0  0  0
  -13.2702  -20.1663    1.4243 H   0  0  0  0  0  0  0  0  0  0  0  0
  -13.9050  -18.4859    1.4243 H   0  0  0  0  0  0  0  0  0  0  0  0
  -16.6578  -21.1641    3.1032 H   0  0  0  0  0  0  0  0  0  0  0  0
  -13.7037  -21.6410    3.7543 H   0  0  0  0  0  0  0  0  0  0  0  0
  -17.3110  -20.6386   -3.3896 H   0  0  0  0  0  0  0  0  0  0  0  0
  -15.8465  -19.7186   -3.6099 H   0  0  0  0  0  0  0  0  0  0  0  0
  -16.1331  -22.7417   -2.9440 H   0  0  0  0  0  0  0  0  0  0  0  0
  -14.0266  -22.6665   -4.4325 H   0  0  0  0  0  0  0  0  0  0  0  0
  -15.7083  -22.7670   -5.0557 H   0  0  0  0  0  0  0  0  0  0  0  0
  -14.8430  -21.1928   -5.0557 H   0  0  0  0  0  0  0  0  0  0  0  0
  1  2  1  0
  2  3  2  0
  3  4  1  0
  4  5  1  0
  5  6  1  0
  6  7  1  0
  6  8  1  0
  8  9  2  0
  8 10  1  0
  3 11  1  0
 11 12  1  0
 13 12  1  1
 13 14  1  0
 14 15  1  0
 15 16  1  0
 16 17  1  0
 17 18  2  0
 18 19  1  0
 19 20  1  0
 20 21  1  0
 21 22  2  0
 22 23  1  0
 22 24  1  0
 24 25  1  0
 25 26  1  0
 26 27  1  0
 27 28  1  0
 28 29  1  0
 29 30  1  0
 29 31  1  0
 31 32  1  0
 31 33  2  0
 33 34  1  0
 26 35  1  0
 35 36  1  0
 36 37  1  0
 34  2  1  0
 10  4  1  0
 18 13  1  0
 36 24  1  0
 34 13  1  0
  1 38  1  0
  1 39  1  0
  1 40  1  0
  4 41  1  1
  5 42  1  0
  5 43  1  0
  6 44  1  1
  7 45  1  0
  7 46  1  0
  7 47  1  0
 11 48  1  0
 11 49  1  0
 12 50  1  0
 12 51  1  0
 14 52  1  0
 14 53  1  0
 15 54  1  0
 15 55  1  0
 16 56  1  0
 16 57  1  0
 17 58  1  0
 19 59  1  0
 19 60  1  0
 20 61  1  0
 20 62  1  0
 21 63  1  0
 23 64  1  0
 23 65  1  0
 23 66  1  0
 24 67  1  6
 26 68  1  1
 27 69  1  0
 27 70  1  0
 28 71  1  0
 28 72  1  0
 29 73  1  6
 30 74  1  0
 32 75  1  0
 32 76  1  0
 32 77  1  0
 33 78  1  0
 34 79  1  6
 35 80  1  0
 35 81  1  0
 36 82  1  1
 37 83  1  0
 37 84  1  0
 37 85  1  0
M  CHG  1  17   1
M  END
>  <meeko>  (8) 
{"is_sidechain": [false], "free_energy": -6.225, "intermolecular_energy": -9.68, "internal_energy": -0.535}

$$$$
2x00_ligand
     RDKit          3D

 85 89  0  0  0  0  0  0  0  0999 V2000
  -16.2060  -27.9640   -2.3100 C   0  0  0  0  0  0  0  0  0  0  0  0
  -14.9720  -27.7320   -1.4550 C   0  0  0  0  0  0  0  0  0  0  0  0
  -14.0850  -28.7240   -1.1770 C   0  0  0  0  0  0  0  0  0  0  0  0
  -14.0420  -30.0930   -1.8650 C   0  0  2  0  0  0  0  0  0  0  0  0
  -12.7360  -30.8560   -1.6910 C   0  0  0  0  0  0  0  0  0  0  0  0
  -12.7780  -31.8300   -2.8520 C   0  0  2  0  0  0  0  0  0  0  0  0
  -11.3980  -32.2900   -3.2840 C   0  0  0  0  0  0  0  0  0  0  0  0
  -13.4700  -30.9950   -3.8930 C   0  0  0  0  0  0  0  0  0  0  0  0
  -13.4530  -31.1810   -5.0970 O   0  0  0  0  0  0  0  0  0  0  0  0
  -14.1580  -29.9830   -3.2880 O   0  0  0  0  0  0  0  0  0  0  0  0
  -13.0700  -28.5740   -0.0590 C   0  0  0  0  0  0  0  0  0  0  0  0
  -13.3060  -27.3690    0.8520 C   0  0  0  0  0  0  0  0  0  0  0  0
  -13.6210  -26.0690    0.0690 C   0  0  2  0  0  0  0  0  0  0  0  0
  -12.3970  -25.6850   -0.8290 C   0  0  0  0  0  0  0  0  0  0  0  0
  -11.2930  -24.9990   -0.0380 C   0  0  0  0  0  0  0  0  0  0  0  0
  -11.8430  -23.7060    0.5270 C   0  0  0  0  0  0  0  0  0  0  0  0
  -13.0810  -23.9950    1.2750 N   0  0  0  0  0  0  0  0  0  0  0  0
  -13.9040  -24.9790    1.1360 C   0  0  0  0  0  0  0  0  0  0  0  0
  -15.0240  -25.0910    2.1750 C   0  0  0  0  0  0  0  0  0  0  0  0
  -15.7520  -23.8000    2.5840 C   0  0  0  0  0  0  0  0  0  0  0  0
  -16.1770  -23.0230    1.3760 C   0  0  0  0  0  0  0  0  0  0  0  0
  -16.6640  -21.7650    1.3100 C   0  0  0  0  0  0  0  0  0  0  0  0
  -17.0190  -20.9010    2.4900 C   0  0  0  0  0  0  0  0  0  0  0  0
  -16.7820  -21.1090   -0.0530 C   0  0  2  0  0  0  0  0  0  0  0  0
  -15.6030  -21.4940   -0.7910 O   0  0  0  0  0  0  0  0  0  0  0  0
  -15.3210  -20.4510   -1.7460 C   0  0  1  0  0  0  0  0  0  0  0  0
  -15.1690  -20.9700   -3.1860 C   0  0  0  0  0  0  0  0  0  0  0  0
  -14.3940  -22.2860   -3.3220 C   0  0  0  0  0  0  0  0  0  0  0  0
  -15.2760  -23.5320   -3.6230 C   0  0  2  0  0  0  0  0  0  0  0  0
  -16.6250  -23.2910   -3.2340 O   0  0  0  0  0  0  0  0  0  0  0  0
  -14.7540  -24.7920   -2.9340 C   0  0  0  0  0  0  0  0  0  0  0  0
  -13.6680  -25.4920   -3.7130 C   0  0  0  0  0  0  0  0  0  0  0  0
  -15.2250  -25.1750   -1.7240 C   0  0  0  0  0  0  0  0  0  0  0  0
  -14.9040  -26.3470   -0.8050 C   0  0  1  0  0  0  0  0  0  0  0  0
  -16.4090  -19.3900   -1.5890 C   0  0  0  0  0  0  0  0  0  0  0  0
  -16.8310  -19.5860   -0.1430 C   0  0  1  0  0  0  0  0  0  0  0  0
  -18.1870  -18.9920    0.1900 C   0  0  0  0  0  0  0  0  0  0  0  0
  -17.0775  -28.1279   -1.6591 H   0  0  0  0  0  0  0  0  0  0  0  0
  -16.3830  -27.0834   -2.9450 H   0  0  0  0  0  0  0  0  0  0  0  0
  -16.0511  -28.8488   -2.9450 H   0  0  0  0  0  0  0  0  0  0  0  0
  -14.8800  -30.6178   -1.3830 H   0  0  0  0  0  0  0  0  0  0  0  0
  -11.8684  -30.1839   -1.7652 H   0  0  0  0  0  0  0  0  0  0  0  0
  -12.6358  -31.3425   -0.7095 H   0  0  0  0  0  0  0  0  0  0  0  0
  -13.2844  -32.7803   -2.6275 H   0  0  0  0  0  0  0  0  0  0  0  0
  -10.7844  -32.4945   -2.3942 H   0  0  0  0  0  0  0  0  0  0  0  0
  -11.4886  -33.2065   -3.8855 H   0  0  0  0  0  0  0  0  0  0  0  0
  -10.9206  -31.5024   -3.8855 H   0  0  0  0  0  0  0  0  0  0  0  0
  -13.1019  -29.4836    0.5588 H   0  0  0  0  0  0  0  0  0  0  0  0
  -12.0938  -28.4164   -0.5408 H   0  0  0  0  0  0  0  0  0  0  0  0
  -14.1542  -27.5924    1.5158 H   0  0  0  0  0  0  0  0  0  0  0  0
  -12.3773  -27.1963    1.4156 H   0  0  0  0  0  0  0  0  0  0  0  0
  -11.9903  -26.6007   -1.2830 H   0  0  0  0  0  0  0  0  0  0  0  0
  -12.7502  -24.9793   -1.5953 H   0  0  0  0  0  0  0  0  0  0  0  0
  -10.9630  -25.6526    0.7829 H   0  0  0  0  0  0  0  0  0  0  0  0
  -10.4331  -24.7905   -0.6916 H   0  0  0  0  0  0  0  0  0  0  0  0
  -11.1015  -23.2541    1.2022 H   0  0  0  0  0  0  0  0  0  0  0  0
  -12.0600  -23.0056   -0.2930 H   0  0  0  0  0  0  0  0  0  0  0  0
  -13.3050  -23.2710    1.9650 H   0  0  0  0  0  0  0  0  0  0  0  0
  -15.7798  -25.7801    1.7701 H   0  0  0  0  0  0  0  0  0  0  0  0
  -14.5191  -25.4277    3.0924 H   0  0  0  0  0  0  0  0  0  0  0  0
  -16.6414  -24.0599    3.1768 H   0  0  0  0  0  0  0  0  0  0  0  0
  -15.0638  -23.1802    3.1775 H   0  0  0  0  0  0  0  0  0  0  0  0
  -16.0794  -23.5471    0.4138 H   0  0  0  0  0  0  0  0  0  0  0  0
  -16.7965  -21.4426    3.4212 H   0  0  0  0  0  0  0  0  0  0  0  0
  -16.4293  -19.9731    2.4556 H   0  0  0  0  0  0  0  0  0  0  0  0
  -18.0908  -20.6558    2.4556 H   0  0  0  0  0  0  0  0  0  0  0  0
  -17.7602  -21.4476   -0.4250 H   0  0  0  0  0  0  0  0  0  0  0  0
  -14.3370  -20.0055   -1.5378 H   0  0  0  0  0  0  0  0  0  0  0  0
  -16.1759  -21.1224   -3.6019 H   0  0  0  0  0  0  0  0  0  0  0  0
  -14.5837  -20.2113   -3.7261 H   0  0  0  0  0  0  0  0  0  0  0  0
  -13.6689  -22.1735   -4.1415 H   0  0  0  0  0  0  0  0  0  0  0  0
  -13.9198  -22.4694   -2.3466 H   0  0  0  0  0  0  0  0  0  0  0  0
  -15.2304  -23.7040   -4.7085 H   0  0  0  0  0  0  0  0  0  0  0  0
  -16.9320  -22.5470   -3.7830 H   0  0  0  0  0  0  0  0  0  0  0  0
  -12.9540  -25.9522   -3.0142 H   0  0  0  0  0  0  0  0  0  0  0  0
  -14.1157  -26.2720   -4.3464 H   0  0  0  0  0  0  0  0  0  0  0  0
  -13.1425  -24.7622   -4.3464 H   0  0  0  0  0  0  0  0  0  0  0  0
  -15.9973  -24.5026   -1.3222 H   0  0  0  0  0  0  0  0  0  0  0  0
  -15.7417  -26.4087   -0.0948 H   0  0  0  0  0  0  0  0  0  0  0  0
  -16.0090  -18.3789   -1.7556 H   0  0  0  0  0  0  0  0  0  0  0  0
  -17.2337  -19.4888   -2.3101 H   0  0  0  0  0  0  0  0  0  0  0  0
  -16.1959  -19.0667    0.5898 H   0  0  0  0  0  0  0  0  0  0  0  0
  -18.3062  -18.9398    1.2823 H   0  0  0  0  0  0  0  0  0  0  0  0
  -18.2585  -17.9801   -0.2354 H   0  0  0  0  0  0  0  0  0  0  0  0
  -18.9793  -19.6255   -0.2354 H   0  0  0  0  0  0  0  0  0  0  0  0
  1  2  1  0
  2  3  2  0
  3  4  1  0
  4  5  1  0
  5  6  1  0
  6  7  1  0
  6  8  1  0
  8  9  2  0
  8 10  1  0
  3 11  1  0
 11 12  1  0
 13 12  1  1
 13 14  1  0
 14 15  1  0
 15 16  1  0
 16 17  1  0
 17 18  2  0
 18 19  1  0
 19 20  1  0
 20 21  1  0
 21 22  2  0
 22 23  1  0
 22 24  1  0
 24 25  1  0
 25 26  1  0
 26 27  1  0
 27 28  1  0
 28 29  1  0
 29 30  1  0
 29 31  1  0
 31 32  1  0
 31 33  2  0
 33 34  1  0
 26 35  1  0
 35 36  1  0
 36 37  1  0
 34  2  1  0
 10  4  1  0
 18 13  1  0
 36 24  1  0
 34 13  1  0
  1 38  1  0
  1 39  1  0
  1 40  1  0
  4 41  1  1
  5 42  1  0
  5 43  1  0
  6 44  1  1
  7 45  1  0
  7 46  1  0
  7 47  1  0
 11 48  1  0
 11 49  1  0
 12 50  1  0
 12 51  1  0
 14 52  1  0
 14 53  1  0
 15 54  1  0
 15 55  1  0
 16 56  1  0
 16 57  1  0
 17 58  1  0
 19 59  1  0
 19 60  1  0
 20 61  1  0
 20 62  1  0
 21 63  1  0
 23 64  1  0
 23 65  1  0
 23 66  1  0
 24 67  1  6
 26 68  1  1
 27 69  1  0
 27 70  1  0
 28 71  1  0
 28 72  1  0
 29 73  1  6
 30 74  1  0
 32 75  1  0
 32 76  1  0
 32 77  1  0
 33 78  1  0
 34 79  1  1
 35 80  1  0
 35 81  1  0
 36 82  1  1
 37 83  1  0
 37 84  1  0
 37 85  1  0
M  CHG  1  17   1
M  END
>  <meeko>  (9) 
{"is_sidechain": [false], "free_energy": -5.918, "intermolecular_energy": -8.829, "internal_energy": -0.908}

$$$$
