3tsk_ligand
     RDKit          3D

 71 73  0  0  0  0  0  0  0  0999 V2000
    7.6620   28.7890    2.5220 N   0  0  0  0  0  0  0  0  0  0  0  0
    8.2990   29.9500    2.8440 C   0  0  0  0  0  0  0  0  0  0  0  0
    8.9360   30.5850    2.0090 O   0  0  0  0  0  0  0  0  0  0  0  0
    8.0850   30.4100    4.2700 C   0  0  0  0  0  0  0  0  0  0  0  0
    7.2950   29.3820    5.0800 C   0  0  0  0  0  0  0  0  0  0  0  0
    8.1830   28.5330    5.9980 C   0  0  2  0  0  0  0  0  0  0  0  0
    7.9190   27.1100    5.7700 N   0  0  0  0  0  0  0  0  0  0  0  0
    8.7420   26.3600    4.9590 C   0  0  0  0  0  0  0  0  0  0  0  0
    9.5660   26.8460    4.1900 O   0  0  0  0  0  0  0  0  0  0  0  0
    8.5400   24.8670    5.1470 C   0  0  0  0  0  0  0  0  0  0  0  0
    7.5010   24.2700    4.2010 C   0  0  0  0  0  0  0  0  0  0  0  0
    6.2540   23.8080    4.9180 C   0  0  0  0  0  0  0  0  0  0  0  0
    5.0180   24.4130    4.6620 C   0  0  0  0  0  0  0  0  0  0  0  0
    3.8670   23.9950    5.3370 C   0  0  0  0  0  0  0  0  0  0  0  0
    3.9260   22.9650    6.2860 C   0  0  0  0  0  0  0  0  0  0  0  0
    2.7260   22.4970    6.9920 C   0  0  0  0  0  0  0  0  0  0  0  0
    1.4010   22.8160    6.7470 C   0  0  0  0  0  0  0  0  0  0  0  0
    0.4850   22.1600    7.6320 C   0  0  0  0  0  0  0  0  0  0  0  0
   -0.9700   22.2760    7.6370 C   0  0  0  0  0  0  0  0  0  0  0  0
   -1.7800   21.1730    7.9400 C   0  0  0  0  0  0  0  0  0  0  0  0
   -3.1720   21.2970    7.9480 C   0  0  0  0  0  0  0  0  0  0  0  0
   -3.7650   22.5240    7.6560 C   0  0  0  0  0  0  0  0  0  0  0  0
   -2.9680   23.6290    7.3580 C   0  0  0  0  0  0  0  0  0  0  0  0
   -1.5760   23.5060    7.3510 C   0  0  0  0  0  0  0  0  0  0  0  0
    1.1580   21.3400    8.5150 C   0  0  0  0  0  0  0  0  0  0  0  0
    2.8520   21.3790    8.2860 S   0  0  0  0  0  0  0  0  0  0  0  0
    5.1660   22.3620    6.5390 C   0  0  0  0  0  0  0  0  0  0  0  0
    6.3190   22.7820    5.8680 C   0  0  0  0  0  0  0  0  0  0  0  0
    7.8320   28.7880    7.4840 C   0  0  0  0  0  0  0  0  0  0  0  0
    6.7230   28.5050    7.9390 O   0  0  0  0  0  0  0  0  0  0  0  0
    8.8220   29.4130    8.2000 N   0  0  0  0  0  0  0  0  0  0  0  0
    8.6810   29.8870    9.5740 C   0  0  1  0  0  0  0  0  0  0  0  0
    9.2370   28.9120   10.6320 C   0  0  0  0  0  0  0  0  0  0  0  0
    8.2070   27.9050   11.1470 C   0  0  0  0  0  0  0  0  0  0  0  0
    8.7300   27.0570   12.3050 C   0  0  0  0  0  0  0  0  0  0  0  0
    9.2830   27.7170   13.2330 O   0  0  0  0  0  0  0  0  0  0  0  0
    8.5830   25.8100   12.1830 O   0  0  0  0  0  0  0  0  0  0  0  0
    9.2110   31.3290    9.7510 C   0  0  0  0  0  0  0  0  0  0  0  0
    8.5280   32.2900    9.0510 N   0  0  0  0  0  0  0  0  0  0  0  0
   10.2090   31.6440   10.3940 O   0  0  0  0  0  0  0  0  0  0  0  0
    7.5510   28.0740    3.2680 H   0  0  0  0  0  0  0  0  0  0  0  0
    7.9150   28.3800    1.6350 H   0  0  0  0  0  0  0  0  0  0  0  0
    9.0645   30.5636    4.7464 H   0  0  0  0  0  0  0  0  0  0  0  0
    7.5085   31.3465    4.2467 H   0  0  0  0  0  0  0  0  0  0  0  0
    6.5583   29.9146    5.6994 H   0  0  0  0  0  0  0  0  0  0  0  0
    6.8127   28.6993    4.3649 H   0  0  0  0  0  0  0  0  0  0  0  0
    9.2274   28.8009    5.7801 H   0  0  0  0  0  0  0  0  0  0  0  0
    7.5350   26.6370    6.5810 H   0  0  0  0  0  0  0  0  0  0  0  0
    9.5010   24.3608    4.9731 H   0  0  0  0  0  0  0  0  0  0  0  0
    8.1693   24.7168    6.1717 H   0  0  0  0  0  0  0  0  0  0  0  0
    7.2187   25.0339    3.4616 H   0  0  0  0  0  0  0  0  0  0  0  0
    7.9547   23.3887    3.7240 H   0  0  0  0  0  0  0  0  0  0  0  0
    4.9515   25.2249    3.9228 H   0  0  0  0  0  0  0  0  0  0  0  0
    2.9038   24.4802    5.1207 H   0  0  0  0  0  0  0  0  0  0  0  0
    1.0829   23.5054    5.9510 H   0  0  0  0  0  0  0  0  0  0  0  0
   -1.3168   20.2029    8.1731 H   0  0  0  0  0  0  0  0  0  0  0  0
   -3.8001   20.4256    8.1849 H   0  0  0  0  0  0  0  0  0  0  0  0
   -4.8607   22.6208    7.6606 H   0  0  0  0  0  0  0  0  0  0  0  0
   -3.4354   24.5979    7.1283 H   0  0  0  0  0  0  0  0  0  0  0  0
   -0.9517   24.3815    7.1192 H   0  0  0  0  0  0  0  0  0  0  0  0
    0.6594   20.7287    9.2816 H   0  0  0  0  0  0  0  0  0  0  0  0
    5.2331   21.5475    7.2752 H   0  0  0  0  0  0  0  0  0  0  0  0
    7.2841   22.3025    6.0884 H   0  0  0  0  0  0  0  0  0  0  0  0
    9.7480   29.4830    7.8000 H   0  0  0  0  0  0  0  0  0  0  0  0
    7.5981   29.9199    9.7643 H   0  0  0  0  0  0  0  0  0  0  0  0
   10.0729   28.3545   10.1843 H   0  0  0  0  0  0  0  0  0  0  0  0
    9.5492   29.5196   11.4942 H   0  0  0  0  0  0  0  0  0  0  0  0
    7.3185   28.4560   11.4891 H   0  0  0  0  0  0  0  0  0  0  0  0
    7.9716   27.2213   10.3180 H   0  0  0  0  0  0  0  0  0  0  0  0
    8.9420   33.2110    9.0370 H   0  0  0  0  0  0  0  0  0  0  0  0
    7.9310   32.0190    8.2780 H   0  0  0  0  0  0  0  0  0  0  0  0
  1  2  1  0
  2  3  2  0
  2  4  1  0
  4  5  1  0
  5  6  1  0
  6  7  1  0
  7  8  1  0
  8  9  2  0
  8 10  1  0
 10 11  1  0
 11 12  1  0
 12 13  2  0
 13 14  1  0
 14 15  2  0
 15 16  1  0
 16 17  2  0
 17 18  1  0
 18 19  1  0
 19 20  2  0
 20 21  1  0
 21 22  2  0
 22 23  1  0
 23 24  2  0
 18 25  2  0
 25 26  1  0
 15 27  1  0
 27 28  2  0
  6 29  1  0
 29 30  2  0
 29 31  1  0
 31 32  1  0
 32 33  1  0
 33 34  1  0
 34 35  1  0
 35 36  2  0
 35 37  1  0
 32 38  1  0
 38 39  1  0
 38 40  2  0
 28 12  1  0
 26 16  1  0
 24 19  1  0
  1 41  1  0
  1 42  1  0
  4 43  1  0
  4 44  1  0
  5 45  1  0
  5 46  1  0
  6 47  1  1
  7 48  1  0
 10 49  1  0
 10 50  1  0
 11 51  1  0
 11 52  1  0
 13 53  1  0
 14 54  1  0
 17 55  1  0
 20 56  1  0
 21 57  1  0
 22 58  1  0
 23 59  1  0
 24 60  1  0
 25 61  1  0
 27 62  1  0
 28 63  1  0
 31 64  1  0
 32 65  1  1
 33 66  1  0
 33 67  1  0
 34 68  1  0
 34 69  1  0
 39 70  1  0
 39 71  1  0
M  CHG  1  37  -1
M  END
>  <meeko>  (1) 
{"is_sidechain": [false], "free_energy": -9.538, "intermolecular_energy": -17.902, "internal_energy": -1.947}

$$$$
3tsk_ligand
     RDKit          3D

 71 73  0  0  0  0  0  0  0  0999 V2000
    9.0720   30.8980    2.5620 N   0  0  0  0  0  0  0  0  0  0  0  0
    9.5110   31.0550    3.8420 C   0  0  0  0  0  0  0  0  0  0  0  0
   10.7080   31.0460    4.1160 O   0  0  0  0  0  0  0  0  0  0  0  0
    8.4160   31.3140    4.8550 C   0  0  0  0  0  0  0  0  0  0  0  0
    7.4280   30.1500    4.9260 C   0  0  0  0  0  0  0  0  0  0  0  0
    8.0960   28.8200    5.2940 C   0  0  2  0  0  0  0  0  0  0  0  0
    7.7590   27.8010    4.2970 N   0  0  0  0  0  0  0  0  0  0  0  0
    8.6940   26.8750    3.8880 C   0  0  0  0  0  0  0  0  0  0  0  0
    9.8960   26.9790    4.1110 O   0  0  0  0  0  0  0  0  0  0  0  0
    8.0680   25.6970    3.1630 C   0  0  0  0  0  0  0  0  0  0  0  0
    8.2200   24.3730    3.9080 C   0  0  0  0  0  0  0  0  0  0  0  0
    6.9490   23.9440    4.6040 C   0  0  0  0  0  0  0  0  0  0  0  0
    5.7460   24.6210    4.3720 C   0  0  0  0  0  0  0  0  0  0  0  0
    4.5740   24.2330    5.0270 C   0  0  0  0  0  0  0  0  0  0  0  0
    4.5770   23.1620    5.9320 C   0  0  0  0  0  0  0  0  0  0  0  0
    3.3530   22.7260    6.6160 C   0  0  0  0  0  0  0  0  0  0  0  0
    2.0440   23.0920    6.3590 C   0  0  0  0  0  0  0  0  0  0  0  0
    1.0940   22.4560    7.2230 C   0  0  0  0  0  0  0  0  0  0  0  0
   -0.3560   22.6210    7.2120 C   0  0  0  0  0  0  0  0  0  0  0  0
   -0.9380   23.8670    6.9420 C   0  0  0  0  0  0  0  0  0  0  0  0
   -2.3280   24.0110    6.9270 C   0  0  0  0  0  0  0  0  0  0  0  0
   -3.1470   22.9120    7.1800 C   0  0  0  0  0  0  0  0  0  0  0  0
   -2.5780   21.6670    7.4460 C   0  0  0  0  0  0  0  0  0  0  0  0
   -1.1880   21.5210    7.4590 C   0  0  0  0  0  0  0  0  0  0  0  0
    1.7280   21.6010    8.1020 C   0  0  0  0  0  0  0  0  0  0  0  0
    3.4250   21.5860    7.8960 S   0  0  0  0  0  0  0  0  0  0  0  0
    5.7850   22.4870    6.1600 C   0  0  0  0  0  0  0  0  0  0  0  0
    6.9600   22.8770    5.5090 C   0  0  0  0  0  0  0  0  0  0  0  0
    7.5430   28.2860    6.6380 C   0  0  0  0  0  0  0  0  0  0  0  0
    6.8350   27.2790    6.6850 O   0  0  0  0  0  0  0  0  0  0  0  0
    7.8480   29.0670    7.7240 N   0  0  0  0  0  0  0  0  0  0  0  0
    7.3260   28.8540    9.0720 C   0  0  1  0  0  0  0  0  0  0  0  0
    8.4180   28.6240   10.1370 C   0  0  0  0  0  0  0  0  0  0  0  0
    7.9050   27.9630   11.4170 C   0  0  0  0  0  0  0  0  0  0  0  0
    8.9990   27.2290   12.1890 C   0  0  0  0  0  0  0  0  0  0  0  0
    8.8020   25.9870   12.3300 O   0  0  0  0  0  0  0  0  0  0  0  0
    9.9420   27.9480   12.6210 O   0  0  0  0  0  0  0  0  0  0  0  0
    6.3090   29.9440    9.4820 C   0  0  0  0  0  0  0  0  0  0  0  0
    5.0060   29.6830    9.1450 N   0  0  0  0  0  0  0  0  0  0  0  0
    6.5930   31.0200   10.0030 O   0  0  0  0  0  0  0  0  0  0  0  0
    8.1420   30.4570    2.4190 H   0  0  0  0  0  0  0  0  0  0  0  0
    9.7580   30.5680    1.8990 H   0  0  0  0  0  0  0  0  0  0  0  0
    8.8725   31.4556    5.8457 H   0  0  0  0  0  0  0  0  0  0  0  0
    7.8654   32.2140    4.5437 H   0  0  0  0  0  0  0  0  0  0  0  0
    6.6667   30.3820    5.6854 H   0  0  0  0  0  0  0  0  0  0  0  0
    6.9865   30.0312    3.9255 H   0  0  0  0  0  0  0  0  0  0  0  0
    9.1792   29.0032    5.3497 H   0  0  0  0  0  0  0  0  0  0  0  0
    6.8010   27.4720    4.3650 H   0  0  0  0  0  0  0  0  0  0  0  0
    6.9952   25.9004    3.0297 H   0  0  0  0  0  0  0  0  0  0  0  0
    8.5948   25.5906    2.2032 H   0  0  0  0  0  0  0  0  0  0  0  0
    8.5055   23.5940    3.1858 H   0  0  0  0  0  0  0  0  0  0  0  0
    8.9897   24.5142    4.6810 H   0  0  0  0  0  0  0  0  0  0  0  0
    5.7229   25.4658    3.6679 H   0  0  0  0  0  0  0  0  0  0  0  0
    3.6371   24.7748    4.8300 H   0  0  0  0  0  0  0  0  0  0  0  0
    1.7600   23.8021    5.5684 H   0  0  0  0  0  0  0  0  0  0  0  0
   -0.2964   24.7375    6.7405 H   0  0  0  0  0  0  0  0  0  0  0  0
   -2.7763   24.9929    6.7153 H   0  0  0  0  0  0  0  0  0  0  0  0
   -4.2410   23.0266    7.1699 H   0  0  0  0  0  0  0  0  0  0  0  0
   -3.2236   20.7991    7.6458 H   0  0  0  0  0  0  0  0  0  0  0  0
   -0.7442   20.5357    7.6646 H   0  0  0  0  0  0  0  0  0  0  0  0
    1.1991   20.9956    8.8528 H   0  0  0  0  0  0  0  0  0  0  0  0
    5.8088   21.6392    6.8604 H   0  0  0  0  0  0  0  0  0  0  0  0
    7.8993   22.3410    5.7100 H   0  0  0  0  0  0  0  0  0  0  0  0
    8.5460   29.7910    7.6290 H   0  0  0  0  0  0  0  0  0  0  0  0
    6.7742   27.9035    9.0273 H   0  0  0  0  0  0  0  0  0  0  0  0
    9.1959   27.9793    9.7020 H   0  0  0  0  0  0  0  0  0  0  0  0
    8.8014   29.6152   10.4208 H   0  0  0  0  0  0  0  0  0  0  0  0
    7.4792   28.7415   12.0672 H   0  0  0  0  0  0  0  0  0  0  0  0
    7.1523   27.2166   11.1231 H   0  0  0  0  0  0  0  0  0  0  0  0
    4.3500   30.4400    9.2720 H   0  0  0  0  0  0  0  0  0  0  0  0
    4.8000   28.9820    8.4420 H   0  0  0  0  0  0  0  0  0  0  0  0
  1  2  1  0
  2  3  2  0
  2  4  1  0
  4  5  1  0
  5  6  1  0
  6  7  1  0
  7  8  1  0
  8  9  2  0
  8 10  1  0
 10 11  1  0
 11 12  1  0
 12 13  2  0
 13 14  1  0
 14 15  2  0
 15 16  1  0
 16 17  2  0
 17 18  1  0
 18 19  1  0
 19 20  2  0
 20 21  1  0
 21 22  2  0
 22 23  1  0
 23 24  2  0
 18 25  2  0
 25 26  1  0
 15 27  1  0
 27 28  2  0
  6 29  1  0
 29 30  2  0
 29 31  1  0
 31 32  1  0
 32 33  1  0
 33 34  1  0
 34 35  1  0
 35 36  2  0
 35 37  1  0
 32 38  1  0
 38 39  1  0
 38 40  2  0
 28 12  1  0
 26 16  1  0
 24 19  1  0
  1 41  1  0
  1 42  1  0
  4 43  1  0
  4 44  1  0
  5 45  1  0
  5 46  1  0
  6 47  1  1
  7 48  1  0
 10 49  1  0
 10 50  1  0
 11 51  1  0
 11 52  1  0
 13 53  1  0
 14 54  1  0
 17 55  1  0
 20 56  1  0
 21 57  1  0
 22 58  1  0
 23 59  1  0
 24 60  1  0
 25 61  1  0
 27 62  1  0
 28 63  1  0
 31 64  1  0
 32 65  1  6
 33 66  1  0
 33 67  1  0
 34 68  1  0
 34 69  1  0
 39 70  1  0
 39 71  1  0
M  CHG  1  37  -1
M  END
>  <meeko>  (2) 
{"is_sidechain": [false], "free_energy": -9.359, "intermolecular_energy": -17.575, "internal_energy": -1.938}

$$$$
3tsk_ligand
     RDKit          3D

 71 73  0  0  0  0  0  0  0  0999 V2000
    8.8590   30.0190    5.8870 N   0  0  0  0  0  0  0  0  0  0  0  0
    8.0730   30.6640    4.9800 C   0  0  0  0  0  0  0  0  0  0  0  0
    7.0450   31.2430    5.3180 O   0  0  0  0  0  0  0  0  0  0  0  0
    8.6160   30.6650    3.5660 C   0  0  0  0  0  0  0  0  0  0  0  0
    9.2490   29.3220    3.2050 C   0  0  0  0  0  0  0  0  0  0  0  0
    8.2150   28.2070    3.0040 C   0  0  2  0  0  0  0  0  0  0  0  0
    8.6700   26.9800    3.6610 N   0  0  0  0  0  0  0  0  0  0  0  0
    8.1050   26.5610    4.8460 C   0  0  0  0  0  0  0  0  0  0  0  0
    7.3990   27.2740    5.5520 O   0  0  0  0  0  0  0  0  0  0  0  0
    8.4280   25.1120    5.1640 C   0  0  0  0  0  0  0  0  0  0  0  0
    7.6220   24.1140    4.3350 C   0  0  0  0  0  0  0  0  0  0  0  0
    6.3470   23.6790    5.0210 C   0  0  0  0  0  0  0  0  0  0  0  0
    5.1380   24.3340    4.7590 C   0  0  0  0  0  0  0  0  0  0  0  0
    3.9620   23.9400    5.4050 C   0  0  0  0  0  0  0  0  0  0  0  0
    3.9680   22.8860    6.3290 C   0  0  0  0  0  0  0  0  0  0  0  0
    2.7410   22.4440    7.0050 C   0  0  0  0  0  0  0  0  0  0  0  0
    1.4290   22.7670    6.7070 C   0  0  0  0  0  0  0  0  0  0  0  0
    0.4770   22.1390    7.5750 C   0  0  0  0  0  0  0  0  0  0  0  0
   -0.9760   22.2660    7.5280 C   0  0  0  0  0  0  0  0  0  0  0  0
   -1.5830   23.4620    7.1200 C   0  0  0  0  0  0  0  0  0  0  0  0
   -2.9750   23.5700    7.0720 C   0  0  0  0  0  0  0  0  0  0  0  0
   -3.7720   22.4840    7.4290 C   0  0  0  0  0  0  0  0  0  0  0  0
   -3.1790   21.2890    7.8330 C   0  0  0  0  0  0  0  0  0  0  0  0
   -1.7860   21.1790    7.8800 C   0  0  0  0  0  0  0  0  0  0  0  0
    1.1130   21.3350    8.4990 C   0  0  0  0  0  0  0  0  0  0  0  0
    2.8140   21.3550    8.3280 S   0  0  0  0  0  0  0  0  0  0  0  0
    5.1820   22.2340    6.5880 C   0  0  0  0  0  0  0  0  0  0  0  0
    6.3610   22.6290    5.9460 C   0  0  0  0  0  0  0  0  0  0  0  0
    8.0820   27.8510    1.5030 C   0  0  0  0  0  0  0  0  0  0  0  0
    7.1910   28.3370    0.8050 O   0  0  0  0  0  0  0  0  0  0  0  0
    8.9790   26.9090    1.0640 N   0  0  0  0  0  0  0  0  0  0  0  0
    8.9650   26.3060   -0.2660 C   0  0  1  0  0  0  0  0  0  0  0  0
   10.0990   26.7990   -1.1880 C   0  0  0  0  0  0  0  0  0  0  0  0
   11.5020   26.4780   -0.6700 C   0  0  0  0  0  0  0  0  0  0  0  0
   12.6080   27.0900   -1.5260 C   0  0  0  0  0  0  0  0  0  0  0  0
   13.3850   26.2480   -2.0630 O   0  0  0  0  0  0  0  0  0  0  0  0
   12.6370   28.3510   -1.5660 O   0  0  0  0  0  0  0  0  0  0  0  0
    8.8690   24.7640   -0.2050 C   0  0  0  0  0  0  0  0  0  0  0  0
    8.8540   24.2300    1.0580 N   0  0  0  0  0  0  0  0  0  0  0  0
    8.8780   24.0130   -1.1780 O   0  0  0  0  0  0  0  0  0  0  0  0
    9.4050   29.1980    5.5590 H   0  0  0  0  0  0  0  0  0  0  0  0
    8.4480   29.8670    6.7960 H   0  0  0  0  0  0  0  0  0  0  0  0
    7.7916   30.8703    2.8673 H   0  0  0  0  0  0  0  0  0  0  0  0
    9.3926   31.4409    3.4965 H   0  0  0  0  0  0  0  0  0  0  0  0
    9.8199   29.4429    2.2726 H   0  0  0  0  0  0  0  0  0  0  0  0
    9.8936   29.0254    4.0456 H   0  0  0  0  0  0  0  0  0  0  0  0
    7.2618   28.5685    3.4172 H   0  0  0  0  0  0  0  0  0  0  0  0
    8.9390   26.2500    3.0090 H   0  0  0  0  0  0  0  0  0  0  0  0
    9.4975   24.9427    4.9702 H   0  0  0  0  0  0  0  0  0  0  0  0
    8.1646   24.9449    6.2189 H   0  0  0  0  0  0  0  0  0  0  0  0
    7.3622   24.5833    3.3747 H   0  0  0  0  0  0  0  0  0  0  0  0
    8.2456   23.2187    4.1954 H   0  0  0  0  0  0  0  0  0  0  0  0
    5.1128   25.1654    4.0391 H   0  0  0  0  0  0  0  0  0  0  0  0
    3.0201   24.4640    5.1852 H   0  0  0  0  0  0  0  0  0  0  0  0
    1.1445   23.4398    5.8846 H   0  0  0  0  0  0  0  0  0  0  0  0
   -0.9586   24.3218    6.8355 H   0  0  0  0  0  0  0  0  0  0  0  0
   -3.4423   24.5130    6.7522 H   0  0  0  0  0  0  0  0  0  0  0  0
   -4.8680   22.5698    7.3920 H   0  0  0  0  0  0  0  0  0  0  0  0
   -3.8077   20.4316    8.1151 H   0  0  0  0  0  0  0  0  0  0  0  0
   -1.3231   20.2324    8.1956 H   0  0  0  0  0  0  0  0  0  0  0  0
    0.5834   20.7457    9.2621 H   0  0  0  0  0  0  0  0  0  0  0  0
    5.2080   21.4007    7.3056 H   0  0  0  0  0  0  0  0  0  0  0  0
    7.3050   22.1107    6.1699 H   0  0  0  0  0  0  0  0  0  0  0  0
    9.7640   26.6660    1.6530 H   0  0  0  0  0  0  0  0  0  0  0  0
    8.0409   26.6644   -0.7430 H   0  0  0  0  0  0  0  0  0  0  0  0
    9.9762   26.3241   -2.1726 H   0  0  0  0  0  0  0  0  0  0  0  0
   10.0188   27.8951   -1.2351 H   0  0  0  0  0  0  0  0  0  0  0  0
   11.5952   26.8678    0.3544 H   0  0  0  0  0  0  0  0  0  0  0  0
   11.6243   25.3854   -0.7061 H   0  0  0  0  0  0  0  0  0  0  0  0
    8.9370   23.2260    1.1200 H   0  0  0  0  0  0  0  0  0  0  0  0
    9.1720   24.7880    1.8420 H   0  0  0  0  0  0  0  0  0  0  0  0
  1  2  1  0
  2  3  2  0
  2  4  1  0
  4  5  1  0
  5  6  1  0
  6  7  1  0
  7  8  1  0
  8  9  2  0
  8 10  1  0
 10 11  1  0
 11 12  1  0
 12 13  2  0
 13 14  1  0
 14 15  2  0
 15 16  1  0
 16 17  2  0
 17 18  1  0
 18 19  1  0
 19 20  2  0
 20 21  1  0
 21 22  2  0
 22 23  1  0
 23 24  2  0
 18 25  2  0
 25 26  1  0
 15 27  1  0
 27 28  2  0
  6 29  1  0
 29 30  2  0
 29 31  1  0
 31 32  1  0
 32 33  1  0
 33 34  1  0
 34 35  1  0
 35 36  2  0
 35 37  1  0
 32 38  1  0
 38 39  1  0
 38 40  2  0
 28 12  1  0
 26 16  1  0
 24 19  1  0
  1 41  1  0
  1 42  1  0
  4 43  1  0
  4 44  1  0
  5 45  1  0
  5 46  1  0
  6 47  1  1
  7 48  1  0
 10 49  1  0
 10 50  1  0
 11 51  1  0
 11 52  1  0
 13 53  1  0
 14 54  1  0
 17 55  1  0
 20 56  1  0
 21 57  1  0
 22 58  1  0
 23 59  1  0
 24 60  1  0
 25 61  1  0
 27 62  1  0
 28 63  1  0
 31 64  1  0
 32 65  1  6
 33 66  1  0
 33 67  1  0
 34 68  1  0
 34 69  1  0
 39 70  1  0
 39 71  1  0
M  CHG  1  37  -1
M  END
>  <meeko>  (3) 
{"is_sidechain": [false], "free_energy": -9.14, "intermolecular_energy": -16.99, "internal_energy": -2.111}

$$$$
3tsk_ligand
     RDKit          3D

 71 73  0  0  0  0  0  0  0  0999 V2000
    8.8560   24.5710   -1.4810 N   0  0  0  0  0  0  0  0  0  0  0  0
    8.6480   25.1860   -0.2830 C   0  0  0  0  0  0  0  0  0  0  0  0
    8.2360   24.5670    0.6940 O   0  0  0  0  0  0  0  0  0  0  0  0
    9.0400   26.6480   -0.2510 C   0  0  0  0  0  0  0  0  0  0  0  0
    8.0610   27.4750    0.5820 C   0  0  0  0  0  0  0  0  0  0  0  0
    8.5560   27.7280    2.0110 C   0  0  2  0  0  0  0  0  0  0  0  0
    8.0160   26.7090    2.9140 N   0  0  0  0  0  0  0  0  0  0  0  0
    8.7770   26.2010    3.9440 C   0  0  0  0  0  0  0  0  0  0  0  0
    9.9910   26.3530    4.0300 O   0  0  0  0  0  0  0  0  0  0  0  0
    7.9420   25.4630    4.9750 C   0  0  0  0  0  0  0  0  0  0  0  0
    7.5230   24.0640    4.5290 C   0  0  0  0  0  0  0  0  0  0  0  0
    6.2250   23.6140    5.1610 C   0  0  0  0  0  0  0  0  0  0  0  0
    5.0180   24.2420    4.8340 C   0  0  0  0  0  0  0  0  0  0  0  0
    3.8200   23.8340    5.4290 C   0  0  0  0  0  0  0  0  0  0  0  0
    3.8030   22.7930    6.3680 C   0  0  0  0  0  0  0  0  0  0  0  0
    2.5540   22.3360    6.9910 C   0  0  0  0  0  0  0  0  0  0  0  0
    1.2830   22.8720    6.8690 C   0  0  0  0  0  0  0  0  0  0  0  0
    0.2900   22.1560    7.6150 C   0  0  0  0  0  0  0  0  0  0  0  0
   -1.1360   22.4560    7.6950 C   0  0  0  0  0  0  0  0  0  0  0  0
   -1.6160   23.7520    7.4600 C   0  0  0  0  0  0  0  0  0  0  0  0
   -2.9840   24.0250    7.5340 C   0  0  0  0  0  0  0  0  0  0  0  0
   -3.8840   23.0060    7.8410 C   0  0  0  0  0  0  0  0  0  0  0  0
   -3.4180   21.7130    8.0740 C   0  0  0  0  0  0  0  0  0  0  0  0
   -2.0500   21.4380    7.9990 C   0  0  0  0  0  0  0  0  0  0  0  0
    0.8500   21.0760    8.2660 C   0  0  0  0  0  0  0  0  0  0  0  0
    2.5330   20.9450    7.9940 S   0  0  0  0  0  0  0  0  0  0  0  0
    5.0150   22.1670    6.6920 C   0  0  0  0  0  0  0  0  0  0  0  0
    6.2140   22.5770    6.1000 C   0  0  0  0  0  0  0  0  0  0  0  0
    8.0200   29.0800    2.5430 C   0  0  0  0  0  0  0  0  0  0  0  0
    7.3200   29.8130    1.8420 O   0  0  0  0  0  0  0  0  0  0  0  0
    8.4560   29.4050    3.8030 N   0  0  0  0  0  0  0  0  0  0  0  0
    8.2070   30.6840    4.4630 C   0  0  1  0  0  0  0  0  0  0  0  0
    7.8730   30.5590    5.9640 C   0  0  0  0  0  0  0  0  0  0  0  0
    7.0370   29.3260    6.3110 C   0  0  0  0  0  0  0  0  0  0  0  0
    6.9730   29.0520    7.8120 C   0  0  0  0  0  0  0  0  0  0  0  0
    8.0790   28.7310    8.3360 O   0  0  0  0  0  0  0  0  0  0  0  0
    5.8300   29.1440    8.3380 O   0  0  0  0  0  0  0  0  0  0  0  0
    9.3270   31.7120    4.1820 C   0  0  0  0  0  0  0  0  0  0  0  0
    9.3140   32.2600    2.9250 N   0  0  0  0  0  0  0  0  0  0  0  0
   10.2350   32.0030    4.9580 O   0  0  0  0  0  0  0  0  0  0  0  0
    8.7440   25.1390   -2.3440 H   0  0  0  0  0  0  0  0  0  0  0  0
    8.4590   23.6480   -1.5760 H   0  0  0  0  0  0  0  0  0  0  0  0
   10.0455   26.7385    0.1859 H   0  0  0  0  0  0  0  0  0  0  0  0
    9.0236   27.0312   -1.2820 H   0  0  0  0  0  0  0  0  0  0  0  0
    7.9111   28.4453    0.0859 H   0  0  0  0  0  0  0  0  0  0  0  0
    7.1247   26.9022    0.6545 H   0  0  0  0  0  0  0  0  0  0  0  0
    9.6555   27.7149    1.9813 H   0  0  0  0  0  0  0  0  0  0  0  0
    7.0240   26.8220    3.1010 H   0  0  0  0  0  0  0  0  0  0  0  0
    8.5306   25.3722    5.8998 H   0  0  0  0  0  0  0  0  0  0  0  0
    7.0207   26.0455    5.1232 H   0  0  0  0  0  0  0  0  0  0  0  0
    7.4003   24.0652    3.4359 H   0  0  0  0  0  0  0  0  0  0  0  0
    8.3087   23.3640    4.8495 H   0  0  0  0  0  0  0  0  0  0  0  0
    5.0115   25.0636    4.1027 H   0  0  0  0  0  0  0  0  0  0  0  0
    2.8797   24.3359    5.1570 H   0  0  0  0  0  0  0  0  0  0  0  0
    1.0575   23.7597    6.2597 H   0  0  0  0  0  0  0  0  0  0  0  0
   -0.9104   24.5597    7.2156 H   0  0  0  0  0  0  0  0  0  0  0  0
   -3.3513   25.0454    7.3498 H   0  0  0  0  0  0  0  0  0  0  0  0
   -4.9610   23.2219    7.8994 H   0  0  0  0  0  0  0  0  0  0  0  0
   -4.1277   20.9085    8.3171 H   0  0  0  0  0  0  0  0  0  0  0  0
   -1.6879   20.4152    8.1799 H   0  0  0  0  0  0  0  0  0  0  0  0
    0.2766   20.3760    8.8914 H   0  0  0  0  0  0  0  0  0  0  0  0
    5.0230   21.3432    7.4209 H   0  0  0  0  0  0  0  0  0  0  0  0
    7.1560   22.0800    6.3750 H   0  0  0  0  0  0  0  0  0  0  0  0
    8.9070   28.6960    4.3650 H   0  0  0  0  0  0  0  0  0  0  0  0
    7.2887   31.0789    4.0038 H   0  0  0  0  0  0  0  0  0  0  0  0
    8.8172   30.5069    6.5260 H   0  0  0  0  0  0  0  0  0  0  0  0
    7.2707   31.4396    6.2321 H   0  0  0  0  0  0  0  0  0  0  0  0
    6.0134   29.4803    5.9388 H   0  0  0  0  0  0  0  0  0  0  0  0
    7.5191   28.4577    5.8381 H   0  0  0  0  0  0  0  0  0  0  0  0
   10.1150   32.8210    2.6730 H   0  0  0  0  0  0  0  0  0  0  0  0
    8.7950   31.8020    2.1840 H   0  0  0  0  0  0  0  0  0  0  0  0
  1  2  1  0
  2  3  2  0
  2  4  1  0
  4  5  1  0
  5  6  1  0
  6  7  1  0
  7  8  1  0
  8  9  2  0
  8 10  1  0
 10 11  1  0
 11 12  1  0
 12 13  2  0
 13 14  1  0
 14 15  2  0
 15 16  1  0
 16 17  2  0
 17 18  1  0
 18 19  1  0
 19 20  2  0
 20 21  1  0
 21 22  2  0
 22 23  1  0
 23 24  2  0
 18 25  2  0
 25 26  1  0
 15 27  1  0
 27 28  2  0
  6 29  1  0
 29 30  2  0
 29 31  1  0
 31 32  1  0
 32 33  1  0
 33 34  1  0
 34 35  1  0
 35 36  2  0
 35 37  1  0
 32 38  1  0
 38 39  1  0
 38 40  2  0
 28 12  1  0
 26 16  1  0
 24 19  1  0
  1 41  1  0
  1 42  1  0
  4 43  1  0
  4 44  1  0
  5 45  1  0
  5 46  1  0
  6 47  1  6
  7 48  1  0
 10 49  1  0
 10 50  1  0
 11 51  1  0
 11 52  1  0
 13 53  1  0
 14 54  1  0
 17 55  1  0
 20 56  1  0
 21 57  1  0
 22 58  1  0
 23 59  1  0
 24 60  1  0
 25 61  1  0
 27 62  1  0
 28 63  1  0
 31 64  1  0
 32 65  1  6
 33 66  1  0
 33 67  1  0
 34 68  1  0
 34 69  1  0
 39 70  1  0
 39 71  1  0
M  CHG  1  37  -1
M  END
>  <meeko>  (4) 
{"is_sidechain": [false], "free_energy": -9.135, "intermolecular_energy": -17.082, "internal_energy": -2.01}

$$$$
3tsk_ligand
     RDKit          3D

 71 73  0  0  0  0  0  0  0  0999 V2000
    7.5560   28.9350    8.1480 N   0  0  0  0  0  0  0  0  0  0  0  0
    6.9240   30.0840    7.7780 C   0  0  0  0  0  0  0  0  0  0  0  0
    6.1650   30.6740    8.5410 O   0  0  0  0  0  0  0  0  0  0  0  0
    7.2990   30.5920    6.4020 C   0  0  0  0  0  0  0  0  0  0  0  0
    8.4160   29.7560    5.7780 C   0  0  0  0  0  0  0  0  0  0  0  0
    7.9240   28.8550    4.6380 C   0  0  2  0  0  0  0  0  0  0  0  0
    8.5310   27.5280    4.7550 N   0  0  0  0  0  0  0  0  0  0  0  0
    7.8950   26.5170    5.4420 C   0  0  0  0  0  0  0  0  0  0  0  0
    6.9470   26.7020    6.1980 O   0  0  0  0  0  0  0  0  0  0  0  0
    8.4770   25.1490    5.1350 C   0  0  0  0  0  0  0  0  0  0  0  0
    7.5820   24.2950    4.2390 C   0  0  0  0  0  0  0  0  0  0  0  0
    6.3270   23.8290    4.9400 C   0  0  0  0  0  0  0  0  0  0  0  0
    5.0780   24.3530    4.5890 C   0  0  0  0  0  0  0  0  0  0  0  0
    3.9190   23.9310    5.2470 C   0  0  0  0  0  0  0  0  0  0  0  0
    3.9820   22.9810    6.2760 C   0  0  0  0  0  0  0  0  0  0  0  0
    2.7760   22.5110    6.9680 C   0  0  0  0  0  0  0  0  0  0  0  0
    1.4550   22.8500    6.7280 C   0  0  0  0  0  0  0  0  0  0  0  0
    0.5290   22.1840    7.5950 C   0  0  0  0  0  0  0  0  0  0  0  0
   -0.9240   22.3170    7.5990 C   0  0  0  0  0  0  0  0  0  0  0  0
   -1.7490   21.2040    7.8110 C   0  0  0  0  0  0  0  0  0  0  0  0
   -3.1390   21.3430    7.8200 C   0  0  0  0  0  0  0  0  0  0  0  0
   -3.7160   22.5960    7.6180 C   0  0  0  0  0  0  0  0  0  0  0  0
   -2.9050   23.7110    7.4100 C   0  0  0  0  0  0  0  0  0  0  0  0
   -1.5140   23.5720    7.4030 C   0  0  0  0  0  0  0  0  0  0  0  0
    1.1910   21.3360    8.4600 C   0  0  0  0  0  0  0  0  0  0  0  0
    2.8850   21.3610    8.2370 S   0  0  0  0  0  0  0  0  0  0  0  0
    5.2360   22.4600    6.6250 C   0  0  0  0  0  0  0  0  0  0  0  0
    6.3970   22.8830    5.9690 C   0  0  0  0  0  0  0  0  0  0  0  0
    8.3890   29.4070    3.2680 C   0  0  0  0  0  0  0  0  0  0  0  0
    9.2110   30.3210    3.1900 O   0  0  0  0  0  0  0  0  0  0  0  0
    7.7550   28.8450    2.1880 N   0  0  0  0  0  0  0  0  0  0  0  0
    7.9140   29.2930    0.8070 C   0  0  1  0  0  0  0  0  0  0  0  0
    7.9510   28.1450   -0.2220 C   0  0  0  0  0  0  0  0  0  0  0  0
    9.1840   27.2470   -0.1030 C   0  0  0  0  0  0  0  0  0  0  0  0
    8.9560   26.0400    0.8050 C   0  0  0  0  0  0  0  0  0  0  0  0
    9.3470   26.1980    1.9980 O   0  0  0  0  0  0  0  0  0  0  0  0
    8.4440   25.0270    0.2540 O   0  0  0  0  0  0  0  0  0  0  0  0
    6.9030   30.4010    0.4330 C   0  0  0  0  0  0  0  0  0  0  0  0
    6.2180   30.1950   -0.7370 N   0  0  0  0  0  0  0  0  0  0  0  0
    6.7340   31.4470    1.0560 O   0  0  0  0  0  0  0  0  0  0  0  0
    7.7860   28.2460    7.4040 H   0  0  0  0  0  0  0  0  0  0  0  0
    7.2090   28.4930    8.9860 H   0  0  0  0  0  0  0  0  0  0  0  0
    6.4133   30.5467    5.7513 H   0  0  0  0  0  0  0  0  0  0  0  0
    7.6596   31.6262    6.5039 H   0  0  0  0  0  0  0  0  0  0  0  0
    9.1833   30.4367    5.3807 H   0  0  0  0  0  0  0  0  0  0  0  0
    8.8167   29.1012    6.5658 H   0  0  0  0  0  0  0  0  0  0  0  0
    6.8267   28.8155    4.7034 H   0  0  0  0  0  0  0  0  0  0  0  0
    9.0540   27.2500    3.9300 H   0  0  0  0  0  0  0  0  0  0  0  0
    9.4448   25.2872    4.6307 H   0  0  0  0  0  0  0  0  0  0  0  0
    8.5788   24.6175    6.0927 H   0  0  0  0  0  0  0  0  0  0  0  0
    7.2935   24.8904    3.3603 H   0  0  0  0  0  0  0  0  0  0  0  0
    8.1548   23.4000    3.9547 H   0  0  0  0  0  0  0  0  0  0  0  0
    5.0074   25.1037    3.7881 H   0  0  0  0  0  0  0  0  0  0  0  0
    2.9451   24.3498    4.9536 H   0  0  0  0  0  0  0  0  0  0  0  0
    1.1466   23.5614    5.9477 H   0  0  0  0  0  0  0  0  0  0  0  0
   -1.2985   20.2134    7.9715 H   0  0  0  0  0  0  0  0  0  0  0  0
   -3.7785   20.4636    7.9865 H   0  0  0  0  0  0  0  0  0  0  0  0
   -4.8106   22.7049    7.6227 H   0  0  0  0  0  0  0  0  0  0  0  0
   -3.3597   24.7000    7.2514 H   0  0  0  0  0  0  0  0  0  0  0  0
   -0.8780   24.4550    7.2423 H   0  0  0  0  0  0  0  0  0  0  0  0
    0.6835   20.7124    9.2107 H   0  0  0  0  0  0  0  0  0  0  0  0
    5.3079   21.7087    7.4252 H   0  0  0  0  0  0  0  0  0  0  0  0
    7.3724   22.4689    6.2642 H   0  0  0  0  0  0  0  0  0  0  0  0
    7.2030   28.0090    2.3220 H   0  0  0  0  0  0  0  0  0  0  0  0
    8.9151   29.7461    0.7578 H   0  0  0  0  0  0  0  0  0  0  0  0
    7.0546   27.5235   -0.0802 H   0  0  0  0  0  0  0  0  0  0  0  0
    7.9887   28.6096   -1.2183 H   0  0  0  0  0  0  0  0  0  0  0  0
    9.4527   26.8853   -1.1065 H   0  0  0  0  0  0  0  0  0  0  0  0
    9.9884   27.8491    0.3447 H   0  0  0  0  0  0  0  0  0  0  0  0
    5.6620   30.9690   -1.0710 H   0  0  0  0  0  0  0  0  0  0  0  0
    6.5710   29.5270   -1.4140 H   0  0  0  0  0  0  0  0  0  0  0  0
  1  2  1  0
  2  3  2  0
  2  4  1  0
  4  5  1  0
  5  6  1  0
  6  7  1  0
  7  8  1  0
  8  9  2  0
  8 10  1  0
 10 11  1  0
 11 12  1  0
 12 13  2  0
 13 14  1  0
 14 15  2  0
 15 16  1  0
 16 17  2  0
 17 18  1  0
 18 19  1  0
 19 20  2  0
 20 21  1  0
 21 22  2  0
 22 23  1  0
 23 24  2  0
 18 25  2  0
 25 26  1  0
 15 27  1  0
 27 28  2  0
  6 29  1  0
 29 30  2  0
 29 31  1  0
 31 32  1  0
 32 33  1  0
 33 34  1  0
 34 35  1  0
 35 36  2  0
 35 37  1  0
 32 38  1  0
 38 39  1  0
 38 40  2  0
 28 12  1  0
 26 16  1  0
 24 19  1  0
  1 41  1  0
  1 42  1  0
  4 43  1  0
  4 44  1  0
  5 45  1  0
  5 46  1  0
  6 47  1  6
  7 48  1  0
 10 49  1  0
 10 50  1  0
 11 51  1  0
 11 52  1  0
 13 53  1  0
 14 54  1  0
 17 55  1  0
 20 56  1  0
 21 57  1  0
 22 58  1  0
 23 59  1  0
 24 60  1  0
 25 61  1  0
 27 62  1  0
 28 63  1  0
 31 64  1  0
 32 65  1  1
 33 66  1  0
 33 67  1  0
 34 68  1  0
 34 69  1  0
 39 70  1  0
 39 71  1  0
M  CHG  1  37  -1
M  END
>  <meeko>  (5) 
{"is_sidechain": [false], "free_energy": -8.889, "intermolecular_energy": -16.179, "internal_energy": -2.451}

$$$$
3tsk_ligand
     RDKit          3D

 71 73  0  0  0  0  0  0  0  0999 V2000
   10.3010   25.6490    0.6520 N   0  0  0  0  0  0  0  0  0  0  0  0
    9.2130   26.0970   -0.0350 C   0  0  0  0  0  0  0  0  0  0  0  0
    8.3910   25.3200   -0.5130 O   0  0  0  0  0  0  0  0  0  0  0  0
    9.0760   27.6040   -0.0830 C   0  0  0  0  0  0  0  0  0  0  0  0
    7.9900   28.1010    0.8700 C   0  0  0  0  0  0  0  0  0  0  0  0
    8.4840   28.2530    2.3140 C   0  0  2  0  0  0  0  0  0  0  0  0
    7.9690   27.1550    3.1350 N   0  0  0  0  0  0  0  0  0  0  0  0
    8.8220   26.3560    3.8640 C   0  0  0  0  0  0  0  0  0  0  0  0
   10.0360   26.3240    3.6920 O   0  0  0  0  0  0  0  0  0  0  0  0
    8.0970   25.5450    4.9230 C   0  0  0  0  0  0  0  0  0  0  0  0
    7.6090   24.1880    4.4210 C   0  0  0  0  0  0  0  0  0  0  0  0
    6.3540   23.7210    5.1230 C   0  0  0  0  0  0  0  0  0  0  0  0
    6.4120   22.7140    6.0930 C   0  0  0  0  0  0  0  0  0  0  0  0
    5.2500   22.2730    6.7320 C   0  0  0  0  0  0  0  0  0  0  0  0
    4.0020   22.8260    6.4130 C   0  0  0  0  0  0  0  0  0  0  0  0
    2.7700   22.3910    7.0850 C   0  0  0  0  0  0  0  0  0  0  0  0
    1.4580   22.6690    6.7460 C   0  0  0  0  0  0  0  0  0  0  0  0
    0.5010   22.0640    7.6240 C   0  0  0  0  0  0  0  0  0  0  0  0
   -0.9530   22.1560    7.5420 C   0  0  0  0  0  0  0  0  0  0  0  0
   -1.5770   23.3300    7.0980 C   0  0  0  0  0  0  0  0  0  0  0  0
   -2.9700   23.4040    7.0170 C   0  0  0  0  0  0  0  0  0  0  0  0
   -3.7500   22.3060    7.3760 C   0  0  0  0  0  0  0  0  0  0  0  0
   -3.1390   21.1330    7.8150 C   0  0  0  0  0  0  0  0  0  0  0  0
   -1.7460   21.0570    7.8960 C   0  0  0  0  0  0  0  0  0  0  0  0
    1.1350   21.3200    8.5990 C   0  0  0  0  0  0  0  0  0  0  0  0
    2.8380   21.3700    8.4620 S   0  0  0  0  0  0  0  0  0  0  0  0
    3.9480   23.8350    5.4410 C   0  0  0  0  0  0  0  0  0  0  0  0
    5.1110   24.2740    4.7980 C   0  0  0  0  0  0  0  0  0  0  0  0
    7.9220   29.5480    2.9490 C   0  0  0  0  0  0  0  0  0  0  0  0
    7.4380   29.5490    4.0820 O   0  0  0  0  0  0  0  0  0  0  0  0
    7.9440   30.6410    2.1190 N   0  0  0  0  0  0  0  0  0  0  0  0
    7.3440   31.9350    2.4340 C   0  0  1  0  0  0  0  0  0  0  0  0
    8.3380   32.9600    3.0170 C   0  0  0  0  0  0  0  0  0  0  0  0
    8.3670   32.9940    4.5460 C   0  0  0  0  0  0  0  0  0  0  0  0
    9.5080   32.1710    5.1400 C   0  0  0  0  0  0  0  0  0  0  0  0
    9.5470   32.1600    6.4050 O   0  0  0  0  0  0  0  0  0  0  0  0
   10.2890   31.6350    4.3070 O   0  0  0  0  0  0  0  0  0  0  0  0
    6.5250   32.5000    1.2510 C   0  0  0  0  0  0  0  0  0  0  0  0
    5.9410   33.7200    1.4770 N   0  0  0  0  0  0  0  0  0  0  0  0
    6.3120   31.9150    0.1920 O   0  0  0  0  0  0  0  0  0  0  0  0
   11.1620   26.2310    0.6290 H   0  0  0  0  0  0  0  0  0  0  0  0
   10.5020   24.6640    0.5650 H   0  0  0  0  0  0  0  0  0  0  0  0
   10.0362   28.0589    0.2017 H   0  0  0  0  0  0  0  0  0  0  0  0
    8.7932   27.8912   -1.1065 H   0  0  0  0  0  0  0  0  0  0  0  0
    7.6343   29.0800    0.5163 H   0  0  0  0  0  0  0  0  0  0  0  0
    7.1867   27.3495    0.8743 H   0  0  0  0  0  0  0  0  0  0  0  0
    9.5835   28.2660    2.2829 H   0  0  0  0  0  0  0  0  0  0  0  0
    7.0700   27.3600    3.5620 H   0  0  0  0  0  0  0  0  0  0  0  0
    8.7844   25.3782    5.7654 H   0  0  0  0  0  0  0  0  0  0  0  0
    7.2073   26.1202    5.2190 H   0  0  0  0  0  0  0  0  0  0  0  0
    7.4010   24.2658    3.3437 H   0  0  0  0  0  0  0  0  0  0  0  0
    8.3997   23.4528    4.6316 H   0  0  0  0  0  0  0  0  0  0  0  0
    7.3815   22.2653    6.3550 H   0  0  0  0  0  0  0  0  0  0  0  0
    5.3155   21.4826    7.4943 H   0  0  0  0  0  0  0  0  0  0  0  0
    1.1767   23.2940    5.8857 H   0  0  0  0  0  0  0  0  0  0  0  0
   -0.9661   24.1987    6.8115 H   0  0  0  0  0  0  0  0  0  0  0  0
   -3.4516   24.3299    6.6695 H   0  0  0  0  0  0  0  0  0  0  0  0
   -4.8466   22.3653    7.3129 H   0  0  0  0  0  0  0  0  0  0  0  0
   -3.7539   20.2660    8.0981 H   0  0  0  0  0  0  0  0  0  0  0  0
   -1.2689   20.1275    8.2402 H   0  0  0  0  0  0  0  0  0  0  0  0
    0.6022   20.7564    9.3790 H   0  0  0  0  0  0  0  0  0  0  0  0
    2.9796   24.2871    5.1806 H   0  0  0  0  0  0  0  0  0  0  0  0
    5.0471   25.0600    4.0311 H   0  0  0  0  0  0  0  0  0  0  0  0
    8.4820   30.5980    1.2650 H   0  0  0  0  0  0  0  0  0  0  0  0
    6.6328   31.7398    3.2501 H   0  0  0  0  0  0  0  0  0  0  0  0
    9.3464   32.7082    2.6569 H   0  0  0  0  0  0  0  0  0  0  0  0
    8.0059   33.9536    2.6815 H   0  0  0  0  0  0  0  0  0  0  0  0
    8.4821   34.0385    4.8712 H   0  0  0  0  0  0  0  0  0  0  0  0
    7.4239   32.5542    4.9027 H   0  0  0  0  0  0  0  0  0  0  0  0
    5.2870   34.0390    0.7760 H   0  0  0  0  0  0  0  0  0  0  0  0
    5.8290   34.0550    2.4270 H   0  0  0  0  0  0  0  0  0  0  0  0
  1  2  1  0
  2  3  2  0
  2  4  1  0
  4  5  1  0
  5  6  1  0
  6  7  1  0
  7  8  1  0
  8  9  2  0
  8 10  1  0
 10 11  1  0
 11 12  1  0
 12 13  2  0
 13 14  1  0
 14 15  2  0
 15 16  1  0
 16 17  2  0
 17 18  1  0
 18 19  1  0
 19 20  2  0
 20 21  1  0
 21 22  2  0
 22 23  1  0
 23 24  2  0
 18 25  2  0
 25 26  1  0
 15 27  1  0
 27 28  2  0
  6 29  1  0
 29 30  2  0
 29 31  1  0
 31 32  1  0
 32 33  1  0
 33 34  1  0
 34 35  1  0
 35 36  2  0
 35 37  1  0
 32 38  1  0
 38 39  1  0
 38 40  2  0
 28 12  1  0
 26 16  1  0
 24 19  1  0
  1 41  1  0
  1 42  1  0
  4 43  1  0
  4 44  1  0
  5 45  1  0
  5 46  1  0
  6 47  1  6
  7 48  1  0
 10 49  1  0
 10 50  1  0
 11 51  1  0
 11 52  1  0
 13 53  1  0
 14 54  1  0
 17 55  1  0
 20 56  1  0
 21 57  1  0
 22 58  1  0
 23 59  1  0
 24 60  1  0
 25 61  1  0
 27 62  1  0
 28 63  1  0
 31 64  1  0
 32 65  1  1
 33 66  1  0
 33 67  1  0
 34 68  1  0
 34 69  1  0
 39 70  1  0
 39 71  1  0
M  CHG  1  37  -1
M  END
>  <meeko>  (6) 
{"is_sidechain": [false], "free_energy": -8.706, "intermolecular_energy": -16.047, "internal_energy": -2.239}

$$$$
3tsk_ligand
     RDKit          3D

 71 73  0  0  0  0  0  0  0  0999 V2000
    8.1280   30.5610    8.9740 N   0  0  0  0  0  0  0  0  0  0  0  0
    7.3370   29.4890    9.2590 C   0  0  0  0  0  0  0  0  0  0  0  0
    6.6340   29.4590   10.2650 O   0  0  0  0  0  0  0  0  0  0  0  0
    7.3470   28.4030    8.2040 C   0  0  0  0  0  0  0  0  0  0  0  0
    8.0810   28.8510    6.9410 C   0  0  0  0  0  0  0  0  0  0  0  0
    7.2760   28.6000    5.6600 C   0  0  2  0  0  0  0  0  0  0  0  0
    7.3260   27.1780    5.3110 N   0  0  0  0  0  0  0  0  0  0  0  0
    8.5310   26.5300    5.1560 C   0  0  0  0  0  0  0  0  0  0  0  0
    9.6050   27.1110    5.0410 O   0  0  0  0  0  0  0  0  0  0  0  0
    8.3860   25.0190    5.1760 C   0  0  0  0  0  0  0  0  0  0  0  0
    7.3020   24.5000    4.2340 C   0  0  0  0  0  0  0  0  0  0  0  0
    6.0970   23.9610    4.9700 C   0  0  0  0  0  0  0  0  0  0  0  0
    6.2430   22.9700    5.9480 C   0  0  0  0  0  0  0  0  0  0  0  0
    5.1270   22.4620    6.6180 C   0  0  0  0  0  0  0  0  0  0  0  0
    3.8380   22.9280    6.3230 C   0  0  0  0  0  0  0  0  0  0  0  0
    2.6540   22.4210    7.0280 C   0  0  0  0  0  0  0  0  0  0  0  0
    1.3190   22.6660    6.7580 C   0  0  0  0  0  0  0  0  0  0  0  0
    0.4240   21.9900    7.6510 C   0  0  0  0  0  0  0  0  0  0  0  0
   -1.0350   22.0330    7.6350 C   0  0  0  0  0  0  0  0  0  0  0  0
   -1.7930   20.9910    8.1850 C   0  0  0  0  0  0  0  0  0  0  0  0
   -3.1890   21.0460    8.1700 C   0  0  0  0  0  0  0  0  0  0  0  0
   -3.8390   22.1440    7.6080 C   0  0  0  0  0  0  0  0  0  0  0  0
   -3.0940   23.1880    7.0610 C   0  0  0  0  0  0  0  0  0  0  0  0
   -1.6970   23.1340    7.0770 C   0  0  0  0  0  0  0  0  0  0  0  0
    1.1250   21.2290    8.5640 C   0  0  0  0  0  0  0  0  0  0  0  0
    2.8170   21.3460    8.3550 S   0  0  0  0  0  0  0  0  0  0  0  0
    3.6970   23.9200    5.3430 C   0  0  0  0  0  0  0  0  0  0  0  0
    4.8120   24.4270    4.6680 C   0  0  0  0  0  0  0  0  0  0  0  0
    7.9120   29.3450    4.4610 C   0  0  0  0  0  0  0  0  0  0  0  0
    8.7560   30.2260    4.6290 O   0  0  0  0  0  0  0  0  0  0  0  0
    7.3970   28.9930    3.2390 N   0  0  0  0  0  0  0  0  0  0  0  0
    7.7290   29.6510    1.9780 C   0  0  1  0  0  0  0  0  0  0  0  0
    7.5210   28.7610    0.7350 C   0  0  0  0  0  0  0  0  0  0  0  0
    7.6930   27.2660    1.0080 C   0  0  0  0  0  0  0  0  0  0  0  0
    9.1390   26.7960    0.8620 C   0  0  0  0  0  0  0  0  0  0  0  0
    9.6750   27.0810   -0.2490 O   0  0  0  0  0  0  0  0  0  0  0  0
    9.6090   26.1550    1.8410 O   0  0  0  0  0  0  0  0  0  0  0  0
    7.0490   31.0330    1.8460 C   0  0  0  0  0  0  0  0  0  0  0  0
    7.8340   32.1040    2.1900 N   0  0  0  0  0  0  0  0  0  0  0  0
    5.8750   31.2200    1.5360 O   0  0  0  0  0  0  0  0  0  0  0  0
    9.0020   30.3900    8.4380 H   0  0  0  0  0  0  0  0  0  0  0  0
    8.2630   31.2200    9.7260 H   0  0  0  0  0  0  0  0  0  0  0  0
    7.8495   27.5137    8.6122 H   0  0  0  0  0  0  0  0  0  0  0  0
    6.3050   28.1768    7.9338 H   0  0  0  0  0  0  0  0  0  0  0  0
    8.2883   29.9284    7.0194 H   0  0  0  0  0  0  0  0  0  0  0  0
    9.0057   28.2594    6.8701 H   0  0  0  0  0  0  0  0  0  0  0  0
    6.2486   28.9451    5.8479 H   0  0  0  0  0  0  0  0  0  0  0  0
    6.5730   26.6350    5.7240 H   0  0  0  0  0  0  0  0  0  0  0  0
    9.3471   24.5728    4.8807 H   0  0  0  0  0  0  0  0  0  0  0  0
    8.0913   24.7351    6.1971 H   0  0  0  0  0  0  0  0  0  0  0  0
    6.9767   25.3253    3.5836 H   0  0  0  0  0  0  0  0  0  0  0  0
    7.7350   23.6711    3.6548 H   0  0  0  0  0  0  0  0  0  0  0  0
    7.2454   22.5878    6.1912 H   0  0  0  0  0  0  0  0  0  0  0  0
    5.2615   21.6867    7.3866 H   0  0  0  0  0  0  0  0  0  0  0  0
    0.9780   23.3157    5.9385 H   0  0  0  0  0  0  0  0  0  0  0  0
   -1.2854   20.1234    8.6318 H   0  0  0  0  0  0  0  0  0  0  0  0
   -3.7759   20.2221    8.6021 H   0  0  0  0  0  0  0  0  0  0  0  0
   -4.9381   22.1866    7.5962 H   0  0  0  0  0  0  0  0  0  0  0  0
   -3.6056   24.0545    6.6167 H   0  0  0  0  0  0  0  0  0  0  0  0
   -1.1136   23.9622    6.6483 H   0  0  0  0  0  0  0  0  0  0  0  0
    0.6471   20.6144    9.3411 H   0  0  0  0  0  0  0  0  0  0  0  0
    2.6954   24.3052    5.1014 H   0  0  0  0  0  0  0  0  0  0  0  0
    4.6783   25.1974    3.8943 H   0  0  0  0  0  0  0  0  0  0  0  0
    6.8150   28.1690    3.1700 H   0  0  0  0  0  0  0  0  0  0  0  0
    8.8135   29.8313    2.0154 H   0  0  0  0  0  0  0  0  0  0  0  0
    6.5024   28.9289    0.3553 H   0  0  0  0  0  0  0  0  0  0  0  0
    8.2950   29.0438    0.0064 H   0  0  0  0  0  0  0  0  0  0  0  0
    7.3580   27.0561    2.0345 H   0  0  0  0  0  0  0  0  0  0  0  0
    7.0935   26.7238    0.2619 H   0  0  0  0  0  0  0  0  0  0  0  0
    7.3690   32.9980    2.2490 H   0  0  0  0  0  0  0  0  0  0  0  0
    8.6670   31.9570    2.7480 H   0  0  0  0  0  0  0  0  0  0  0  0
  1  2  1  0
  2  3  2  0
  2  4  1  0
  4  5  1  0
  5  6  1  0
  6  7  1  0
  7  8  1  0
  8  9  2  0
  8 10  1  0
 10 11  1  0
 11 12  1  0
 12 13  2  0
 13 14  1  0
 14 15  2  0
 15 16  1  0
 16 17  2  0
 17 18  1  0
 18 19  1  0
 19 20  2  0
 20 21  1  0
 21 22  2  0
 22 23  1  0
 23 24  2  0
 18 25  2  0
 25 26  1  0
 15 27  1  0
 27 28  2  0
  6 29  1  0
 29 30  2  0
 29 31  1  0
 31 32  1  0
 32 33  1  0
 33 34  1  0
 34 35  1  0
 35 36  2  0
 35 37  1  0
 32 38  1  0
 38 39  1  0
 38 40  2  0
 28 12  1  0
 26 16  1  0
 24 19  1  0
  1 41  1  0
  1 42  1  0
  4 43  1  0
  4 44  1  0
  5 45  1  0
  5 46  1  0
  6 47  1  1
  7 48  1  0
 10 49  1  0
 10 50  1  0
 11 51  1  0
 11 52  1  0
 13 53  1  0
 14 54  1  0
 17 55  1  0
 20 56  1  0
 21 57  1  0
 22 58  1  0
 23 59  1  0
 24 60  1  0
 25 61  1  0
 27 62  1  0
 28 63  1  0
 31 64  1  0
 32 65  1  1
 33 66  1  0
 33 67  1  0
 34 68  1  0
 34 69  1  0
 39 70  1  0
 39 71  1  0
M  CHG  1  37  -1
M  END
>  <meeko>  (7) 
{"is_sidechain": [false], "free_energy": -8.663, "intermolecular_energy": -16.743, "internal_energy": -1.464}

$$$$
3tsk_ligand
     RDKit          3D

 71 73  0  0  0  0  0  0  0  0999 V2000
    5.7320   31.9830    2.4970 N   0  0  0  0  0  0  0  0  0  0  0  0
    6.6100   31.5000    3.4200 C   0  0  0  0  0  0  0  0  0  0  0  0
    6.7920   32.0700    4.4920 O   0  0  0  0  0  0  0  0  0  0  0  0
    7.2610   30.1870    3.0420 C   0  0  0  0  0  0  0  0  0  0  0  0
    8.6510   30.0480    3.6610 C   0  0  0  0  0  0  0  0  0  0  0  0
    8.8190   28.7580    4.4730 C   0  0  2  0  0  0  0  0  0  0  0  0
    8.1510   27.6480    3.7900 N   0  0  0  0  0  0  0  0  0  0  0  0
    8.7240   26.3960    3.7470 C   0  0  0  0  0  0  0  0  0  0  0  0
    9.8970   26.1760    4.0300 O   0  0  0  0  0  0  0  0  0  0  0  0
    7.7350   25.3170    3.3440 C   0  0  0  0  0  0  0  0  0  0  0  0
    7.8670   24.0350    4.1620 C   0  0  0  0  0  0  0  0  0  0  0  0
    6.5850   23.6590    4.8700 C   0  0  0  0  0  0  0  0  0  0  0  0
    5.3930   24.3380    4.5940 C   0  0  0  0  0  0  0  0  0  0  0  0
    4.2100   23.9990    5.2590 C   0  0  0  0  0  0  0  0  0  0  0  0
    4.1940   22.9760    6.2180 C   0  0  0  0  0  0  0  0  0  0  0  0
    2.9590   22.5920    6.9140 C   0  0  0  0  0  0  0  0  0  0  0  0
    1.6610   22.9970    6.6570 C   0  0  0  0  0  0  0  0  0  0  0  0
    0.6950   22.4060    7.5350 C   0  0  0  0  0  0  0  0  0  0  0  0
   -0.7480   22.6180    7.5270 C   0  0  0  0  0  0  0  0  0  0  0  0
   -1.2870   23.9120    7.4810 C   0  0  0  0  0  0  0  0  0  0  0  0
   -2.6710   24.1020    7.4670 C   0  0  0  0  0  0  0  0  0  0  0  0
   -3.5280   23.0030    7.4970 C   0  0  0  0  0  0  0  0  0  0  0  0
   -3.0030   21.7130    7.5400 C   0  0  0  0  0  0  0  0  0  0  0  0
   -1.6180   21.5210    7.5520 C   0  0  0  0  0  0  0  0  0  0  0  0
    1.3050   21.5450    8.4250 C   0  0  0  0  0  0  0  0  0  0  0  0
    2.9990   21.4700    8.2120 S   0  0  0  0  0  0  0  0  0  0  0  0
    5.3900   22.2980    6.4900 C   0  0  0  0  0  0  0  0  0  0  0  0
    6.5750   22.6390    5.8280 C   0  0  0  0  0  0  0  0  0  0  0  0
    8.1160   28.8840    5.8470 C   0  0  0  0  0  0  0  0  0  0  0  0
    7.1480   28.1810    6.1400 O   0  0  0  0  0  0  0  0  0  0  0  0
    8.6150   29.8810    6.6480 N   0  0  0  0  0  0  0  0  0  0  0  0
    8.0340   30.2900    7.9240 C   0  0  1  0  0  0  0  0  0  0  0  0
    8.5100   29.4480    9.1260 C   0  0  0  0  0  0  0  0  0  0  0  0
    7.3950   28.6480    9.8010 C   0  0  0  0  0  0  0  0  0  0  0  0
    6.7270   29.4050   10.9470 C   0  0  0  0  0  0  0  0  0  0  0  0
    7.2850   29.2530   12.0730 O   0  0  0  0  0  0  0  0  0  0  0  0
    5.6900   30.0560   10.6450 O   0  0  0  0  0  0  0  0  0  0  0  0
    8.1710   31.8110    8.1660 C   0  0  0  0  0  0  0  0  0  0  0  0
    9.4500   32.3010    8.0900 N   0  0  0  0  0  0  0  0  0  0  0  0
    7.2530   32.5650    8.4810 O   0  0  0  0  0  0  0  0  0  0  0  0
    5.9280   31.7910    1.4940 H   0  0  0  0  0  0  0  0  0  0  0  0
    5.4080   32.9260    2.6490 H   0  0  0  0  0  0  0  0  0  0  0  0
    6.6283   29.3600    3.3966 H   0  0  0  0  0  0  0  0  0  0  0  0
    7.3681   30.1593    1.9476 H   0  0  0  0  0  0  0  0  0  0  0  0
    9.3969   30.0529    2.8525 H   0  0  0  0  0  0  0  0  0  0  0  0
    8.7893   30.8923    4.3523 H   0  0  0  0  0  0  0  0  0  0  0  0
    9.8990   28.5836    4.5880 H   0  0  0  0  0  0  0  0  0  0  0  0
    7.1390   27.6770    3.8700 H   0  0  0  0  0  0  0  0  0  0  0  0
    6.7165   25.7111    3.4760 H   0  0  0  0  0  0  0  0  0  0  0  0
    7.9486   25.0565    2.2968 H   0  0  0  0  0  0  0  0  0  0  0  0
    8.1495   23.2142    3.4864 H   0  0  0  0  0  0  0  0  0  0  0  0
    8.6325   24.2101    4.9323 H   0  0  0  0  0  0  0  0  0  0  0  0
    5.3862   25.1457    3.8473 H   0  0  0  0  0  0  0  0  0  0  0  0
    3.2814   24.5412    5.0270 H   0  0  0  0  0  0  0  0  0  0  0  0
    1.3965   23.7038    5.8567 H   0  0  0  0  0  0  0  0  0  0  0  0
   -0.6156   24.7830    7.4558 H   0  0  0  0  0  0  0  0  0  0  0  0
   -3.0851   25.1205    7.4322 H   0  0  0  0  0  0  0  0  0  0  0  0
   -4.6175   23.1540    7.4867 H   0  0  0  0  0  0  0  0  0  0  0  0
   -3.6785   20.8452    7.5645 H   0  0  0  0  0  0  0  0  0  0  0  0
   -1.2087   20.5004    7.5813 H   0  0  0  0  0  0  0  0  0  0  0  0
    0.7601   20.9699    9.1881 H   0  0  0  0  0  0  0  0  0  0  0  0
    5.3975   21.4873    7.2334 H   0  0  0  0  0  0  0  0  0  0  0  0
    7.5055   22.1012    6.0625 H   0  0  0  0  0  0  0  0  0  0  0  0
    9.4930   30.3160    6.4010 H   0  0  0  0  0  0  0  0  0  0  0  0
    6.9582   30.0763    7.8402 H   0  0  0  0  0  0  0  0  0  0  0  0
    9.2774   28.7433    8.7733 H   0  0  0  0  0  0  0  0  0  0  0  0
    8.8975   30.1526    9.8766 H   0  0  0  0  0  0  0  0  0  0  0  0
    6.6307   28.4073    9.0474 H   0  0  0  0  0  0  0  0  0  0  0  0
    7.8514   27.7423   10.2269 H   0  0  0  0  0  0  0  0  0  0  0  0
    9.5800   33.2580    8.3840 H   0  0  0  0  0  0  0  0  0  0  0  0
   10.2360   31.6640    8.1600 H   0  0  0  0  0  0  0  0  0  0  0  0
  1  2  1  0
  2  3  2  0
  2  4  1  0
  4  5  1  0
  5  6  1  0
  6  7  1  0
  7  8  1  0
  8  9  2  0
  8 10  1  0
 10 11  1  0
 11 12  1  0
 12 13  2  0
 13 14  1  0
 14 15  2  0
 15 16  1  0
 16 17  2  0
 17 18  1  0
 18 19  1  0
 19 20  2  0
 20 21  1  0
 21 22  2  0
 22 23  1  0
 23 24  2  0
 18 25  2  0
 25 26  1  0
 15 27  1  0
 27 28  2  0
  6 29  1  0
 29 30  2  0
 29 31  1  0
 31 32  1  0
 32 33  1  0
 33 34  1  0
 34 35  1  0
 35 36  2  0
 35 37  1  0
 32 38  1  0
 38 39  1  0
 38 40  2  0
 28 12  1  0
 26 16  1  0
 24 19  1  0
  1 41  1  0
  1 42  1  0
  4 43  1  0
  4 44  1  0
  5 45  1  0
  5 46  1  0
  6 47  1  1
  7 48  1  0
 10 49  1  0
 10 50  1  0
 11 51  1  0
 11 52  1  0
 13 53  1  0
 14 54  1  0
 17 55  1  0
 20 56  1  0
 21 57  1  0
 22 58  1  0
 23 59  1  0
 24 60  1  0
 25 61  1  0
 27 62  1  0
 28 63  1  0
 31 64  1  0
 32 65  1  6
 33 66  1  0
 33 67  1  0
 34 68  1  0
 34 69  1  0
 39 70  1  0
 39 71  1  0
M  CHG  1  37  -1
M  END
>  <meeko>  (8) 
{"is_sidechain": [false], "free_energy": -8.561, "intermolecular_energy": -16.098, "internal_energy": -1.917}

$$$$
3tsk_ligand
     RDKit          3D

 71 73  0  0  0  0  0  0  0  0999 V2000
    9.2100   29.3550   -0.1100 N   0  0  0  0  0  0  0  0  0  0  0  0
    8.3250   28.5110    0.4910 C   0  0  0  0  0  0  0  0  0  0  0  0
    8.5770   27.3210    0.6480 O   0  0  0  0  0  0  0  0  0  0  0  0
    7.0680   29.1820    1.0050 C   0  0  0  0  0  0  0  0  0  0  0  0
    7.2010   29.5740    2.4760 C   0  0  0  0  0  0  0  0  0  0  0  0
    8.3880   28.8980    3.1710 C   0  0  2  0  0  0  0  0  0  0  0  0
    7.9680   27.6160    3.7410 N   0  0  0  0  0  0  0  0  0  0  0  0
    8.8920   26.6410    4.0470 C   0  0  0  0  0  0  0  0  0  0  0  0
   10.0520   26.6540    3.6470 O   0  0  0  0  0  0  0  0  0  0  0  0
    8.3250   25.5680    4.9590 C   0  0  0  0  0  0  0  0  0  0  0  0
    7.6100   24.4470    4.2080 C   0  0  0  0  0  0  0  0  0  0  0  0
    6.3830   23.9470    4.9340 C   0  0  0  0  0  0  0  0  0  0  0  0
    6.4910   22.9600    5.9210 C   0  0  0  0  0  0  0  0  0  0  0  0
    5.3530   22.4870    6.5820 C   0  0  0  0  0  0  0  0  0  0  0  0
    4.0810   22.9870    6.2700 C   0  0  0  0  0  0  0  0  0  0  0  0
    2.8760   22.5190    6.9650 C   0  0  0  0  0  0  0  0  0  0  0  0
    1.5540   22.8440    6.7140 C   0  0  0  0  0  0  0  0  0  0  0  0
    0.6290   22.1850    7.5880 C   0  0  0  0  0  0  0  0  0  0  0  0
   -0.8250   22.3050    7.5850 C   0  0  0  0  0  0  0  0  0  0  0  0
   -1.4530   23.4510    7.0760 C   0  0  0  0  0  0  0  0  0  0  0  0
   -2.8460   23.5520    7.0720 C   0  0  0  0  0  0  0  0  0  0  0  0
   -3.6240   22.5100    7.5740 C   0  0  0  0  0  0  0  0  0  0  0  0
   -3.0100   21.3650    8.0790 C   0  0  0  0  0  0  0  0  0  0  0  0
   -1.6160   21.2620    8.0830 C   0  0  0  0  0  0  0  0  0  0  0  0
    1.2940   21.3560    8.4690 C   0  0  0  0  0  0  0  0  0  0  0  0
    2.9890   21.3900    8.2520 S   0  0  0  0  0  0  0  0  0  0  0  0
    3.9790   23.9760    5.2810 C   0  0  0  0  0  0  0  0  0  0  0  0
    5.1150   24.4460    4.6160 C   0  0  0  0  0  0  0  0  0  0  0  0
    8.8740   29.7470    4.3710 C   0  0  0  0  0  0  0  0  0  0  0  0
    9.9930   30.2620    4.3810 O   0  0  0  0  0  0  0  0  0  0  0  0
    7.9920   29.8000    5.4200 N   0  0  0  0  0  0  0  0  0  0  0  0
    8.2760   30.4150    6.7140 C   0  0  1  0  0  0  0  0  0  0  0  0
    8.1090   31.9490    6.7280 C   0  0  0  0  0  0  0  0  0  0  0  0
    6.7340   32.4260    6.2590 C   0  0  0  0  0  0  0  0  0  0  0  0
    6.7860   33.1850    4.9350 C   0  0  0  0  0  0  0  0  0  0  0  0
    7.9130   33.1610    4.3580 O   0  0  0  0  0  0  0  0  0  0  0  0
    5.7210   33.7680    4.5940 O   0  0  0  0  0  0  0  0  0  0  0  0
    7.5190   29.7200    7.8690 C   0  0  0  0  0  0  0  0  0  0  0  0
    8.2630   29.4870    8.9970 N   0  0  0  0  0  0  0  0  0  0  0  0
    6.3610   29.3130    7.8150 O   0  0  0  0  0  0  0  0  0  0  0  0
    8.8280   30.1690   -0.6310 H   0  0  0  0  0  0  0  0  0  0  0  0
    9.9750   28.9140   -0.5990 H   0  0  0  0  0  0  0  0  0  0  0  0
    6.8779   30.0875    0.4100 H   0  0  0  0  0  0  0  0  0  0  0  0
    6.2352   28.4693    0.9128 H   0  0  0  0  0  0  0  0  0  0  0  0
    7.3333   30.6643    2.5376 H   0  0  0  0  0  0  0  0  0  0  0  0
    6.2865   29.2416    2.9890 H   0  0  0  0  0  0  0  0  0  0  0  0
    9.1802   28.7771    2.4175 H   0  0  0  0  0  0  0  0  0  0  0  0
    7.1740   27.6950    4.3690 H   0  0  0  0  0  0  0  0  0  0  0  0
    9.1520   25.1285    5.5359 H   0  0  0  0  0  0  0  0  0  0  0  0
    7.5781   26.0531    5.6046 H   0  0  0  0  0  0  0  0  0  0  0  0
    7.3051   24.8239    3.2206 H   0  0  0  0  0  0  0  0  0  0  0  0
    8.3118   23.6042    4.1236 H   0  0  0  0  0  0  0  0  0  0  0  0
    7.4798   22.5529    6.1789 H   0  0  0  0  0  0  0  0  0  0  0  0
    5.4573   21.7129    7.3565 H   0  0  0  0  0  0  0  0  0  0  0  0
    1.2437   23.5403    5.9209 H   0  0  0  0  0  0  0  0  0  0  0  0
   -0.8443   24.2759    6.6772 H   0  0  0  0  0  0  0  0  0  0  0  0
   -3.3299   24.4553    6.6721 H   0  0  0  0  0  0  0  0  0  0  0  0
   -4.7210   22.5912    7.5716 H   0  0  0  0  0  0  0  0  0  0  0  0
   -3.6230   20.5418    8.4747 H   0  0  0  0  0  0  0  0  0  0  0  0
   -1.1367   20.3551    8.4802 H   0  0  0  0  0  0  0  0  0  0  0  0
    0.7883   20.7408    9.2278 H   0  0  0  0  0  0  0  0  0  0  0  0
    2.9915   24.3875    5.0251 H   0  0  0  0  0  0  0  0  0  0  0  0
    5.0113   25.2147    3.8360 H   0  0  0  0  0  0  0  0  0  0  0  0
    7.0440   29.4750    5.2830 H   0  0  0  0  0  0  0  0  0  0  0  0
    9.3489   30.2478    6.8897 H   0  0  0  0  0  0  0  0  0  0  0  0
    8.2671   32.3054    7.7566 H   0  0  0  0  0  0  0  0  0  0  0  0
    8.8470   32.3574    6.0219 H   0  0  0  0  0  0  0  0  0  0  0  0
    6.0821   31.5487    6.1349 H   0  0  0  0  0  0  0  0  0  0  0  0
    6.3484   33.1193    7.0210 H   0  0  0  0  0  0  0  0  0  0  0  0
    7.8330   28.9080    9.7050 H   0  0  0  0  0  0  0  0  0  0  0  0
    9.2750   29.5100    8.9450 H   0  0  0  0  0  0  0  0  0  0  0  0
  1  2  1  0
  2  3  2  0
  2  4  1  0
  4  5  1  0
  5  6  1  0
  6  7  1  0
  7  8  1  0
  8  9  2  0
  8 10  1  0
 10 11  1  0
 11 12  1  0
 12 13  2  0
 13 14  1  0
 14 15  2  0
 15 16  1  0
 16 17  2  0
 17 18  1  0
 18 19  1  0
 19 20  2  0
 20 21  1  0
 21 22  2  0
 22 23  1  0
 23 24  2  0
 18 25  2  0
 25 26  1  0
 15 27  1  0
 27 28  2  0
  6 29  1  0
 29 30  2  0
 29 31  1  0
 31 32  1  0
 32 33  1  0
 33 34  1  0
 34 35  1  0
 35 36  2  0
 35 37  1  0
 32 38  1  0
 38 39  1  0
 38 40  2  0
 28 12  1  0
 26 16  1  0
 24 19  1  0
  1 41  1  0
  1 42  1  0
  4 43  1  0
  4 44  1  0
  5 45  1  0
  5 46  1  0
  6 47  1  6
  7 48  1  0
 10 49  1  0
 10 50  1  0
 11 51  1  0
 11 52  1  0
 13 53  1  0
 14 54  1  0
 17 55  1  0
 20 56  1  0
 21 57  1  0
 22 58  1  0
 23 59  1  0
 24 60  1  0
 25 61  1  0
 27 62  1  0
 28 63  1  0
 31 64  1  0
 32 65  1  1
 33 66  1  0
 33 67  1  0
 34 68  1  0
 34 69  1  0
 39 70  1  0
 39 71  1  0
M  CHG  1  37  -1
M  END
>  <meeko>  (9) 
{"is_sidechain": [false], "free_energy": -8.265, "intermolecular_energy": -15.717, "internal_energy": -1.742}

$$$$
