3k5v_ligand
     RDKit          3D

 40 42  0  0  0  0  0  0  0  0999 V2000
   19.2280   43.2280   60.8180 N   0  0  0  0  0  0  0  0  0  0  0  0
   20.5340   43.2620   60.4110 C   0  0  0  0  0  0  0  0  0  0  0  0
   21.3610   42.4990   60.8940 O   0  0  0  0  0  0  0  0  0  0  0  0
   20.8870   44.2220   59.3330 C   0  0  0  0  0  0  0  0  0  0  0  0
   21.1250   45.5520   59.6840 C   0  0  0  0  0  0  0  0  0  0  0  0
   21.4500   46.4800   58.7000 C   0  0  0  0  0  0  0  0  0  0  0  0
   21.5320   46.0780   57.3630 C   0  0  0  0  0  0  0  0  0  0  0  0
   21.2870   44.7470   56.9720 C   0  0  0  0  0  0  0  0  0  0  0  0
   21.3620   44.3580   55.5450 C   0  0  0  0  0  0  0  0  0  0  0  0
   20.2430   44.1290   54.7610 C   0  0  0  0  0  0  0  0  0  0  0  0
   20.4400   43.7640   53.4370 C   0  0  0  0  0  0  0  0  0  0  0  0
   19.2870   43.5260   52.6470 N   0  0  0  0  0  0  0  0  0  0  0  0
   18.9130   42.3470   51.9660 C   0  0  0  0  0  0  0  0  0  0  0  0
   19.7960   41.6150   51.1680 C   0  0  0  0  0  0  0  0  0  0  0  0
   19.3980   40.4150   50.5670 C   0  0  0  0  0  0  0  0  0  0  0  0
   18.1150   39.9030   50.7690 C   0  0  0  0  0  0  0  0  0  0  0  0
   17.8660   38.7280   50.1230 O   0  0  0  0  0  0  0  0  0  0  0  0
   17.0150   38.7640   48.9910 C   0  0  0  0  0  0  0  0  0  0  0  0
   17.2340   37.6570   48.2470 F   0  0  0  0  0  0  0  0  0  0  0  0
   17.2710   39.8440   48.2200 F   0  0  0  0  0  0  0  0  0  0  0  0
   15.7150   38.7720   49.3570 F   0  0  0  0  0  0  0  0  0  0  0  0
   17.2380   40.6030   51.5930 C   0  0  0  0  0  0  0  0  0  0  0  0
   17.6400   41.8050   52.1930 C   0  0  0  0  0  0  0  0  0  0  0  0
   21.6720   43.6270   52.9290 N   0  0  0  0  0  0  0  0  0  0  0  0
   22.6970   43.8680   53.7550 C   0  0  0  0  0  0  0  0  0  0  0  0
   22.6050   44.2260   55.0410 N   0  0  0  0  0  0  0  0  0  0  0  0
   20.9560   43.8270   57.9860 C   0  0  0  0  0  0  0  0  0  0  0  0
   18.9950   42.4660   61.4440 H   0  0  0  0  0  0  0  0  0  0  0  0
   18.4860   43.5740   60.2260 H   0  0  0  0  0  0  0  0  0  0  0  0
   21.0557   45.8654   60.7361 H   0  0  0  0  0  0  0  0  0  0  0  0
   21.6422   47.5281   58.9730 H   0  0  0  0  0  0  0  0  0  0  0  0
   21.7949   46.8213   56.5959 H   0  0  0  0  0  0  0  0  0  0  0  0
   19.2294   44.2334   55.1755 H   0  0  0  0  0  0  0  0  0  0  0  0
   19.0750   44.3540   52.1010 H   0  0  0  0  0  0  0  0  0  0  0  0
   20.8190   41.9872   51.0097 H   0  0  0  0  0  0  0  0  0  0  0  0
   20.1058   39.8680   49.9268 H   0  0  0  0  0  0  0  0  0  0  0  0
   16.2260   40.2118   51.7741 H   0  0  0  0  0  0  0  0  0  0  0  0
   16.9408   42.3346   52.8568 H   0  0  0  0  0  0  0  0  0  0  0  0
   23.7093   43.7619   53.3379 H   0  0  0  0  0  0  0  0  0  0  0  0
   20.7478   42.7805   57.7187 H   0  0  0  0  0  0  0  0  0  0  0  0
  1  2  1  0
  2  3  2  0
  2  4  1  0
  4  5  2  0
  5  6  1  0
  6  7  2  0
  7  8  1  0
  8  9  1  0
  9 10  2  0
 10 11  1  0
 11 12  1  0
 12 13  1  0
 13 14  2  0
 14 15  1  0
 15 16  2  0
 16 17  1  0
 17 18  1  0
 18 19  1  0
 18 20  1  0
 18 21  1  0
 16 22  1  0
 22 23  2  0
 11 24  2  0
 24 25  1  0
 25 26  2  0
  8 27  2  0
 27  4  1  0
 26  9  1  0
 23 13  1  0
  1 28  1  0
  1 29  1  0
  5 30  1  0
  6 31  1  0
  7 32  1  0
 10 33  1  0
 12 34  1  0
 14 35  1  0
 15 36  1  0
 22 37  1  0
 23 38  1  0
 25 39  1  0
 27 40  1  0
M  END
>  <meeko>  (1) 
{"is_sidechain": [false], "free_energy": -9.891, "intermolecular_energy": -13.361, "internal_energy": -0.762}

$$$$
3k5v_ligand
     RDKit          3D

 40 42  0  0  0  0  0  0  0  0999 V2000
   27.9860   44.5450   52.5600 N   0  0  0  0  0  0  0  0  0  0  0  0
   26.6320   44.5840   52.3670 C   0  0  0  0  0  0  0  0  0  0  0  0
   26.1590   44.6030   51.2380 O   0  0  0  0  0  0  0  0  0  0  0  0
   25.7700   44.5490   53.5780 C   0  0  0  0  0  0  0  0  0  0  0  0
   26.3810   44.6690   54.8280 C   0  0  0  0  0  0  0  0  0  0  0  0
   25.6070   44.6330   55.9830 C   0  0  0  0  0  0  0  0  0  0  0  0
   24.2220   44.4710   55.8890 C   0  0  0  0  0  0  0  0  0  0  0  0
   23.5740   44.3350   54.6460 C   0  0  0  0  0  0  0  0  0  0  0  0
   22.1070   44.1440   54.5810 C   0  0  0  0  0  0  0  0  0  0  0  0
   21.4280   43.8640   53.4070 C   0  0  0  0  0  0  0  0  0  0  0  0
   20.0520   43.7110   53.4700 C   0  0  0  0  0  0  0  0  0  0  0  0
   19.3680   43.4320   52.2600 N   0  0  0  0  0  0  0  0  0  0  0  0
   18.8950   42.1910   51.7800 C   0  0  0  0  0  0  0  0  0  0  0  0
   17.5780   41.7590   51.9510 C   0  0  0  0  0  0  0  0  0  0  0  0
   17.1380   40.5510   51.3990 C   0  0  0  0  0  0  0  0  0  0  0  0
   17.9980   39.7540   50.6400 C   0  0  0  0  0  0  0  0  0  0  0  0
   17.4350   38.6060   50.1650 O   0  0  0  0  0  0  0  0  0  0  0  0
   16.8160   38.6520   48.8930 C   0  0  0  0  0  0  0  0  0  0  0  0
   15.4750   38.6830   49.0630 F   0  0  0  0  0  0  0  0  0  0  0  0
   17.1190   37.5580   48.1600 F   0  0  0  0  0  0  0  0  0  0  0  0
   17.1770   39.7610   48.2130 F   0  0  0  0  0  0  0  0  0  0  0  0
   19.3030   40.1910   50.4310 C   0  0  0  0  0  0  0  0  0  0  0  0
   19.7400   41.4020   50.9860 C   0  0  0  0  0  0  0  0  0  0  0  0
   19.3900   43.8390   54.6300 N   0  0  0  0  0  0  0  0  0  0  0  0
   20.1230   44.1090   55.7160 C   0  0  0  0  0  0  0  0  0  0  0  0
   21.4500   44.2700   55.7520 N   0  0  0  0  0  0  0  0  0  0  0  0
   24.3790   44.3710   53.4910 C   0  0  0  0  0  0  0  0  0  0  0  0
   28.5340   44.4210   51.7180 H   0  0  0  0  0  0  0  0  0  0  0  0
   28.3830   44.1890   53.4180 H   0  0  0  0  0  0  0  0  0  0  0  0
   27.4718   44.7917   54.8989 H   0  0  0  0  0  0  0  0  0  0  0  0
   26.0843   44.7319   56.9691 H   0  0  0  0  0  0  0  0  0  0  0  0
   23.6219   44.4491   56.8106 H   0  0  0  0  0  0  0  0  0  0  0  0
   21.9652   43.7659   52.4521 H   0  0  0  0  0  0  0  0  0  0  0  0
   19.7590   43.9950   51.5130 H   0  0  0  0  0  0  0  0  0  0  0  0
   16.8757   42.3780   52.5286 H   0  0  0  0  0  0  0  0  0  0  0  0
   16.1008   40.2245   51.5650 H   0  0  0  0  0  0  0  0  0  0  0  0
   19.9941   39.5838   49.8280 H   0  0  0  0  0  0  0  0  0  0  0  0
   20.7688   41.7410   50.7944 H   0  0  0  0  0  0  0  0  0  0  0  0
   19.5832   44.2079   56.6693 H   0  0  0  0  0  0  0  0  0  0  0  0
   23.9101   44.2577   52.5024 H   0  0  0  0  0  0  0  0  0  0  0  0
  1  2  1  0
  2  3  2  0
  2  4  1  0
  4  5  2  0
  5  6  1  0
  6  7  2  0
  7  8  1  0
  8  9  1  0
  9 10  2  0
 10 11  1  0
 11 12  1  0
 12 13  1  0
 13 14  2  0
 14 15  1  0
 15 16  2  0
 16 17  1  0
 17 18  1  0
 18 19  1  0
 18 20  1  0
 18 21  1  0
 16 22  1  0
 22 23  2  0
 11 24  2  0
 24 25  1  0
 25 26  2  0
  8 27  2  0
 27  4  1  0
 26  9  1  0
 23 13  1  0
  1 28  1  0
  1 29  1  0
  5 30  1  0
  6 31  1  0
  7 32  1  0
 10 33  1  0
 12 34  1  0
 14 35  1  0
 15 36  1  0
 22 37  1  0
 23 38  1  0
 25 39  1  0
 27 40  1  0
M  END
>  <meeko>  (2) 
{"is_sidechain": [false], "free_energy": -9.645, "intermolecular_energy": -12.831, "internal_energy": -0.959}

$$$$
3k5v_ligand
     RDKit          3D

 40 42  0  0  0  0  0  0  0  0999 V2000
   27.9460   44.5270   52.5850 N   0  0  0  0  0  0  0  0  0  0  0  0
   26.5920   44.5830   52.3930 C   0  0  0  0  0  0  0  0  0  0  0  0
   26.1200   44.6140   51.2640 O   0  0  0  0  0  0  0  0  0  0  0  0
   25.7310   44.5520   53.6040 C   0  0  0  0  0  0  0  0  0  0  0  0
   26.3410   44.6920   54.8530 C   0  0  0  0  0  0  0  0  0  0  0  0
   25.5670   44.6600   56.0080 C   0  0  0  0  0  0  0  0  0  0  0  0
   24.1840   44.4820   55.9150 C   0  0  0  0  0  0  0  0  0  0  0  0
   23.5370   44.3260   54.6740 C   0  0  0  0  0  0  0  0  0  0  0  0
   22.0720   44.1190   54.6110 C   0  0  0  0  0  0  0  0  0  0  0  0
   21.3830   43.9200   53.4260 C   0  0  0  0  0  0  0  0  0  0  0  0
   20.0100   43.7420   53.4940 C   0  0  0  0  0  0  0  0  0  0  0  0
   19.3150   43.5460   52.2730 N   0  0  0  0  0  0  0  0  0  0  0  0
   18.9020   42.3340   51.6790 C   0  0  0  0  0  0  0  0  0  0  0  0
   19.7580   41.5200   50.9320 C   0  0  0  0  0  0  0  0  0  0  0  0
   19.3220   40.2940   50.4180 C   0  0  0  0  0  0  0  0  0  0  0  0
   18.0250   39.8370   50.6590 C   0  0  0  0  0  0  0  0  0  0  0  0
   17.7370   38.6270   50.0980 O   0  0  0  0  0  0  0  0  0  0  0  0
   16.9280   38.6150   48.9350 C   0  0  0  0  0  0  0  0  0  0  0  0
   17.1780   39.7340   48.2200 F   0  0  0  0  0  0  0  0  0  0  0  0
   15.6150   38.6040   49.2510 F   0  0  0  0  0  0  0  0  0  0  0  0
   17.2110   37.5490   48.1550 F   0  0  0  0  0  0  0  0  0  0  0  0
   17.1720   40.6200   51.4330 C   0  0  0  0  0  0  0  0  0  0  0  0
   17.6140   41.8490   51.9460 C   0  0  0  0  0  0  0  0  0  0  0  0
   19.3610   43.7720   54.6660 N   0  0  0  0  0  0  0  0  0  0  0  0
   20.1020   43.9690   55.7620 C   0  0  0  0  0  0  0  0  0  0  0  0
   21.4280   44.1470   55.7950 N   0  0  0  0  0  0  0  0  0  0  0  0
   24.3420   44.3590   53.5180 C   0  0  0  0  0  0  0  0  0  0  0  0
   28.4920   44.4020   51.7410 H   0  0  0  0  0  0  0  0  0  0  0  0
   28.3390   44.1620   53.4400 H   0  0  0  0  0  0  0  0  0  0  0  0
   27.4304   44.8272   54.9227 H   0  0  0  0  0  0  0  0  0  0  0  0
   26.0426   44.7746   56.9932 H   0  0  0  0  0  0  0  0  0  0  0  0
   23.5841   44.4632   56.8368 H   0  0  0  0  0  0  0  0  0  0  0  0
   21.9094   43.9037   52.4603 H   0  0  0  0  0  0  0  0  0  0  0  0
   19.6560   44.2030   51.5800 H   0  0  0  0  0  0  0  0  0  0  0  0
   20.7910   41.8485   50.7452 H   0  0  0  0  0  0  0  0  0  0  0  0
   20.0101   39.6822   49.8161 H   0  0  0  0  0  0  0  0  0  0  0  0
   16.1491   40.2741   51.6427 H   0  0  0  0  0  0  0  0  0  0  0  0
   16.9342   42.4456   52.5721 H   0  0  0  0  0  0  0  0  0  0  0  0
   19.5722   43.9863   56.7259 H   0  0  0  0  0  0  0  0  0  0  0  0
   23.8745   44.2314   52.5305 H   0  0  0  0  0  0  0  0  0  0  0  0
  1  2  1  0
  2  3  2  0
  2  4  1  0
  4  5  2  0
  5  6  1  0
  6  7  2  0
  7  8  1  0
  8  9  1  0
  9 10  2  0
 10 11  1  0
 11 12  1  0
 12 13  1  0
 13 14  2  0
 14 15  1  0
 15 16  2  0
 16 17  1  0
 17 18  1  0
 18 19  1  0
 18 20  1  0
 18 21  1  0
 16 22  1  0
 22 23  2  0
 11 24  2  0
 24 25  1  0
 25 26  2  0
  8 27  2  0
 27  4  1  0
 26  9  1  0
 23 13  1  0
  1 28  1  0
  1 29  1  0
  5 30  1  0
  6 31  1  0
  7 32  1  0
 10 33  1  0
 12 34  1  0
 14 35  1  0
 15 36  1  0
 22 37  1  0
 23 38  1  0
 25 39  1  0
 27 40  1  0
M  END
>  <meeko>  (3) 
{"is_sidechain": [false], "free_energy": -9.583, "intermolecular_energy": -12.722, "internal_energy": -0.985}

$$$$
3k5v_ligand
     RDKit          3D

 40 42  0  0  0  0  0  0  0  0999 V2000
   28.4650   44.4210   55.5030 N   0  0  0  0  0  0  0  0  0  0  0  0
   27.1540   44.3780   55.8940 C   0  0  0  0  0  0  0  0  0  0  0  0
   26.8550   44.2900   57.0780 O   0  0  0  0  0  0  0  0  0  0  0  0
   26.1220   44.4940   54.8300 C   0  0  0  0  0  0  0  0  0  0  0  0
   26.5370   44.8300   53.5400 C   0  0  0  0  0  0  0  0  0  0  0  0
   25.5990   44.9540   52.5210 C   0  0  0  0  0  0  0  0  0  0  0  0
   24.2430   44.7490   52.7940 C   0  0  0  0  0  0  0  0  0  0  0  0
   23.7870   44.4200   54.0860 C   0  0  0  0  0  0  0  0  0  0  0  0
   22.3420   44.2280   54.3460 C   0  0  0  0  0  0  0  0  0  0  0  0
   21.4110   44.0210   53.3420 C   0  0  0  0  0  0  0  0  0  0  0  0
   20.0830   43.8600   53.7080 C   0  0  0  0  0  0  0  0  0  0  0  0
   19.1390   43.6560   52.6710 N   0  0  0  0  0  0  0  0  0  0  0  0
   18.8300   42.4630   51.9820 C   0  0  0  0  0  0  0  0  0  0  0  0
   19.7670   41.7560   51.2240 C   0  0  0  0  0  0  0  0  0  0  0  0
   19.4310   40.5420   50.6140 C   0  0  0  0  0  0  0  0  0  0  0  0
   18.1580   39.9900   50.7660 C   0  0  0  0  0  0  0  0  0  0  0  0
   17.9720   38.8050   50.1160 O   0  0  0  0  0  0  0  0  0  0  0  0
   17.0720   38.7870   49.0220 C   0  0  0  0  0  0  0  0  0  0  0  0
   17.2790   39.8910   48.2700 F   0  0  0  0  0  0  0  0  0  0  0  0
   15.7890   38.8010   49.4420 F   0  0  0  0  0  0  0  0  0  0  0  0
   17.2770   37.7040   48.2400 F   0  0  0  0  0  0  0  0  0  0  0  0
   17.2260   40.6660   51.5490 C   0  0  0  0  0  0  0  0  0  0  0  0
   17.5660   41.8820   52.1590 C   0  0  0  0  0  0  0  0  0  0  0  0
   19.7050   43.9120   54.9930 N   0  0  0  0  0  0  0  0  0  0  0  0
   20.6690   44.1150   55.8990 C   0  0  0  0  0  0  0  0  0  0  0  0
   21.9710   44.2780   55.6410 N   0  0  0  0  0  0  0  0  0  0  0  0
   24.7570   44.3020   55.1020 C   0  0  0  0  0  0  0  0  0  0  0  0
   29.1340   44.4890   56.2600 H   0  0  0  0  0  0  0  0  0  0  0  0
   28.7350   44.8290   54.6190 H   0  0  0  0  0  0  0  0  0  0  0  0
   27.6039   44.9963   53.3301 H   0  0  0  0  0  0  0  0  0  0  0  0
   25.9230   45.2128   51.5022 H   0  0  0  0  0  0  0  0  0  0  0  0
   23.5122   44.8473   51.9777 H   0  0  0  0  0  0  0  0  0  0  0  0
   21.7157   43.9853   52.2856 H   0  0  0  0  0  0  0  0  0  0  0  0
   19.1440   44.4550   52.0470 H   0  0  0  0  0  0  0  0  0  0  0  0
   20.7834   42.1594   51.1050 H   0  0  0  0  0  0  0  0  0  0  0  0
   20.1811   40.0152   50.0059 H   0  0  0  0  0  0  0  0  0  0  0  0
   16.2196   40.2448   51.6895 H   0  0  0  0  0  0  0  0  0  0  0  0
   16.8240   42.3920   52.7910 H   0  0  0  0  0  0  0  0  0  0  0  0
   20.3616   44.1511   56.9545 H   0  0  0  0  0  0  0  0  0  0  0  0
   24.4396   44.0552   56.1259 H   0  0  0  0  0  0  0  0  0  0  0  0
  1  2  1  0
  2  3  2  0
  2  4  1  0
  4  5  2  0
  5  6  1  0
  6  7  2  0
  7  8  1  0
  8  9  1  0
  9 10  2  0
 10 11  1  0
 11 12  1  0
 12 13  1  0
 13 14  2  0
 14 15  1  0
 15 16  2  0
 16 17  1  0
 17 18  1  0
 18 19  1  0
 18 20  1  0
 18 21  1  0
 16 22  1  0
 22 23  2  0
 11 24  2  0
 24 25  1  0
 25 26  2  0
  8 27  2  0
 27  4  1  0
 26  9  1  0
 23 13  1  0
  1 28  1  0
  1 29  1  0
  5 30  1  0
  6 31  1  0
  7 32  1  0
 10 33  1  0
 12 34  1  0
 14 35  1  0
 15 36  1  0
 22 37  1  0
 23 38  1  0
 25 39  1  0
 27 40  1  0
M  END
>  <meeko>  (4) 
{"is_sidechain": [false], "free_energy": -9.509, "intermolecular_energy": -12.706, "internal_energy": -0.901}

$$$$
3k5v_ligand
     RDKit          3D

 40 42  0  0  0  0  0  0  0  0999 V2000
   26.4660   44.9810   49.5860 N   0  0  0  0  0  0  0  0  0  0  0  0
   25.8510   45.8240   50.4720 C   0  0  0  0  0  0  0  0  0  0  0  0
   25.5380   46.9610   50.1420 O   0  0  0  0  0  0  0  0  0  0  0  0
   25.5380   45.2830   51.8210 C   0  0  0  0  0  0  0  0  0  0  0  0
   26.6000   45.0090   52.6850 C   0  0  0  0  0  0  0  0  0  0  0  0
   26.3450   44.4950   53.9530 C   0  0  0  0  0  0  0  0  0  0  0  0
   25.0280   44.2490   54.3530 C   0  0  0  0  0  0  0  0  0  0  0  0
   23.9340   44.5030   53.5030 C   0  0  0  0  0  0  0  0  0  0  0  0
   22.5530   44.2130   53.9500 C   0  0  0  0  0  0  0  0  0  0  0  0
   21.5160   43.9290   53.0770 C   0  0  0  0  0  0  0  0  0  0  0  0
   20.2620   43.6790   53.6140 C   0  0  0  0  0  0  0  0  0  0  0  0
   19.2080   43.3960   52.7100 N   0  0  0  0  0  0  0  0  0  0  0  0
   18.8880   42.1720   52.0830 C   0  0  0  0  0  0  0  0  0  0  0  0
   17.6480   41.5430   52.2270 C   0  0  0  0  0  0  0  0  0  0  0  0
   17.3530   40.3640   51.5330 C   0  0  0  0  0  0  0  0  0  0  0  0
   18.2800   39.7970   50.6570 C   0  0  0  0  0  0  0  0  0  0  0  0
   17.8590   38.6500   50.0500 O   0  0  0  0  0  0  0  0  0  0  0  0
   17.0190   38.7740   48.9160 C   0  0  0  0  0  0  0  0  0  0  0  0
   17.1880   37.6880   48.1290 F   0  0  0  0  0  0  0  0  0  0  0  0
   17.3340   39.8700   48.1900 F   0  0  0  0  0  0  0  0  0  0  0  0
   15.7190   38.8320   49.2750 F   0  0  0  0  0  0  0  0  0  0  0  0
   19.5050   40.4340   50.4750 C   0  0  0  0  0  0  0  0  0  0  0  0
   19.7970   41.6150   51.1730 C   0  0  0  0  0  0  0  0  0  0  0  0
   20.0520   43.7190   54.9370 N   0  0  0  0  0  0  0  0  0  0  0  0
   21.1080   44.0010   55.7090 C   0  0  0  0  0  0  0  0  0  0  0  0
   22.3510   44.2530   55.2820 N   0  0  0  0  0  0  0  0  0  0  0  0
   24.2180   45.0210   52.2240 C   0  0  0  0  0  0  0  0  0  0  0  0
   26.5300   45.3320   48.6370 H   0  0  0  0  0  0  0  0  0  0  0  0
   26.4210   43.9790   49.6990 H   0  0  0  0  0  0  0  0  0  0  0  0
   27.6350   45.1988   52.3645 H   0  0  0  0  0  0  0  0  0  0  0  0
   27.1781   44.2827   54.6392 H   0  0  0  0  0  0  0  0  0  0  0  0
   24.8411   43.8460   55.3593 H   0  0  0  0  0  0  0  0  0  0  0  0
   21.6821   43.9025   51.9899 H   0  0  0  0  0  0  0  0  0  0  0  0
   19.0840   44.1800   52.0790 H   0  0  0  0  0  0  0  0  0  0  0  0
   16.8927   41.9813   52.8959 H   0  0  0  0  0  0  0  0  0  0  0  0
   16.3774   39.8776   51.6799 H   0  0  0  0  0  0  0  0  0  0  0  0
   20.2460   40.0095   49.7816 H   0  0  0  0  0  0  0  0  0  0  0  0
   20.7615   42.1156   51.0023 H   0  0  0  0  0  0  0  0  0  0  0  0
   20.9386   44.0282   56.7955 H   0  0  0  0  0  0  0  0  0  0  0  0
   23.3908   45.2241   51.5280 H   0  0  0  0  0  0  0  0  0  0  0  0
  1  2  1  0
  2  3  2  0
  2  4  1  0
  4  5  2  0
  5  6  1  0
  6  7  2  0
  7  8  1  0
  8  9  1  0
  9 10  2  0
 10 11  1  0
 11 12  1  0
 12 13  1  0
 13 14  2  0
 14 15  1  0
 15 16  2  0
 16 17  1  0
 17 18  1  0
 18 19  1  0
 18 20  1  0
 18 21  1  0
 16 22  1  0
 22 23  2  0
 11 24  2  0
 24 25  1  0
 25 26  2  0
  8 27  2  0
 27  4  1  0
 26  9  1  0
 23 13  1  0
  1 28  1  0
  1 29  1  0
  5 30  1  0
  6 31  1  0
  7 32  1  0
 10 33  1  0
 12 34  1  0
 14 35  1  0
 15 36  1  0
 22 37  1  0
 23 38  1  0
 25 39  1  0
 27 40  1  0
M  END
>  <meeko>  (5) 
{"is_sidechain": [false], "free_energy": -9.479, "intermolecular_energy": -12.71, "internal_energy": -0.857}

$$$$
3k5v_ligand
     RDKit          3D

 40 42  0  0  0  0  0  0  0  0999 V2000
   22.3850   47.5030   61.0410 N   0  0  0  0  0  0  0  0  0  0  0  0
   22.4610   47.3620   59.6820 C   0  0  0  0  0  0  0  0  0  0  0  0
   23.0370   48.1970   58.9970 O   0  0  0  0  0  0  0  0  0  0  0  0
   21.8650   46.1360   59.0900 C   0  0  0  0  0  0  0  0  0  0  0  0
   21.2130   45.2410   59.9400 C   0  0  0  0  0  0  0  0  0  0  0  0
   20.6500   44.0790   59.4220 C   0  0  0  0  0  0  0  0  0  0  0  0
   20.7450   43.8100   58.0540 C   0  0  0  0  0  0  0  0  0  0  0  0
   21.4050   44.6840   57.1690 C   0  0  0  0  0  0  0  0  0  0  0  0
   21.5050   44.3600   55.7270 C   0  0  0  0  0  0  0  0  0  0  0  0
   20.4010   44.1320   54.9220 C   0  0  0  0  0  0  0  0  0  0  0  0
   20.6200   43.8300   53.5870 C   0  0  0  0  0  0  0  0  0  0  0  0
   19.4830   43.5930   52.7740 N   0  0  0  0  0  0  0  0  0  0  0  0
   19.1480   42.4320   52.0430 C   0  0  0  0  0  0  0  0  0  0  0  0
   20.0380   41.7950   51.1740 C   0  0  0  0  0  0  0  0  0  0  0  0
   19.6840   40.6090   50.5220 C   0  0  0  0  0  0  0  0  0  0  0  0
   18.4400   40.0140   50.7420 C   0  0  0  0  0  0  0  0  0  0  0  0
   18.2300   38.8630   50.0400 O   0  0  0  0  0  0  0  0  0  0  0  0
   17.1580   38.8390   49.1150 C   0  0  0  0  0  0  0  0  0  0  0  0
   15.9930   38.8550   49.8000 F   0  0  0  0  0  0  0  0  0  0  0  0
   17.1850   37.7180   48.3620 F   0  0  0  0  0  0  0  0  0  0  0  0
   17.1850   39.9220   48.3090 F   0  0  0  0  0  0  0  0  0  0  0  0
   17.5580   40.6180   51.6340 C   0  0  0  0  0  0  0  0  0  0  0  0
   17.9160   41.8070   52.2850 C   0  0  0  0  0  0  0  0  0  0  0  0
   21.8620   43.7500   53.0870 N   0  0  0  0  0  0  0  0  0  0  0  0
   22.8710   43.9840   53.9330 C   0  0  0  0  0  0  0  0  0  0  0  0
   22.7560   44.2840   55.2320 N   0  0  0  0  0  0  0  0  0  0  0  0
   21.9690   45.8520   57.7180 C   0  0  0  0  0  0  0  0  0  0  0  0
   22.9260   48.2690   61.4230 H   0  0  0  0  0  0  0  0  0  0  0  0
   22.2390   46.7050   61.6430 H   0  0  0  0  0  0  0  0  0  0  0  0
   21.1445   45.4540   61.0170 H   0  0  0  0  0  0  0  0  0  0  0  0
   20.1312   43.3736   60.0878 H   0  0  0  0  0  0  0  0  0  0  0  0
   20.2915   42.8897   57.6574 H   0  0  0  0  0  0  0  0  0  0  0  0
   19.3810   44.1889   55.3300 H   0  0  0  0  0  0  0  0  0  0  0  0
   19.2540   44.4360   52.2590 H   0  0  0  0  0  0  0  0  0  0  0  0
   21.0320   42.2328   51.0000 H   0  0  0  0  0  0  0  0  0  0  0  0
   20.3951   40.1389   49.8268 H   0  0  0  0  0  0  0  0  0  0  0  0
   16.5767   40.1607   51.8287 H   0  0  0  0  0  0  0  0  0  0  0  0
   17.2149   42.2598   53.0016 H   0  0  0  0  0  0  0  0  0  0  0  0
   23.8900   43.9243   53.5230 H   0  0  0  0  0  0  0  0  0  0  0  0
   22.5009   46.5551   57.0602 H   0  0  0  0  0  0  0  0  0  0  0  0
  1  2  1  0
  2  3  2  0
  2  4  1  0
  4  5  2  0
  5  6  1  0
  6  7  2  0
  7  8  1  0
  8  9  1  0
  9 10  2  0
 10 11  1  0
 11 12  1  0
 12 13  1  0
 13 14  2  0
 14 15  1  0
 15 16  2  0
 16 17  1  0
 17 18  1  0
 18 19  1  0
 18 20  1  0
 18 21  1  0
 16 22  1  0
 22 23  2  0
 11 24  2  0
 24 25  1  0
 25 26  2  0
  8 27  2  0
 27  4  1  0
 26  9  1  0
 23 13  1  0
  1 28  1  0
  1 29  1  0
  5 30  1  0
  6 31  1  0
  7 32  1  0
 10 33  1  0
 12 34  1  0
 14 35  1  0
 15 36  1  0
 22 37  1  0
 23 38  1  0
 25 39  1  0
 27 40  1  0
M  END
>  <meeko>  (6) 
{"is_sidechain": [false], "free_energy": -9.218, "intermolecular_energy": -12.525, "internal_energy": -0.689}

$$$$
3k5v_ligand
     RDKit          3D

 40 42  0  0  0  0  0  0  0  0999 V2000
   26.7180   44.9810   49.4850 N   0  0  0  0  0  0  0  0  0  0  0  0
   25.9460   45.6440   50.4010 C   0  0  0  0  0  0  0  0  0  0  0  0
   25.2210   46.5690   50.0580 O   0  0  0  0  0  0  0  0  0  0  0  0
   25.9890   45.1590   51.8060 C   0  0  0  0  0  0  0  0  0  0  0  0
   27.2080   44.7000   52.3090 C   0  0  0  0  0  0  0  0  0  0  0  0
   27.2840   44.2330   53.6170 C   0  0  0  0  0  0  0  0  0  0  0  0
   26.1390   44.2180   54.4190 C   0  0  0  0  0  0  0  0  0  0  0  0
   24.8910   44.6620   53.9400 C   0  0  0  0  0  0  0  0  0  0  0  0
   23.6930   44.6140   54.8100 C   0  0  0  0  0  0  0  0  0  0  0  0
   22.4020   44.5190   54.3180 C   0  0  0  0  0  0  0  0  0  0  0  0
   21.3590   44.4880   55.2310 C   0  0  0  0  0  0  0  0  0  0  0  0
   20.0410   44.3970   54.7150 N   0  0  0  0  0  0  0  0  0  0  0  0
   19.5320   43.5040   53.7470 C   0  0  0  0  0  0  0  0  0  0  0  0
   18.1900   43.1190   53.6960 C   0  0  0  0  0  0  0  0  0  0  0  0
   17.7190   42.2830   52.6770 C   0  0  0  0  0  0  0  0  0  0  0  0
   18.5710   41.8330   51.6670 C   0  0  0  0  0  0  0  0  0  0  0  0
   17.9760   41.0270   50.7410 O   0  0  0  0  0  0  0  0  0  0  0  0
   17.9040   39.6400   51.0220 C   0  0  0  0  0  0  0  0  0  0  0  0
   18.5160   38.9630   50.0250 F   0  0  0  0  0  0  0  0  0  0  0  0
   16.6220   39.2200   51.0880 F   0  0  0  0  0  0  0  0  0  0  0  0
   18.5340   39.3430   52.1790 F   0  0  0  0  0  0  0  0  0  0  0  0
   19.9030   42.2400   51.6850 C   0  0  0  0  0  0  0  0  0  0  0  0
   20.3710   43.0770   52.7080 C   0  0  0  0  0  0  0  0  0  0  0  0
   21.5860   44.5570   56.5500 N   0  0  0  0  0  0  0  0  0  0  0  0
   22.8630   44.6470   56.9390 C   0  0  0  0  0  0  0  0  0  0  0  0
   23.9310   44.6810   56.1350 N   0  0  0  0  0  0  0  0  0  0  0  0
   24.8390   45.1280   52.6120 C   0  0  0  0  0  0  0  0  0  0  0  0
   26.5530   45.2410   48.5200 H   0  0  0  0  0  0  0  0  0  0  0  0
   27.0390   44.0390   49.6550 H   0  0  0  0  0  0  0  0  0  0  0  0
   28.1054   44.7077   51.6729 H   0  0  0  0  0  0  0  0  0  0  0  0
   28.2434   43.8761   54.0197 H   0  0  0  0  0  0  0  0  0  0  0  0
   26.2148   43.8493   55.4526 H   0  0  0  0  0  0  0  0  0  0  0  0
   22.2099   44.4697   53.2360 H   0  0  0  0  0  0  0  0  0  0  0  0
   19.6580   45.3290   54.5990 H   0  0  0  0  0  0  0  0  0  0  0  0
   17.4934   43.4781   54.4679 H   0  0  0  0  0  0  0  0  0  0  0  0
   16.6626   41.9763   52.6720 H   0  0  0  0  0  0  0  0  0  0  0  0
   20.5898   41.9038   50.8943 H   0  0  0  0  0  0  0  0  0  0  0  0
   21.4205   43.4062   52.6951 H   0  0  0  0  0  0  0  0  0  0  0  0
   23.0520   44.6978   58.0214 H   0  0  0  0  0  0  0  0  0  0  0  0
   23.8803   45.4740   52.1984 H   0  0  0  0  0  0  0  0  0  0  0  0
  1  2  1  0
  2  3  2  0
  2  4  1  0
  4  5  2  0
  5  6  1  0
  6  7  2  0
  7  8  1  0
  8  9  1  0
  9 10  2  0
 10 11  1  0
 11 12  1  0
 12 13  1  0
 13 14  2  0
 14 15  1  0
 15 16  2  0
 16 17  1  0
 17 18  1  0
 18 19  1  0
 18 20  1  0
 18 21  1  0
 16 22  1  0
 22 23  2  0
 11 24  2  0
 24 25  1  0
 25 26  2  0
  8 27  2  0
 27  4  1  0
 26  9  1  0
 23 13  1  0
  1 28  1  0
  1 29  1  0
  5 30  1  0
  6 31  1  0
  7 32  1  0
 10 33  1  0
 12 34  1  0
 14 35  1  0
 15 36  1  0
 22 37  1  0
 23 38  1  0
 25 39  1  0
 27 40  1  0
M  END
>  <meeko>  (7) 
{"is_sidechain": [false], "free_energy": -8.846, "intermolecular_energy": -12.229, "internal_energy": -0.481}

$$$$
3k5v_ligand
     RDKit          3D

 40 42  0  0  0  0  0  0  0  0999 V2000
   17.9020   43.6660   59.2810 N   0  0  0  0  0  0  0  0  0  0  0  0
   19.0590   43.6950   60.0120 C   0  0  0  0  0  0  0  0  0  0  0  0
   19.1570   43.0640   61.0570 O   0  0  0  0  0  0  0  0  0  0  0  0
   20.1960   44.4760   59.4570 C   0  0  0  0  0  0  0  0  0  0  0  0
   20.6760   45.5590   60.1970 C   0  0  0  0  0  0  0  0  0  0  0  0
   21.7340   46.3170   59.7050 C   0  0  0  0  0  0  0  0  0  0  0  0
   22.3060   45.9970   58.4710 C   0  0  0  0  0  0  0  0  0  0  0  0
   21.8390   44.9190   57.6930 C   0  0  0  0  0  0  0  0  0  0  0  0
   22.4540   44.6190   56.3800 C   0  0  0  0  0  0  0  0  0  0  0  0
   21.7200   44.4550   55.2170 C   0  0  0  0  0  0  0  0  0  0  0  0
   22.4080   44.1700   54.0470 C   0  0  0  0  0  0  0  0  0  0  0  0
   21.6440   43.9980   52.8650 N   0  0  0  0  0  0  0  0  0  0  0  0
   20.4720   43.2340   52.6750 C   0  0  0  0  0  0  0  0  0  0  0  0
   19.3040   43.4340   53.4160 C   0  0  0  0  0  0  0  0  0  0  0  0
   18.1450   42.6970   53.1460 C   0  0  0  0  0  0  0  0  0  0  0  0
   18.1160   41.7590   52.1130 C   0  0  0  0  0  0  0  0  0  0  0  0
   16.9220   41.1160   51.9640 O   0  0  0  0  0  0  0  0  0  0  0  0
   16.9490   39.7220   51.7170 C   0  0  0  0  0  0  0  0  0  0  0  0
   15.7960   39.1780   52.1670 F   0  0  0  0  0  0  0  0  0  0  0  0
   17.9740   39.1290   52.3680 F   0  0  0  0  0  0  0  0  0  0  0  0
   17.0470   39.4620   50.3950 F   0  0  0  0  0  0  0  0  0  0  0  0
   19.2620   41.5770   51.3430 C   0  0  0  0  0  0  0  0  0  0  0  0
   20.4210   42.3170   51.6160 C   0  0  0  0  0  0  0  0  0  0  0  0
   23.7420   44.0460   54.0380 N   0  0  0  0  0  0  0  0  0  0  0  0
   24.3740   44.2200   55.2040 C   0  0  0  0  0  0  0  0  0  0  0  0
   23.7970   44.4990   56.3790 N   0  0  0  0  0  0  0  0  0  0  0  0
   20.7650   44.1680   58.2100 C   0  0  0  0  0  0  0  0  0  0  0  0
   17.2050   43.0090   59.6110 H   0  0  0  0  0  0  0  0  0  0  0  0
   17.9020   43.8710   58.2920 H   0  0  0  0  0  0  0  0  0  0  0  0
   20.2193   45.8117   61.1652 H   0  0  0  0  0  0  0  0  0  0  0  0
   22.1197   47.1672   60.2868 H   0  0  0  0  0  0  0  0  0  0  0  0
   23.1440   46.6033   58.0966 H   0  0  0  0  0  0  0  0  0  0  0  0
   20.6239   44.5480   55.2212 H   0  0  0  0  0  0  0  0  0  0  0  0
   22.2670   43.9270   52.0680 H   0  0  0  0  0  0  0  0  0  0  0  0
   19.2954   44.1814   54.2231 H   0  0  0  0  0  0  0  0  0  0  0  0
   17.2445   42.8594   53.7565 H   0  0  0  0  0  0  0  0  0  0  0  0
   19.2578   40.8499   50.5175 H   0  0  0  0  0  0  0  0  0  0  0  0
   21.3106   42.1748   50.9848 H   0  0  0  0  0  0  0  0  0  0  0  0
   25.4699   44.1250   55.1965 H   0  0  0  0  0  0  0  0  0  0  0  0
   20.3648   43.3255   57.6269 H   0  0  0  0  0  0  0  0  0  0  0  0
  1  2  1  0
  2  3  2  0
  2  4  1  0
  4  5  2  0
  5  6  1  0
  6  7  2  0
  7  8  1  0
  8  9  1  0
  9 10  2  0
 10 11  1  0
 11 12  1  0
 12 13  1  0
 13 14  2  0
 14 15  1  0
 15 16  2  0
 16 17  1  0
 17 18  1  0
 18 19  1  0
 18 20  1  0
 18 21  1  0
 16 22  1  0
 22 23  2  0
 11 24  2  0
 24 25  1  0
 25 26  2  0
  8 27  2  0
 27  4  1  0
 26  9  1  0
 23 13  1  0
  1 28  1  0
  1 29  1  0
  5 30  1  0
  6 31  1  0
  7 32  1  0
 10 33  1  0
 12 34  1  0
 14 35  1  0
 15 36  1  0
 22 37  1  0
 23 38  1  0
 25 39  1  0
 27 40  1  0
M  END
>  <meeko>  (8) 
{"is_sidechain": [false], "free_energy": -8.686, "intermolecular_energy": -11.943, "internal_energy": -0.552}

$$$$
3k5v_ligand
     RDKit          3D

 40 42  0  0  0  0  0  0  0  0999 V2000
   28.4640   44.5630   59.4590 N   0  0  0  0  0  0  0  0  0  0  0  0
   27.1660   44.9810   59.3430 C   0  0  0  0  0  0  0  0  0  0  0  0
   26.5730   45.4580   60.3020 O   0  0  0  0  0  0  0  0  0  0  0  0
   26.5350   44.8790   58.0010 C   0  0  0  0  0  0  0  0  0  0  0  0
   27.3590   44.9520   56.8760 C   0  0  0  0  0  0  0  0  0  0  0  0
   26.8020   44.8670   55.6040 C   0  0  0  0  0  0  0  0  0  0  0  0
   25.4200   44.7160   55.4570 C   0  0  0  0  0  0  0  0  0  0  0  0
   24.5580   44.6500   56.5690 C   0  0  0  0  0  0  0  0  0  0  0  0
   23.0960   44.5100   56.3790 C   0  0  0  0  0  0  0  0  0  0  0  0
   22.4760   44.6330   55.1460 C   0  0  0  0  0  0  0  0  0  0  0  0
   21.0980   44.4860   55.0930 C   0  0  0  0  0  0  0  0  0  0  0  0
   20.4740   44.6210   53.8280 N   0  0  0  0  0  0  0  0  0  0  0  0
   19.8030   43.6400   53.0660 C   0  0  0  0  0  0  0  0  0  0  0  0
   20.4280   42.8950   52.0630 C   0  0  0  0  0  0  0  0  0  0  0  0
   19.7400   41.8850   51.3800 C   0  0  0  0  0  0  0  0  0  0  0  0
   18.4160   41.5780   51.7000 C   0  0  0  0  0  0  0  0  0  0  0  0
   17.8720   40.5730   50.9540 O   0  0  0  0  0  0  0  0  0  0  0  0
   17.7640   39.2930   51.5500 C   0  0  0  0  0  0  0  0  0  0  0  0
   18.0510   38.3560   50.6190 F   0  0  0  0  0  0  0  0  0  0  0  0
   16.5110   39.0650   52.0010 F   0  0  0  0  0  0  0  0  0  0  0  0
   18.6410   39.1530   52.5670 F   0  0  0  0  0  0  0  0  0  0  0  0
   17.7930   42.2870   52.7230 C   0  0  0  0  0  0  0  0  0  0  0  0
   18.4860   43.2980   53.4050 C   0  0  0  0  0  0  0  0  0  0  0  0
   20.3820   44.2420   56.2000 N   0  0  0  0  0  0  0  0  0  0  0  0
   21.0600   44.1380   57.3480 C   0  0  0  0  0  0  0  0  0  0  0  0
   22.3840   44.2610   57.4960 N   0  0  0  0  0  0  0  0  0  0  0  0
   25.1450   44.7410   57.8470 C   0  0  0  0  0  0  0  0  0  0  0  0
   28.9060   44.7830   60.3430 H   0  0  0  0  0  0  0  0  0  0  0  0
   29.0680   44.4980   58.6520 H   0  0  0  0  0  0  0  0  0  0  0  0
   28.4454   45.0764   56.9952 H   0  0  0  0  0  0  0  0  0  0  0  0
   27.4481   44.9185   54.7152 H   0  0  0  0  0  0  0  0  0  0  0  0
   24.9941   44.6468   54.4452 H   0  0  0  0  0  0  0  0  0  0  0  0
   23.0591   44.8409   54.2367 H   0  0  0  0  0  0  0  0  0  0  0  0
   21.0310   45.2320   53.2400 H   0  0  0  0  0  0  0  0  0  0  0  0
   21.4767   43.1052   51.8060 H   0  0  0  0  0  0  0  0  0  0  0  0
   20.2490   41.3261   50.5810 H   0  0  0  0  0  0  0  0  0  0  0  0
   16.7537   42.0537   52.9976 H   0  0  0  0  0  0  0  0  0  0  0  0
   17.9851   43.8346   54.2242 H   0  0  0  0  0  0  0  0  0  0  0  0
   20.4741   43.9320   58.2559 H   0  0  0  0  0  0  0  0  0  0  0  0
   24.5037   44.7033   58.7399 H   0  0  0  0  0  0  0  0  0  0  0  0
  1  2  1  0
  2  3  2  0
  2  4  1  0
  4  5  2  0
  5  6  1  0
  6  7  2  0
  7  8  1  0
  8  9  1  0
  9 10  2  0
 10 11  1  0
 11 12  1  0
 12 13  1  0
 13 14  2  0
 14 15  1  0
 15 16  2  0
 16 17  1  0
 17 18  1  0
 18 19  1  0
 18 20  1  0
 18 21  1  0
 16 22  1  0
 22 23  2  0
 11 24  2  0
 24 25  1  0
 25 26  2  0
  8 27  2  0
 27  4  1  0
 26  9  1  0
 23 13  1  0
  1 28  1  0
  1 29  1  0
  5 30  1  0
  6 31  1  0
  7 32  1  0
 10 33  1  0
 12 34  1  0
 14 35  1  0
 15 36  1  0
 22 37  1  0
 23 38  1  0
 25 39  1  0
 27 40  1  0
M  END
>  <meeko>  (9) 
{"is_sidechain": [false], "free_energy": -8.078, "intermolecular_energy": -10.721, "internal_energy": -0.952}

$$$$
