4agn_ligand
     RDKit          3D

 52 53  0  0  0  0  0  0  0  0999 V2000
   93.9900  103.0060  -42.5910 C   0  0  0  0  0  0  0  0  0  0  0  0
   93.0960  102.0440  -43.3570 C   0  0  0  0  0  0  0  0  0  0  0  0
   92.3950  101.0990  -42.3960 N   0  0  0  0  0  0  0  0  0  0  0  0
   91.4040  101.8220  -41.4900 C   0  0  0  0  0  0  0  0  0  0  0  0
   91.7170  101.5320  -40.0320 C   0  0  0  0  0  0  0  0  0  0  0  0
   91.7770   99.8570  -43.0570 C   0  0  0  0  0  0  0  0  0  0  0  0
   90.2740   99.9920  -43.2990 C   0  0  0  0  0  0  0  0  0  0  0  0
   89.7180   98.6730  -43.8580 C   0  0  0  0  0  0  0  0  0  0  0  0
   90.7690   97.8430  -44.4640 N   0  0  0  0  0  0  0  0  0  0  0  0
   90.1700   96.7300  -45.2340 C   0  0  0  0  0  0  0  0  0  0  0  0
   90.7990   95.3930  -44.9010 C   0  0  0  0  0  0  0  0  0  0  0  0
   90.8930   94.4030  -45.8960 C   0  0  0  0  0  0  0  0  0  0  0  0
   91.4640   93.1580  -45.6230 C   0  0  0  0  0  0  0  0  0  0  0  0
   91.5150   92.1640  -46.6490 C   0  0  0  0  0  0  0  0  0  0  0  0
   91.5380   91.3380  -47.5220 C   0  0  0  0  0  0  0  0  0  0  0  0
   91.5730   90.3280  -48.5760 C   0  0  0  0  0  0  0  0  0  0  0  0
   92.4910   89.3050  -48.2150 O   0  0  0  0  0  0  0  0  0  0  0  0
   91.9720   92.8870  -44.3530 C   0  0  0  0  0  0  0  0  0  0  0  0
   91.9010   93.8660  -43.3590 C   0  0  0  0  0  0  0  0  0  0  0  0
   92.6740   93.4210  -41.4680 I   0  0  0  0  0  0  0  0  0  0  0  0
   91.3190   95.1110  -43.6310 C   0  0  0  0  0  0  0  0  0  0  0  0
   91.2350   96.0830  -42.6700 O   0  0  0  0  0  0  0  0  0  0  0  0
   91.6830   98.6430  -45.2810 C   0  0  0  0  0  0  0  0  0  0  0  0
   92.5280   99.5280  -44.3560 C   0  0  0  0  0  0  0  0  0  0  0  0
   93.8499  102.8552  -41.5104 H   0  0  0  0  0  0  0  0  0  0  0  0
   95.0414  102.8180  -42.8542 H   0  0  0  0  0  0  0  0  0  0  0  0
   93.7255  104.0408  -42.8542 H   0  0  0  0  0  0  0  0  0  0  0  0
   92.3425  102.6167  -43.9175 H   0  0  0  0  0  0  0  0  0  0  0  0
   93.7143  101.4557  -44.0510 H   0  0  0  0  0  0  0  0  0  0  0  0
   93.1280  100.7310  -41.7760 H   0  0  0  0  0  0  0  0  0  0  0  0
   91.4729  102.9053  -41.6678 H   0  0  0  0  0  0  0  0  0  0  0  0
   90.3873  101.4679  -41.7158 H   0  0  0  0  0  0  0  0  0  0  0  0
   91.0624  102.1385  -39.3888 H   0  0  0  0  0  0  0  0  0  0  0  0
   91.5472  100.4649  -39.8257 H   0  0  0  0  0  0  0  0  0  0  0  0
   92.7680  101.7826  -39.8257 H   0  0  0  0  0  0  0  0  0  0  0  0
   91.8904   99.0196  -42.3528 H   0  0  0  0  0  0  0  0  0  0  0  0
   89.7707  100.2277  -42.3497 H   0  0  0  0  0  0  0  0  0  0  0  0
   90.0932  100.7994  -44.0239 H   0  0  0  0  0  0  0  0  0  0  0  0
   89.2498   98.1094  -43.0376 H   0  0  0  0  0  0  0  0  0  0  0  0
   88.9862   98.9188  -44.6417 H   0  0  0  0  0  0  0  0  0  0  0  0
   89.0950   96.6812  -45.0060 H   0  0  0  0  0  0  0  0  0  0  0  0
   90.3472   96.9273  -46.3015 H   0  0  0  0  0  0  0  0  0  0  0  0
   90.5104   94.6129  -46.9057 H   0  0  0  0  0  0  0  0  0  0  0  0
   90.5702   89.8940  -48.7027 H   0  0  0  0  0  0  0  0  0  0  0  0
   91.8911   90.7922  -49.5212 H   0  0  0  0  0  0  0  0  0  0  0  0
   92.0300   88.4630  -48.3640 H   0  0  0  0  0  0  0  0  0  0  0  0
   92.4256   91.9088  -44.1353 H   0  0  0  0  0  0  0  0  0  0  0  0
   90.9700   96.9110  -43.1120 H   0  0  0  0  0  0  0  0  0  0  0  0
   92.3414   97.9773  -45.8584 H   0  0  0  0  0  0  0  0  0  0  0  0
   91.1085   99.2718  -45.9771 H   0  0  0  0  0  0  0  0  0  0  0  0
   93.4596   98.9987  -44.1068 H   0  0  0  0  0  0  0  0  0  0  0  0
   92.7435  100.4708  -44.8801 H   0  0  0  0  0  0  0  0  0  0  0  0
  1  2  1  0
  2  3  1  0
  3  4  1  0
  4  5  1  0
  3  6  1  0
  6  7  1  0
  7  8  1  0
  8  9  1  0
  9 10  1  0
 10 11  1  0
 11 12  2  0
 12 13  1  0
 13 14  1  0
 14 15  3  0
 15 16  1  0
 16 17  1  0
 13 18  2  0
 18 19  1  0
 19 20  1  0
 19 21  2  0
 21 22  1  0
  9 23  1  0
 23 24  1  0
 24  6  1  0
 21 11  1  0
  1 25  1  0
  1 26  1  0
  1 27  1  0
  2 28  1  0
  2 29  1  0
  3 30  1  0
  4 31  1  0
  4 32  1  0
  5 33  1  0
  5 34  1  0
  5 35  1  0
  6 36  1  0
  7 37  1  0
  7 38  1  0
  8 39  1  0
  8 40  1  0
 10 41  1  0
 10 42  1  0
 12 43  1  0
 16 44  1  0
 16 45  1  0
 17 46  1  0
 18 47  1  0
 22 48  1  0
 23 49  1  0
 23 50  1  0
 24 51  1  0
 24 52  1  0
M  CHG  1   3   1
M  END
>  <meeko>  (1) 
{"is_sidechain": [false], "free_energy": -7.159, "intermolecular_energy": -10.089, "internal_energy": -0.591}

$$$$
4agn_ligand
     RDKit          3D

 52 53  0  0  0  0  0  0  0  0999 V2000
   85.1410  101.7550  -43.2990 C   0  0  0  0  0  0  0  0  0  0  0  0
   86.2030  100.8550  -42.6870 C   0  0  0  0  0  0  0  0  0  0  0  0
   85.9710   99.4120  -43.1000 N   0  0  0  0  0  0  0  0  0  0  0  0
   84.7190   99.2460  -43.9540 C   0  0  0  0  0  0  0  0  0  0  0  0
   83.8120   98.1850  -43.3560 C   0  0  0  0  0  0  0  0  0  0  0  0
   87.1940   98.7210  -43.7220 C   0  0  0  0  0  0  0  0  0  0  0  0
   87.0510   98.4900  -45.2260 C   0  0  0  0  0  0  0  0  0  0  0  0
   88.2620   97.6990  -45.7470 C   0  0  0  0  0  0  0  0  0  0  0  0
   89.4180   97.8010  -44.8450 N   0  0  0  0  0  0  0  0  0  0  0  0
   90.6360   97.2760  -45.5030 C   0  0  0  0  0  0  0  0  0  0  0  0
   90.9880   95.8800  -45.0350 C   0  0  0  0  0  0  0  0  0  0  0  0
   91.0180   94.8230  -45.9640 C   0  0  0  0  0  0  0  0  0  0  0  0
   91.3370   93.5230  -45.5670 C   0  0  0  0  0  0  0  0  0  0  0  0
   91.3270   92.4680  -46.5310 C   0  0  0  0  0  0  0  0  0  0  0  0
   91.3030   91.5930  -47.3550 C   0  0  0  0  0  0  0  0  0  0  0  0
   91.2820   90.5250  -48.3500 C   0  0  0  0  0  0  0  0  0  0  0  0
   92.4440   89.7200  -48.1990 O   0  0  0  0  0  0  0  0  0  0  0  0
   91.6520   93.2580  -44.2340 C   0  0  0  0  0  0  0  0  0  0  0  0
   91.6440   94.2990  -43.3040 C   0  0  0  0  0  0  0  0  0  0  0  0
   92.1230   93.8620  -41.3160 I   0  0  0  0  0  0  0  0  0  0  0  0
   91.3150   95.6020  -43.7010 C   0  0  0  0  0  0  0  0  0  0  0  0
   91.2950   96.6360  -42.8030 O   0  0  0  0  0  0  0  0  0  0  0  0
   89.6050   99.1710  -44.3630 C   0  0  0  0  0  0  0  0  0  0  0  0
   88.4670   99.5140  -43.3940 C   0  0  0  0  0  0  0  0  0  0  0  0
   84.5665  102.2419  -42.4972 H   0  0  0  0  0  0  0  0  0  0  0  0
   85.6248  102.5223  -43.9213 H   0  0  0  0  0  0  0  0  0  0  0  0
   84.4635  101.1519  -43.9213 H   0  0  0  0  0  0  0  0  0  0  0  0
   87.1959  101.1769  -43.0343 H   0  0  0  0  0  0  0  0  0  0  0  0
   86.1460  100.9276  -41.5909 H   0  0  0  0  0  0  0  0  0  0  0  0
   85.7890   98.8950  -42.2290 H   0  0  0  0  0  0  0  0  0  0  0  0
   84.1790  100.2034  -43.9967 H   0  0  0  0  0  0  0  0  0  0  0  0
   85.0146   98.9355  -44.9670 H   0  0  0  0  0  0  0  0  0  0  0  0
   83.8584   98.2392  -42.2583 H   0  0  0  0  0  0  0  0  0  0  0  0
   82.7776   98.3572  -43.6883 H   0  0  0  0  0  0  0  0  0  0  0  0
   84.1430   97.1900  -43.6883 H   0  0  0  0  0  0  0  0  0  0  0  0
   87.2683   97.7196  -43.2729 H   0  0  0  0  0  0  0  0  0  0  0  0
   86.1306   97.9206  -45.4225 H   0  0  0  0  0  0  0  0  0  0  0  0
   87.0020   99.4611  -45.7403 H   0  0  0  0  0  0  0  0  0  0  0  0
   87.9795   96.6403  -45.8433 H   0  0  0  0  0  0  0  0  0  0  0  0
   88.5520   98.1244  -46.7191 H   0  0  0  0  0  0  0  0  0  0  0  0
   90.4682   97.2525  -46.5899 H   0  0  0  0  0  0  0  0  0  0  0  0
   91.4727   97.9395  -45.2388 H   0  0  0  0  0  0  0  0  0  0  0  0
   90.7863   95.0245  -47.0203 H   0  0  0  0  0  0  0  0  0  0  0  0
   90.3845   89.9057  -48.2055 H   0  0  0  0  0  0  0  0  0  0  0  0
   91.2646   90.9618  -49.3594 H   0  0  0  0  0  0  0  0  0  0  0  0
   93.1300   90.3020  -47.8310 H   0  0  0  0  0  0  0  0  0  0  0  0
   91.9051   92.2353  -43.9178 H   0  0  0  0  0  0  0  0  0  0  0  0
   91.0870   97.4510  -43.2990 H   0  0  0  0  0  0  0  0  0  0  0  0
   90.5706   99.2511  -43.8423 H   0  0  0  0  0  0  0  0  0  0  0  0
   89.5962   99.8702  -45.2121 H   0  0  0  0  0  0  0  0  0  0  0  0
   88.7848   99.2727  -42.3689 H   0  0  0  0  0  0  0  0  0  0  0  0
   88.2415  100.5863  -43.4905 H   0  0  0  0  0  0  0  0  0  0  0  0
  1  2  1  0
  2  3  1  0
  3  4  1  0
  4  5  1  0
  3  6  1  0
  6  7  1  0
  7  8  1  0
  8  9  1  0
  9 10  1  0
 10 11  1  0
 11 12  2  0
 12 13  1  0
 13 14  1  0
 14 15  3  0
 15 16  1  0
 16 17  1  0
 13 18  2  0
 18 19  1  0
 19 20  1  0
 19 21  2  0
 21 22  1  0
  9 23  1  0
 23 24  1  0
 24  6  1  0
 21 11  1  0
  1 25  1  0
  1 26  1  0
  1 27  1  0
  2 28  1  0
  2 29  1  0
  3 30  1  0
  4 31  1  0
  4 32  1  0
  5 33  1  0
  5 34  1  0
  5 35  1  0
  6 36  1  0
  7 37  1  0
  7 38  1  0
  8 39  1  0
  8 40  1  0
 10 41  1  0
 10 42  1  0
 12 43  1  0
 16 44  1  0
 16 45  1  0
 17 46  1  0
 18 47  1  0
 22 48  1  0
 23 49  1  0
 23 50  1  0
 24 51  1  0
 24 52  1  0
M  CHG  1   3   1
M  END
>  <meeko>  (2) 
{"is_sidechain": [false], "free_energy": -6.71, "intermolecular_energy": -9.018, "internal_energy": -1.028}

$$$$
4agn_ligand
     RDKit          3D

 52 53  0  0  0  0  0  0  0  0999 V2000
   84.1410  100.0470  -46.0460 C   0  0  0  0  0  0  0  0  0  0  0  0
   84.5000   99.3100  -44.7660 C   0  0  0  0  0  0  0  0  0  0  0  0
   84.8270   97.8580  -45.0690 N   0  0  0  0  0  0  0  0  0  0  0  0
   84.0590   97.3290  -46.2750 C   0  0  0  0  0  0  0  0  0  0  0  0
   83.8120   95.8380  -46.1290 C   0  0  0  0  0  0  0  0  0  0  0  0
   86.3280   97.5450  -45.1540 C   0  0  0  0  0  0  0  0  0  0  0  0
   86.8890   97.6810  -46.5690 C   0  0  0  0  0  0  0  0  0  0  0  0
   88.3630   97.2450  -46.5860 C   0  0  0  0  0  0  0  0  0  0  0  0
   88.9710   97.2960  -45.2490 N   0  0  0  0  0  0  0  0  0  0  0  0
   90.4410   97.1490  -45.3410 C   0  0  0  0  0  0  0  0  0  0  0  0
   90.9080   95.7620  -44.9550 C   0  0  0  0  0  0  0  0  0  0  0  0
   90.9570   94.7490  -45.9310 C   0  0  0  0  0  0  0  0  0  0  0  0
   91.3820   93.4580  -45.6100 C   0  0  0  0  0  0  0  0  0  0  0  0
   91.3890   92.4460  -46.6190 C   0  0  0  0  0  0  0  0  0  0  0  0
   91.3780   91.6070  -47.4790 C   0  0  0  0  0  0  0  0  0  0  0  0
   91.3720   90.5800  -48.5180 C   0  0  0  0  0  0  0  0  0  0  0  0
   92.4030   89.6380  -48.2520 O   0  0  0  0  0  0  0  0  0  0  0  0
   91.7840   93.1600  -44.3080 C   0  0  0  0  0  0  0  0  0  0  0  0
   91.7570   94.1580  -43.3320 C   0  0  0  0  0  0  0  0  0  0  0  0
   92.3690   93.6720  -41.3930 I   0  0  0  0  0  0  0  0  0  0  0  0
   91.3220   95.4510  -43.6530 C   0  0  0  0  0  0  0  0  0  0  0  0
   91.2830   96.4440  -42.7100 O   0  0  0  0  0  0  0  0  0  0  0  0
   88.5870   98.5110  -44.5290 C   0  0  0  0  0  0  0  0  0  0  0  0
   87.1020   98.4190  -44.1560 C   0  0  0  0  0  0  0  0  0  0  0  0
   83.6720  101.0099  -45.7954 H   0  0  0  0  0  0  0  0  0  0  0  0
   85.0531  100.2255  -46.6344 H   0  0  0  0  0  0  0  0  0  0  0  0
   83.4382   99.4389  -46.6344 H   0  0  0  0  0  0  0  0  0  0  0  0
   85.3749   99.7904  -44.3037 H   0  0  0  0  0  0  0  0  0  0  0  0
   83.6425   99.3481  -44.0781 H   0  0  0  0  0  0  0  0  0  0  0  0
   84.4890   97.3180  -44.2610 H   0  0  0  0  0  0  0  0  0  0  0  0
   83.0937   97.8514  -46.3483 H   0  0  0  0  0  0  0  0  0  0  0  0
   84.6530   97.5063  -47.1837 H   0  0  0  0  0  0  0  0  0  0  0  0
   83.7686   95.5763  -45.0615 H   0  0  0  0  0  0  0  0  0  0  0  0
   82.8581   95.5755  -46.6099 H   0  0  0  0  0  0  0  0  0  0  0  0
   84.6303   95.2820  -46.6099 H   0  0  0  0  0  0  0  0  0  0  0  0
   86.4586   96.4869  -44.8830 H   0  0  0  0  0  0  0  0  0  0  0  0
   86.3112   97.0434  -47.2543 H   0  0  0  0  0  0  0  0  0  0  0  0
   86.8157   98.7304  -46.8906 H   0  0  0  0  0  0  0  0  0  0  0  0
   88.4233   96.2137  -46.9638 H   0  0  0  0  0  0  0  0  0  0  0  0
   88.9143   97.9412  -47.2351 H   0  0  0  0  0  0  0  0  0  0  0  0
   90.7520   97.3509  -46.3766 H   0  0  0  0  0  0  0  0  0  0  0  0
   90.8939   97.8630  -44.6374 H   0  0  0  0  0  0  0  0  0  0  0  0
   90.6555   94.9780  -46.9638 H   0  0  0  0  0  0  0  0  0  0  0  0
   90.3985   90.0679  -48.5231 H   0  0  0  0  0  0  0  0  0  0  0  0
   91.5430   91.0469  -49.4992 H   0  0  0  0  0  0  0  0  0  0  0  0
   92.3230   89.4090  -47.3110 H   0  0  0  0  0  0  0  0  0  0  0  0
   92.1203   92.1445  -44.0517 H   0  0  0  0  0  0  0  0  0  0  0  0
   92.0460   96.3140  -42.1150 H   0  0  0  0  0  0  0  0  0  0  0  0
   89.1921   98.6056  -43.6153 H   0  0  0  0  0  0  0  0  0  0  0  0
   88.7574   99.3914  -45.1661 H   0  0  0  0  0  0  0  0  0  0  0  0
   87.0116   97.9809  -43.1511 H   0  0  0  0  0  0  0  0  0  0  0  0
   86.6752   99.4326  -44.1790 H   0  0  0  0  0  0  0  0  0  0  0  0
  1  2  1  0
  2  3  1  0
  3  4  1  0
  4  5  1  0
  3  6  1  0
  6  7  1  0
  7  8  1  0
  8  9  1  0
  9 10  1  0
 10 11  1  0
 11 12  2  0
 12 13  1  0
 13 14  1  0
 14 15  3  0
 15 16  1  0
 16 17  1  0
 13 18  2  0
 18 19  1  0
 19 20  1  0
 19 21  2  0
 21 22  1  0
  9 23  1  0
 23 24  1  0
 24  6  1  0
 21 11  1  0
  1 25  1  0
  1 26  1  0
  1 27  1  0
  2 28  1  0
  2 29  1  0
  3 30  1  0
  4 31  1  0
  4 32  1  0
  5 33  1  0
  5 34  1  0
  5 35  1  0
  6 36  1  0
  7 37  1  0
  7 38  1  0
  8 39  1  0
  8 40  1  0
 10 41  1  0
 10 42  1  0
 12 43  1  0
 16 44  1  0
 16 45  1  0
 17 46  1  0
 18 47  1  0
 22 48  1  0
 23 49  1  0
 23 50  1  0
 24 51  1  0
 24 52  1  0
M  CHG  1   3   1
M  END
>  <meeko>  (3) 
{"is_sidechain": [false], "free_energy": -6.476, "intermolecular_energy": -8.917, "internal_energy": -0.799}

$$$$
4agn_ligand
     RDKit          3D

 52 53  0  0  0  0  0  0  0  0999 V2000
   89.2640   96.7220  -50.9090 C   0  0  0  0  0  0  0  0  0  0  0  0
   88.0000   97.5430  -51.1110 C   0  0  0  0  0  0  0  0  0  0  0  0
   87.3360   97.8260  -49.7740 N   0  0  0  0  0  0  0  0  0  0  0  0
   86.0340   97.0540  -49.5980 C   0  0  0  0  0  0  0  0  0  0  0  0
   85.4870   96.6290  -50.9490 C   0  0  0  0  0  0  0  0  0  0  0  0
   88.2640   97.6860  -48.5580 C   0  0  0  0  0  0  0  0  0  0  0  0
   88.6690   99.0310  -47.9550 C   0  0  0  0  0  0  0  0  0  0  0  0
   89.6800   98.8060  -46.8190 C   0  0  0  0  0  0  0  0  0  0  0  0
   89.6190   97.4370  -46.2870 N   0  0  0  0  0  0  0  0  0  0  0  0
   90.3870   97.3370  -45.0260 C   0  0  0  0  0  0  0  0  0  0  0  0
   90.8600   95.9250  -44.7490 C   0  0  0  0  0  0  0  0  0  0  0  0
   90.8740   94.9810  -45.7920 C   0  0  0  0  0  0  0  0  0  0  0  0
   91.3010   93.6700  -45.5720 C   0  0  0  0  0  0  0  0  0  0  0  0
   91.2730   92.7270  -46.6470 C   0  0  0  0  0  0  0  0  0  0  0  0
   91.2310   91.9480  -47.5610 C   0  0  0  0  0  0  0  0  0  0  0  0
   91.1890   90.9950  -48.6670 C   0  0  0  0  0  0  0  0  0  0  0  0
   92.3490   90.1770  -48.6250 O   0  0  0  0  0  0  0  0  0  0  0  0
   91.7420   93.2830  -44.3070 C   0  0  0  0  0  0  0  0  0  0  0  0
   91.7510   94.2130  -43.2660 C   0  0  0  0  0  0  0  0  0  0  0  0
   92.4210   93.5950  -41.3840 I   0  0  0  0  0  0  0  0  0  0  0  0
   91.3130   95.5260  -43.4850 C   0  0  0  0  0  0  0  0  0  0  0  0
   91.3080   96.4530  -42.4760 O   0  0  0  0  0  0  0  0  0  0  0  0
   88.2360   96.9850  -46.1220 C   0  0  0  0  0  0  0  0  0  0  0  0
   87.6160   96.7720  -47.5080 C   0  0  0  0  0  0  0  0  0  0  0  0
   89.4532   96.5991  -49.8324 H   0  0  0  0  0  0  0  0  0  0  0  0
   89.1373   95.7333  -51.3742 H   0  0  0  0  0  0  0  0  0  0  0  0
   90.1158   97.2397  -51.3742 H   0  0  0  0  0  0  0  0  0  0  0  0
   88.2596   98.4955  -51.5961 H   0  0  0  0  0  0  0  0  0  0  0  0
   87.3021   96.9756  -51.7442 H   0  0  0  0  0  0  0  0  0  0  0  0
   87.0740   98.8210  -49.7940 H   0  0  0  0  0  0  0  0  0  0  0  0
   86.2221   96.1601  -48.9851 H   0  0  0  0  0  0  0  0  0  0  0  0
   85.2974   97.7029  -49.1017 H   0  0  0  0  0  0  0  0  0  0  0  0
   84.6262   95.9601  -50.8021 H   0  0  0  0  0  0  0  0  0  0  0  0
   85.1682   97.5187  -51.5119 H   0  0  0  0  0  0  0  0  0  0  0  0
   86.2703   96.1002  -51.5119 H   0  0  0  0  0  0  0  0  0  0  0  0
   89.1985   97.2247  -48.9099 H   0  0  0  0  0  0  0  0  0  0  0  0
   89.1277   99.6577  -48.7340 H   0  0  0  0  0  0  0  0  0  0  0  0
   87.7767   99.5341  -47.5542 H   0  0  0  0  0  0  0  0  0  0  0  0
   90.6934   98.9919  -47.2042 H   0  0  0  0  0  0  0  0  0  0  0  0
   89.4303   99.4983  -46.0015 H   0  0  0  0  0  0  0  0  0  0  0  0
   91.2646   97.9968  -45.0935 H   0  0  0  0  0  0  0  0  0  0  0  0
   89.7211   97.6354  -44.2029 H   0  0  0  0  0  0  0  0  0  0  0  0
   90.5431   95.2807  -46.7973 H   0  0  0  0  0  0  0  0  0  0  0  0
   90.2917   90.3653  -48.5758 H   0  0  0  0  0  0  0  0  0  0  0  0
   91.1562   91.5397  -49.6221 H   0  0  0  0  0  0  0  0  0  0  0  0
   92.0470   89.2920  -48.3590 H   0  0  0  0  0  0  0  0  0  0  0  0
   92.0806   92.2514  -44.1305 H   0  0  0  0  0  0  0  0  0  0  0  0
   91.3370   95.9660  -41.6310 H   0  0  0  0  0  0  0  0  0  0  0  0
   88.2209   96.0389  -45.5611 H   0  0  0  0  0  0  0  0  0  0  0  0
   87.6600   97.7405  -45.5675 H   0  0  0  0  0  0  0  0  0  0  0  0
   87.7610   95.7236  -47.8077 H   0  0  0  0  0  0  0  0  0  0  0  0
   86.5451   97.0167  -47.4496 H   0  0  0  0  0  0  0  0  0  0  0  0
  1  2  1  0
  2  3  1  0
  3  4  1  0
  4  5  1  0
  3  6  1  0
  6  7  1  0
  7  8  1  0
  8  9  1  0
  9 10  1  0
 10 11  1  0
 11 12  2  0
 12 13  1  0
 13 14  1  0
 14 15  3  0
 15 16  1  0
 16 17  1  0
 13 18  2  0
 18 19  1  0
 19 20  1  0
 19 21  2  0
 21 22  1  0
  9 23  1  0
 23 24  1  0
 24  6  1  0
 21 11  1  0
  1 25  1  0
  1 26  1  0
  1 27  1  0
  2 28  1  0
  2 29  1  0
  3 30  1  0
  4 31  1  0
  4 32  1  0
  5 33  1  0
  5 34  1  0
  5 35  1  0
  6 36  1  0
  7 37  1  0
  7 38  1  0
  8 39  1  0
  8 40  1  0
 10 41  1  0
 10 42  1  0
 12 43  1  0
 16 44  1  0
 16 45  1  0
 17 46  1  0
 18 47  1  0
 22 48  1  0
 23 49  1  0
 23 50  1  0
 24 51  1  0
 24 52  1  0
M  CHG  1   3   1
M  END
>  <meeko>  (4) 
{"is_sidechain": [false], "free_energy": -5.731, "intermolecular_energy": -7.905, "internal_energy": -0.762}

$$$$
4agn_ligand
     RDKit          3D

 52 53  0  0  0  0  0  0  0  0999 V2000
   94.0100  100.4240  -49.6920 C   0  0  0  0  0  0  0  0  0  0  0  0
   92.9510  101.1750  -48.9000 C   0  0  0  0  0  0  0  0  0  0  0  0
   93.2200  101.0480  -47.4100 N   0  0  0  0  0  0  0  0  0  0  0  0
   93.0970  102.3820  -46.6830 C   0  0  0  0  0  0  0  0  0  0  0  0
   93.7140  103.4930  -47.5140 C   0  0  0  0  0  0  0  0  0  0  0  0
   92.4300   99.9300  -46.7110 C   0  0  0  0  0  0  0  0  0  0  0  0
   92.7230   99.8370  -45.2140 C   0  0  0  0  0  0  0  0  0  0  0  0
   91.9830   98.6300  -44.6160 C   0  0  0  0  0  0  0  0  0  0  0  0
   90.8530   98.2040  -45.4540 N   0  0  0  0  0  0  0  0  0  0  0  0
   90.0000   97.2400  -44.7220 C   0  0  0  0  0  0  0  0  0  0  0  0
   90.6530   95.8810  -44.5830 C   0  0  0  0  0  0  0  0  0  0  0  0
   90.6750   95.0060  -45.6840 C   0  0  0  0  0  0  0  0  0  0  0  0
   91.2680   93.7450  -45.5910 C   0  0  0  0  0  0  0  0  0  0  0  0
   91.2440   92.8680  -46.7200 C   0  0  0  0  0  0  0  0  0  0  0  0
   91.2050   92.1420  -47.6770 C   0  0  0  0  0  0  0  0  0  0  0  0
   91.1650   91.2530  -48.8350 C   0  0  0  0  0  0  0  0  0  0  0  0
   92.2450   90.3330  -48.7570 O   0  0  0  0  0  0  0  0  0  0  0  0
   91.8670   93.3420  -44.3980 C   0  0  0  0  0  0  0  0  0  0  0  0
   91.8680   94.2060  -43.3010 C   0  0  0  0  0  0  0  0  0  0  0  0
   92.7780   93.5660  -41.5310 I   0  0  0  0  0  0  0  0  0  0  0  0
   91.2660   95.4680  -43.3930 C   0  0  0  0  0  0  0  0  0  0  0  0
   91.2510   96.3290  -42.3280 O   0  0  0  0  0  0  0  0  0  0  0  0
   90.0850   99.3490  -45.9460 C   0  0  0  0  0  0  0  0  0  0  0  0
   90.9280  100.1030  -46.9810 C   0  0  0  0  0  0  0  0  0  0  0  0
   94.7059   99.9305  -48.9976 H   0  0  0  0  0  0  0  0  0  0  0  0
   93.5255   99.6665  -50.3256 H   0  0  0  0  0  0  0  0  0  0  0  0
   94.5646  101.1318  -50.3256 H   0  0  0  0  0  0  0  0  0  0  0  0
   92.9712  102.2377  -49.1834 H   0  0  0  0  0  0  0  0  0  0  0  0
   91.9637  100.7447  -49.1239 H   0  0  0  0  0  0  0  0  0  0  0  0
   94.2060  100.7690  -47.3240 H   0  0  0  0  0  0  0  0  0  0  0  0
   92.0337  102.6050  -46.5110 H   0  0  0  0  0  0  0  0  0  0  0  0
   93.6281  102.3164  -45.7219 H   0  0  0  0  0  0  0  0  0  0  0  0
   94.1386  104.2575  -46.8467 H   0  0  0  0  0  0  0  0  0  0  0  0
   94.5104  103.0771  -48.1487 H   0  0  0  0  0  0  0  0  0  0  0  0
   92.9400  103.9492  -48.1487 H   0  0  0  0  0  0  0  0  0  0  0  0
   92.7642   98.9736  -47.1394 H   0  0  0  0  0  0  0  0  0  0  0  0
   93.8054   99.7154  -45.0600 H   0  0  0  0  0  0  0  0  0  0  0  0
   92.3806  100.7570  -44.7177 H   0  0  0  0  0  0  0  0  0  0  0  0
   92.6896   97.7923  -44.5207 H   0  0  0  0  0  0  0  0  0  0  0  0
   91.5840   98.9289  -43.6355 H   0  0  0  0  0  0  0  0  0  0  0  0
   89.7979   97.6392  -43.7171 H   0  0  0  0  0  0  0  0  0  0  0  0
   89.0720   97.1088  -45.2978 H   0  0  0  0  0  0  0  0  0  0  0  0
   90.2177   95.3200  -46.6338 H   0  0  0  0  0  0  0  0  0  0  0  0
   90.2128   90.7023  -48.8430 H   0  0  0  0  0  0  0  0  0  0  0  0
   91.2508   91.8453  -49.7580 H   0  0  0  0  0  0  0  0  0  0  0  0
   92.7400   90.4260  -49.5880 H   0  0  0  0  0  0  0  0  0  0  0  0
   92.3357   92.3498  -44.3215 H   0  0  0  0  0  0  0  0  0  0  0  0
   91.7200   95.8930  -41.5910 H   0  0  0  0  0  0  0  0  0  0  0  0
   89.1542   98.9960  -46.4140 H   0  0  0  0  0  0  0  0  0  0  0  0
   89.8351  100.0180  -45.1094 H   0  0  0  0  0  0  0  0  0  0  0  0
   90.6970   99.7135  -47.9835 H   0  0  0  0  0  0  0  0  0  0  0  0
   90.6844  101.1736  -46.9135 H   0  0  0  0  0  0  0  0  0  0  0  0
  1  2  1  0
  2  3  1  0
  3  4  1  0
  4  5  1  0
  3  6  1  0
  6  7  1  0
  7  8  1  0
  8  9  1  0
  9 10  1  0
 10 11  1  0
 11 12  2  0
 12 13  1  0
 13 14  1  0
 14 15  3  0
 15 16  1  0
 16 17  1  0
 13 18  2  0
 18 19  1  0
 19 20  1  0
 19 21  2  0
 21 22  1  0
  9 23  1  0
 23 24  1  0
 24  6  1  0
 21 11  1  0
  1 25  1  0
  1 26  1  0
  1 27  1  0
  2 28  1  0
  2 29  1  0
  3 30  1  0
  4 31  1  0
  4 32  1  0
  5 33  1  0
  5 34  1  0
  5 35  1  0
  6 36  1  0
  7 37  1  0
  7 38  1  0
  8 39  1  0
  8 40  1  0
 10 41  1  0
 10 42  1  0
 12 43  1  0
 16 44  1  0
 16 45  1  0
 17 46  1  0
 18 47  1  0
 22 48  1  0
 23 49  1  0
 23 50  1  0
 24 51  1  0
 24 52  1  0
M  CHG  1   3   1
M  END
>  <meeko>  (5) 
{"is_sidechain": [false], "free_energy": -5.724, "intermolecular_energy": -8.021, "internal_energy": -0.637}

$$$$
4agn_ligand
     RDKit          3D

 52 53  0  0  0  0  0  0  0  0999 V2000
   92.9060   93.5010  -42.4280 C   0  0  0  0  0  0  0  0  0  0  0  0
   91.5750   93.6320  -43.1510 C   0  0  0  0  0  0  0  0  0  0  0  0
   91.6640   94.6980  -44.2290 N   0  0  0  0  0  0  0  0  0  0  0  0
   91.3090   94.1590  -45.6100 C   0  0  0  0  0  0  0  0  0  0  0  0
   91.5330   92.6580  -45.6620 C   0  0  0  0  0  0  0  0  0  0  0  0
   90.9170   96.0010  -43.9040 C   0  0  0  0  0  0  0  0  0  0  0  0
   91.4580   96.7080  -42.6620 C   0  0  0  0  0  0  0  0  0  0  0  0
   90.5890   97.9350  -42.3450 C   0  0  0  0  0  0  0  0  0  0  0  0
   89.8270   98.3910  -43.5160 N   0  0  0  0  0  0  0  0  0  0  0  0
   89.2320   99.7220  -43.2610 C   0  0  0  0  0  0  0  0  0  0  0  0
   87.7260   99.7210  -43.4190 C   0  0  0  0  0  0  0  0  0  0  0  0
   87.1030   98.6750  -44.1250 C   0  0  0  0  0  0  0  0  0  0  0  0
   85.7170   98.6420  -44.2910 C   0  0  0  0  0  0  0  0  0  0  0  0
   85.1200   97.5810  -45.0410 C   0  0  0  0  0  0  0  0  0  0  0  0
   84.6390   96.6870  -45.6830 C   0  0  0  0  0  0  0  0  0  0  0  0
   84.0520   95.5940  -46.4540 C   0  0  0  0  0  0  0  0  0  0  0  0
   83.8510   94.4750  -45.6020 O   0  0  0  0  0  0  0  0  0  0  0  0
   84.9240   99.6470  -43.7370 C   0  0  0  0  0  0  0  0  0  0  0  0
   85.5260  100.6820  -43.0190 C   0  0  0  0  0  0  0  0  0  0  0  0
   84.3030  102.1680  -42.2020 I   0  0  0  0  0  0  0  0  0  0  0  0
   86.9170  100.7190  -42.8600 C   0  0  0  0  0  0  0  0  0  0  0  0
   87.5280  101.7290  -42.1640 O   0  0  0  0  0  0  0  0  0  0  0  0
   90.6470   98.3830  -44.7280 C   0  0  0  0  0  0  0  0  0  0  0  0
   90.9260   96.9290  -45.1280 C   0  0  0  0  0  0  0  0  0  0  0  0
   92.7362   93.5177  -41.3413 H   0  0  0  0  0  0  0  0  0  0  0  0
   93.3844   92.5514  -42.7098 H   0  0  0  0  0  0  0  0  0  0  0  0
   93.5604   94.3391  -42.7098 H   0  0  0  0  0  0  0  0  0  0  0  0
   91.3171   92.6681  -43.6141 H   0  0  0  0  0  0  0  0  0  0  0  0
   90.8003   93.9205  -42.4253 H   0  0  0  0  0  0  0  0  0  0  0  0
   92.6560   94.9680  -44.2790 H   0  0  0  0  0  0  0  0  0  0  0  0
   90.2520   94.3760  -45.8238 H   0  0  0  0  0  0  0  0  0  0  0  0
   91.9517   94.6434  -46.3599 H   0  0  0  0  0  0  0  0  0  0  0  0
   91.5923   92.2604  -44.6381 H   0  0  0  0  0  0  0  0  0  0  0  0
   90.6962   92.1806  -46.1928 H   0  0  0  0  0  0  0  0  0  0  0  0
   92.4728   92.4457  -46.1928 H   0  0  0  0  0  0  0  0  0  0  0  0
   89.8778   95.7321  -43.6638 H   0  0  0  0  0  0  0  0  0  0  0  0
   91.4371   96.0147  -41.8083 H   0  0  0  0  0  0  0  0  0  0  0  0
   92.4923   97.0325  -42.8489 H   0  0  0  0  0  0  0  0  0  0  0  0
   89.8833   97.6721  -41.5432 H   0  0  0  0  0  0  0  0  0  0  0  0
   91.2573   98.7525  -42.0368 H   0  0  0  0  0  0  0  0  0  0  0  0
   89.4792  100.0286  -42.2339 H   0  0  0  0  0  0  0  0  0  0  0  0
   89.6464  100.4220  -44.0014 H   0  0  0  0  0  0  0  0  0  0  0  0
   87.7183   97.8700  -44.5532 H   0  0  0  0  0  0  0  0  0  0  0  0
   83.0868   95.9159  -46.8720 H   0  0  0  0  0  0  0  0  0  0  0  0
   84.7296   95.3159  -47.2747 H   0  0  0  0  0  0  0  0  0  0  0  0
   84.7280   94.2330  -45.2620 H   0  0  0  0  0  0  0  0  0  0  0  0
   83.8317   99.6242  -43.8650 H   0  0  0  0  0  0  0  0  0  0  0  0
   86.8280  102.2540  -41.7340 H   0  0  0  0  0  0  0  0  0  0  0  0
   90.1097   98.8932  -45.5410 H   0  0  0  0  0  0  0  0  0  0  0  0
   91.5958   98.9070  -44.5401 H   0  0  0  0  0  0  0  0  0  0  0  0
   90.1513   96.5970  -45.8349 H   0  0  0  0  0  0  0  0  0  0  0  0
   91.9224   96.8819  -45.5916 H   0  0  0  0  0  0  0  0  0  0  0  0
  1  2  1  0
  2  3  1  0
  3  4  1  0
  4  5  1  0
  3  6  1  0
  6  7  1  0
  7  8  1  0
  8  9  1  0
  9 10  1  0
 10 11  1  0
 11 12  2  0
 12 13  1  0
 13 14  1  0
 14 15  3  0
 15 16  1  0
 16 17  1  0
 13 18  2  0
 18 19  1  0
 19 20  1  0
 19 21  2  0
 21 22  1  0
  9 23  1  0
 23 24  1  0
 24  6  1  0
 21 11  1  0
  1 25  1  0
  1 26  1  0
  1 27  1  0
  2 28  1  0
  2 29  1  0
  3 30  1  0
  4 31  1  0
  4 32  1  0
  5 33  1  0
  5 34  1  0
  5 35  1  0
  6 36  1  0
  7 37  1  0
  7 38  1  0
  8 39  1  0
  8 40  1  0
 10 41  1  0
 10 42  1  0
 12 43  1  0
 16 44  1  0
 16 45  1  0
 17 46  1  0
 18 47  1  0
 22 48  1  0
 23 49  1  0
 23 50  1  0
 24 51  1  0
 24 52  1  0
M  CHG  1   3   1
M  END
>  <meeko>  (6) 
{"is_sidechain": [false], "free_energy": -5.395, "intermolecular_energy": -7.467, "internal_energy": -0.726}

$$$$
4agn_ligand
     RDKit          3D

 52 53  0  0  0  0  0  0  0  0999 V2000
   91.3210   92.8910  -45.8470 C   0  0  0  0  0  0  0  0  0  0  0  0
   92.0530   93.1780  -44.5450 C   0  0  0  0  0  0  0  0  0  0  0  0
   91.2180   94.0880  -43.6610 N   0  0  0  0  0  0  0  0  0  0  0  0
   91.4380   93.8170  -42.1770 C   0  0  0  0  0  0  0  0  0  0  0  0
   92.8160   93.2210  -41.9500 C   0  0  0  0  0  0  0  0  0  0  0  0
   91.3250   95.5830  -44.0000 C   0  0  0  0  0  0  0  0  0  0  0  0
   90.2690   96.0460  -45.0030 C   0  0  0  0  0  0  0  0  0  0  0  0
   90.5150   97.5180  -45.3700 C   0  0  0  0  0  0  0  0  0  0  0  0
   91.3220   98.2140  -44.3580 N   0  0  0  0  0  0  0  0  0  0  0  0
   91.3000   99.6750  -44.5920 C   0  0  0  0  0  0  0  0  0  0  0  0
   90.5980  100.4270  -43.4810 C   0  0  0  0  0  0  0  0  0  0  0  0
   89.1920  100.4940  -43.4680 C   0  0  0  0  0  0  0  0  0  0  0  0
   88.5120  101.1800  -42.4600 C   0  0  0  0  0  0  0  0  0  0  0  0
   87.0840  101.2540  -42.4940 C   0  0  0  0  0  0  0  0  0  0  0  0
   85.8860  101.3130  -42.5480 C   0  0  0  0  0  0  0  0  0  0  0  0
   84.4280  101.3740  -42.6070 C   0  0  0  0  0  0  0  0  0  0  0  0
   83.8900  100.1040  -42.2650 O   0  0  0  0  0  0  0  0  0  0  0  0
   89.2250  101.7980  -41.4330 C   0  0  0  0  0  0  0  0  0  0  0  0
   90.6200  101.7270  -41.4230 C   0  0  0  0  0  0  0  0  0  0  0  0
   91.6530  102.6640  -39.8660 I   0  0  0  0  0  0  0  0  0  0  0  0
   91.3020  101.0450  -42.4390 C   0  0  0  0  0  0  0  0  0  0  0  0
   92.6690  100.9680  -42.4510 O   0  0  0  0  0  0  0  0  0  0  0  0
   90.8940   97.8720  -43.0000 C   0  0  0  0  0  0  0  0  0  0  0  0
   91.2810   96.4160  -42.7110 C   0  0  0  0  0  0  0  0  0  0  0  0
   90.3180   92.4978  -45.6248 H   0  0  0  0  0  0  0  0  0  0  0  0
   91.2299   93.8200  -46.4289 H   0  0  0  0  0  0  0  0  0  0  0  0
   91.8856   92.1477  -46.4289 H   0  0  0  0  0  0  0  0  0  0  0  0
   92.2399   92.2311  -44.0173 H   0  0  0  0  0  0  0  0  0  0  0  0
   93.0066   93.6767  -44.7728 H   0  0  0  0  0  0  0  0  0  0  0  0
   90.2370   93.8430  -43.8500 H   0  0  0  0  0  0  0  0  0  0  0  0
   91.3545   94.7614  -41.6192 H   0  0  0  0  0  0  0  0  0  0  0  0
   90.6771   93.1043  -41.8262 H   0  0  0  0  0  0  0  0  0  0  0  0
   93.0065   93.1386  -40.8697 H   0  0  0  0  0  0  0  0  0  0  0  0
   92.8634   92.2220  -42.4079 H   0  0  0  0  0  0  0  0  0  0  0  0
   93.5764   93.8707  -42.4079 H   0  0  0  0  0  0  0  0  0  0  0  0
   92.2943   95.7394  -44.4959 H   0  0  0  0  0  0  0  0  0  0  0  0
   90.3304   95.4275  -45.9106 H   0  0  0  0  0  0  0  0  0  0  0  0
   89.2700   95.9440  -44.5540 H   0  0  0  0  0  0  0  0  0  0  0  0
   91.0429   97.5595  -46.3342 H   0  0  0  0  0  0  0  0  0  0  0  0
   89.5379   98.0201  -45.4272 H   0  0  0  0  0  0  0  0  0  0  0  0
   92.3363  100.0369  -44.6636 H   0  0  0  0  0  0  0  0  0  0  0  0
   90.7441   99.8571  -45.5236 H   0  0  0  0  0  0  0  0  0  0  0  0
   88.6195   99.9976  -44.2654 H   0  0  0  0  0  0  0  0  0  0  0  0
   84.0630  102.1308  -41.8971 H   0  0  0  0  0  0  0  0  0  0  0  0
   84.1117  101.6459  -43.6249 H   0  0  0  0  0  0  0  0  0  0  0  0
   83.7040   99.6540  -43.1050 H   0  0  0  0  0  0  0  0  0  0  0  0
   88.6924  102.3377  -40.6361 H   0  0  0  0  0  0  0  0  0  0  0  0
   92.9680  100.9070  -41.5240 H   0  0  0  0  0  0  0  0  0  0  0  0
   91.3903   98.5367  -42.2776 H   0  0  0  0  0  0  0  0  0  0  0  0
   89.8045   97.9938  -42.9100 H   0  0  0  0  0  0  0  0  0  0  0  0
   92.2739   96.3965  -42.2379 H   0  0  0  0  0  0  0  0  0  0  0  0
   90.5225   95.9816  -42.0432 H   0  0  0  0  0  0  0  0  0  0  0  0
  1  2  1  0
  2  3  1  0
  3  4  1  0
  4  5  1  0
  3  6  1  0
  6  7  1  0
  7  8  1  0
  8  9  1  0
  9 10  1  0
 10 11  1  0
 11 12  2  0
 12 13  1  0
 13 14  1  0
 14 15  3  0
 15 16  1  0
 16 17  1  0
 13 18  2  0
 18 19  1  0
 19 20  1  0
 19 21  2  0
 21 22  1  0
  9 23  1  0
 23 24  1  0
 24  6  1  0
 21 11  1  0
  1 25  1  0
  1 26  1  0
  1 27  1  0
  2 28  1  0
  2 29  1  0
  3 30  1  0
  4 31  1  0
  4 32  1  0
  5 33  1  0
  5 34  1  0
  5 35  1  0
  6 36  1  0
  7 37  1  0
  7 38  1  0
  8 39  1  0
  8 40  1  0
 10 41  1  0
 10 42  1  0
 12 43  1  0
 16 44  1  0
 16 45  1  0
 17 46  1  0
 18 47  1  0
 22 48  1  0
 23 49  1  0
 23 50  1  0
 24 51  1  0
 24 52  1  0
M  CHG  1   3   1
M  END
>  <meeko>  (7) 
{"is_sidechain": [false], "free_energy": -5.305, "intermolecular_energy": -7.884, "internal_energy": -0.182}

$$$$
4agn_ligand
     RDKit          3D

 52 53  0  0  0  0  0  0  0  0999 V2000
   87.1960   96.6690  -47.7670 C   0  0  0  0  0  0  0  0  0  0  0  0
   85.7660   96.1540  -47.7850 C   0  0  0  0  0  0  0  0  0  0  0  0
   84.9080   96.9500  -46.8170 N   0  0  0  0  0  0  0  0  0  0  0  0
   83.9710   96.0620  -46.0050 C   0  0  0  0  0  0  0  0  0  0  0  0
   83.8800   94.6820  -46.6340 C   0  0  0  0  0  0  0  0  0  0  0  0
   85.6880   97.9340  -45.9310 C   0  0  0  0  0  0  0  0  0  0  0  0
   85.3430   99.3960  -46.2120 C   0  0  0  0  0  0  0  0  0  0  0  0
   86.2420  100.3120  -45.3670 C   0  0  0  0  0  0  0  0  0  0  0  0
   86.8090   99.6120  -44.2050 N   0  0  0  0  0  0  0  0  0  0  0  0
   87.4270  100.5780  -43.2690 C   0  0  0  0  0  0  0  0  0  0  0  0
   88.9030  100.3120  -43.0580 C   0  0  0  0  0  0  0  0  0  0  0  0
   89.3410   99.0020  -42.7920 C   0  0  0  0  0  0  0  0  0  0  0  0
   90.6940   98.7200  -42.5910 C   0  0  0  0  0  0  0  0  0  0  0  0
   91.1000   97.3830  -42.2920 C   0  0  0  0  0  0  0  0  0  0  0  0
   91.4200   96.2540  -42.0310 C   0  0  0  0  0  0  0  0  0  0  0  0
   91.8000   94.8820  -41.7070 C   0  0  0  0  0  0  0  0  0  0  0  0
   91.1560   94.4890  -40.5020 O   0  0  0  0  0  0  0  0  0  0  0  0
   91.6380   99.7440  -42.6700 C   0  0  0  0  0  0  0  0  0  0  0  0
   91.2210  101.0470  -42.9490 C   0  0  0  0  0  0  0  0  0  0  0  0
   92.6670  102.5520  -43.0610 I   0  0  0  0  0  0  0  0  0  0  0  0
   89.8620  101.3300  -43.1430 C   0  0  0  0  0  0  0  0  0  0  0  0
   89.4310  102.6010  -43.4120 O   0  0  0  0  0  0  0  0  0  0  0  0
   85.8090   98.7730  -43.5420 C   0  0  0  0  0  0  0  0  0  0  0  0
   85.4810   97.5820  -44.4500 C   0  0  0  0  0  0  0  0  0  0  0  0
   87.5294   96.7891  -46.7256 H   0  0  0  0  0  0  0  0  0  0  0  0
   87.8511   95.9503  -48.2812 H   0  0  0  0  0  0  0  0  0  0  0  0
   87.2424   97.6403  -48.2812 H   0  0  0  0  0  0  0  0  0  0  0  0
   85.3564   96.2552  -48.8009 H   0  0  0  0  0  0  0  0  0  0  0  0
   85.7621   95.0968  -47.4812 H   0  0  0  0  0  0  0  0  0  0  0  0
   84.3000   97.5430  -47.3990 H   0  0  0  0  0  0  0  0  0  0  0  0
   84.3568   95.9690  -44.9791 H   0  0  0  0  0  0  0  0  0  0  0  0
   82.9693   96.5163  -45.9898 H   0  0  0  0  0  0  0  0  0  0  0  0
   83.8298   93.9205  -45.8418 H   0  0  0  0  0  0  0  0  0  0  0  0
   82.9760   94.6223  -47.2578 H   0  0  0  0  0  0  0  0  0  0  0  0
   84.7684   94.5041  -47.2578 H   0  0  0  0  0  0  0  0  0  0  0  0
   86.7538   97.8269  -46.1810 H   0  0  0  0  0  0  0  0  0  0  0  0
   85.5022   99.6107  -47.2790 H   0  0  0  0  0  0  0  0  0  0  0  0
   84.2899   99.5783  -45.9516 H   0  0  0  0  0  0  0  0  0  0  0  0
   87.0659  100.6791  -45.9966 H   0  0  0  0  0  0  0  0  0  0  0  0
   85.6242  101.1421  -44.9939 H   0  0  0  0  0  0  0  0  0  0  0  0
   87.3054  101.5924  -43.6766 H   0  0  0  0  0  0  0  0  0  0  0  0
   86.9241  100.4721  -42.2964 H   0  0  0  0  0  0  0  0  0  0  0  0
   88.6053   98.1858  -42.7414 H   0  0  0  0  0  0  0  0  0  0  0  0
   91.4919   94.2126  -42.5237 H   0  0  0  0  0  0  0  0  0  0  0  0
   92.8908   94.8219  -41.5788 H   0  0  0  0  0  0  0  0  0  0  0  0
   90.2440   94.8180  -40.5640 H   0  0  0  0  0  0  0  0  0  0  0  0
   92.7048   99.5262  -42.5134 H   0  0  0  0  0  0  0  0  0  0  0  0
   89.0130  102.5890  -44.2940 H   0  0  0  0  0  0  0  0  0  0  0  0
   86.2089   98.4084  -42.5843 H   0  0  0  0  0  0  0  0  0  0  0  0
   84.8977   99.3588  -43.3510 H   0  0  0  0  0  0  0  0  0  0  0  0
   86.1377   96.7396  -44.1870 H   0  0  0  0  0  0  0  0  0  0  0  0
   84.4246   97.3137  -44.3018 H   0  0  0  0  0  0  0  0  0  0  0  0
  1  2  1  0
  2  3  1  0
  3  4  1  0
  4  5  1  0
  3  6  1  0
  6  7  1  0
  7  8  1  0
  8  9  1  0
  9 10  1  0
 10 11  1  0
 11 12  2  0
 12 13  1  0
 13 14  1  0
 14 15  3  0
 15 16  1  0
 16 17  1  0
 13 18  2  0
 18 19  1  0
 19 20  1  0
 19 21  2  0
 21 22  1  0
  9 23  1  0
 23 24  1  0
 24  6  1  0
 21 11  1  0
  1 25  1  0
  1 26  1  0
  1 27  1  0
  2 28  1  0
  2 29  1  0
  3 30  1  0
  4 31  1  0
  4 32  1  0
  5 33  1  0
  5 34  1  0
  5 35  1  0
  6 36  1  0
  7 37  1  0
  7 38  1  0
  8 39  1  0
  8 40  1  0
 10 41  1  0
 10 42  1  0
 12 43  1  0
 16 44  1  0
 16 45  1  0
 17 46  1  0
 18 47  1  0
 22 48  1  0
 23 49  1  0
 23 50  1  0
 24 51  1  0
 24 52  1  0
M  CHG  1   3   1
M  END
>  <meeko>  (8) 
{"is_sidechain": [false], "free_energy": -5.142, "intermolecular_energy": -6.978, "internal_energy": -0.86}

$$$$
4agn_ligand
     RDKit          3D

 52 53  0  0  0  0  0  0  0  0999 V2000
   94.2630  103.0050  -41.9550 C   0  0  0  0  0  0  0  0  0  0  0  0
   93.3060  102.3610  -42.9460 C   0  0  0  0  0  0  0  0  0  0  0  0
   92.3280  101.4540  -42.2180 N   0  0  0  0  0  0  0  0  0  0  0  0
   91.2540  102.2380  -41.4730 C   0  0  0  0  0  0  0  0  0  0  0  0
   91.2960  101.9090  -39.9910 C   0  0  0  0  0  0  0  0  0  0  0  0
   91.7330  100.3310  -43.0820 C   0  0  0  0  0  0  0  0  0  0  0  0
   92.6360   99.9300  -44.2480 C   0  0  0  0  0  0  0  0  0  0  0  0
   91.9220   98.8860  -45.1210 C   0  0  0  0  0  0  0  0  0  0  0  0
   90.8460   98.1990  -44.3930 N   0  0  0  0  0  0  0  0  0  0  0  0
   90.3750   97.0210  -45.1550 C   0  0  0  0  0  0  0  0  0  0  0  0
   88.9860   97.2190  -45.7230 C   0  0  0  0  0  0  0  0  0  0  0  0
   88.0680   98.0410  -45.0430 C   0  0  0  0  0  0  0  0  0  0  0  0
   86.7780   98.2450  -45.5380 C   0  0  0  0  0  0  0  0  0  0  0  0
   85.8620   99.0610  -44.8050 C   0  0  0  0  0  0  0  0  0  0  0  0
   85.1030   99.7430  -44.1680 C   0  0  0  0  0  0  0  0  0  0  0  0
   84.1830  100.5630  -43.3860 C   0  0  0  0  0  0  0  0  0  0  0  0
   83.8120   99.8590  -42.2090 O   0  0  0  0  0  0  0  0  0  0  0  0
   86.3860   97.6440  -46.7340 C   0  0  0  0  0  0  0  0  0  0  0  0
   87.2910   96.8390  -47.4290 C   0  0  0  0  0  0  0  0  0  0  0  0
   86.6670   95.9570  -49.2190 I   0  0  0  0  0  0  0  0  0  0  0  0
   88.5830   96.6270  -46.9280 C   0  0  0  0  0  0  0  0  0  0  0  0
   89.4830   95.8370  -47.5910 O   0  0  0  0  0  0  0  0  0  0  0  0
   91.2580   97.8420  -43.0340 C   0  0  0  0  0  0  0  0  0  0  0  0
   91.3820   99.1240  -42.2010 C   0  0  0  0  0  0  0  0  0  0  0  0
   93.9330  102.7830  -40.9294 H   0  0  0  0  0  0  0  0  0  0  0  0
   95.2755  102.6038  -42.1094 H   0  0  0  0  0  0  0  0  0  0  0  0
   94.2727  104.0941  -42.1094 H   0  0  0  0  0  0  0  0  0  0  0  0
   92.7475  103.1472  -43.4751 H   0  0  0  0  0  0  0  0  0  0  0  0
   93.8838  101.7618  -43.6652 H   0  0  0  0  0  0  0  0  0  0  0  0
   92.8760  100.9690  -41.4950 H   0  0  0  0  0  0  0  0  0  0  0  0
   91.4292  103.3152  -41.6110 H   0  0  0  0  0  0  0  0  0  0  0  0
   90.2670  101.9632  -41.8734 H   0  0  0  0  0  0  0  0  0  0  0  0
   91.1780  102.8335  -39.4067 H   0  0  0  0  0  0  0  0  0  0  0  0
   90.4793  101.2139  -39.7464 H   0  0  0  0  0  0  0  0  0  0  0  0
   92.2611  101.4413  -39.7464 H   0  0  0  0  0  0  0  0  0  0  0  0
   90.8125  100.7216  -43.5405 H   0  0  0  0  0  0  0  0  0  0  0  0
   92.8659  100.8183  -44.8547 H   0  0  0  0  0  0  0  0  0  0  0  0
   93.5688   99.4995  -43.8549 H   0  0  0  0  0  0  0  0  0  0  0  0
   91.4905   99.3918  -45.9973 H   0  0  0  0  0  0  0  0  0  0  0  0
   92.6637   98.1310  -45.4208 H   0  0  0  0  0  0  0  0  0  0  0  0
   91.0728   96.8349  -45.9848 H   0  0  0  0  0  0  0  0  0  0  0  0
   90.3356   96.1673  -44.4624 H   0  0  0  0  0  0  0  0  0  0  0  0
   88.3715   98.5309  -44.1061 H   0  0  0  0  0  0  0  0  0  0  0  0
   84.6759  101.5068  -43.1098 H   0  0  0  0  0  0  0  0  0  0  0  0
   83.2855  100.7819  -43.9831 H   0  0  0  0  0  0  0  0  0  0  0  0
   84.6070   99.3820  -41.9170 H   0  0  0  0  0  0  0  0  0  0  0  0
   85.3710   97.8030  -47.1271 H   0  0  0  0  0  0  0  0  0  0  0  0
   89.5400   96.1630  -48.5090 H   0  0  0  0  0  0  0  0  0  0  0  0
   90.5056   97.1790  -42.5820 H   0  0  0  0  0  0  0  0  0  0  0  0
   92.2259   97.3202  -43.0623 H   0  0  0  0  0  0  0  0  0  0  0  0
   90.4244   99.3163  -41.6950 H   0  0  0  0  0  0  0  0  0  0  0  0
   92.1893   98.9839  -41.4671 H   0  0  0  0  0  0  0  0  0  0  0  0
  1  2  1  0
  2  3  1  0
  3  4  1  0
  4  5  1  0
  3  6  1  0
  6  7  1  0
  7  8  1  0
  8  9  1  0
  9 10  1  0
 10 11  1  0
 11 12  2  0
 12 13  1  0
 13 14  1  0
 14 15  3  0
 15 16  1  0
 16 17  1  0
 13 18  2  0
 18 19  1  0
 19 20  1  0
 19 21  2  0
 21 22  1  0
  9 23  1  0
 23 24  1  0
 24  6  1  0
 21 11  1  0
  1 25  1  0
  1 26  1  0
  1 27  1  0
  2 28  1  0
  2 29  1  0
  3 30  1  0
  4 31  1  0
  4 32  1  0
  5 33  1  0
  5 34  1  0
  5 35  1  0
  6 36  1  0
  7 37  1  0
  7 38  1  0
  8 39  1  0
  8 40  1  0
 10 41  1  0
 10 42  1  0
 12 43  1  0
 16 44  1  0
 16 45  1  0
 17 46  1  0
 18 47  1  0
 22 48  1  0
 23 49  1  0
 23 50  1  0
 24 51  1  0
 24 52  1  0
M  CHG  1   3   1
M  END
>  <meeko>  (9) 
{"is_sidechain": [false], "free_energy": -5.051, "intermolecular_energy": -6.914, "internal_energy": -0.795}

$$$$
