3ivg_ligand
     RDKit          3D

 46 49  0  0  0  0  0  0  0  0999 V2000
   15.1770    9.8430   -5.6980 C   0  0  0  0  0  0  0  0  0  0  0  0
   14.0170    9.8030   -4.8780 O   0  0  0  0  0  0  0  0  0  0  0  0
   14.2130    9.9570   -3.5300 C   0  0  0  0  0  0  0  0  0  0  0  0
   13.0850    9.7120   -2.7480 C   0  0  0  0  0  0  0  0  0  0  0  0
   13.1190    9.8270   -1.3550 C   0  0  0  0  0  0  0  0  0  0  0  0
   14.3300   10.2060   -0.7550 C   0  0  0  0  0  0  0  0  0  0  0  0
   15.4770   10.4440   -1.5110 C   0  0  0  0  0  0  0  0  0  0  0  0
   15.4170   10.3220   -2.9170 C   0  0  0  0  0  0  0  0  0  0  0  0
   16.5170   10.7670   -0.6000 C   0  0  0  0  0  0  0  0  0  0  0  0
   16.0030   10.7250    0.6830 C   0  0  0  0  0  0  0  0  0  0  0  0
   16.7050   10.9300    1.9820 C   0  0  0  0  0  0  0  0  0  0  0  0
   17.1540    9.6120    2.4310 N   0  0  0  0  0  0  0  0  0  0  0  0
   17.9040    9.5530    3.9310 S   0  0  0  0  0  0  0  0  0  0  0  0
   18.6260    8.3040    4.0410 O   0  0  0  0  0  0  0  0  0  0  0  0
   18.5790   10.8250    4.0890 O   0  0  0  0  0  0  0  0  0  0  0  0
   16.6460    9.5080    5.2040 C   0  0  0  0  0  0  0  0  0  0  0  0
   15.5420   10.3240    5.4280 C   0  0  0  0  0  0  0  0  0  0  0  0
   14.8920    9.8730    6.6020 C   0  0  0  0  0  0  0  0  0  0  0  0
   13.7730   10.2780    7.3490 C   0  0  0  0  0  0  0  0  0  0  0  0
   13.4320    9.5490    8.4960 C   0  0  0  0  0  0  0  0  0  0  0  0
   14.1860    8.4400    8.8940 C   0  0  0  0  0  0  0  0  0  0  0  0
   15.3050    8.0260    8.1630 C   0  0  0  0  0  0  0  0  0  0  0  0
   15.6180    8.7740    7.0300 C   0  0  0  0  0  0  0  0  0  0  0  0
   16.6660    8.5460    6.1990 O   0  0  0  0  0  0  0  0  0  0  0  0
   14.6590   10.4110    0.5770 N   0  0  0  0  0  0  0  0  0  0  0  0
   13.6920   10.4120    1.6650 C   0  0  0  0  0  0  0  0  0  0  0  0
   13.3910    9.0060    2.1520 C   0  0  0  0  0  0  0  0  0  0  0  0
   14.2990    8.4660    2.8520 O   0  0  0  0  0  0  0  0  0  0  0  0
   12.2430    8.5600    1.8620 O   0  0  0  0  0  0  0  0  0  0  0  0
   16.0743    9.8739   -5.0625 H   0  0  0  0  0  0  0  0  0  0  0  0
   15.2082    8.9454   -6.3331 H   0  0  0  0  0  0  0  0  0  0  0  0
   15.1463   10.7406   -6.3331 H   0  0  0  0  0  0  0  0  0  0  0  0
   12.1448    9.4210   -3.2393 H   0  0  0  0  0  0  0  0  0  0  0  0
   12.2240    9.6266   -0.7478 H   0  0  0  0  0  0  0  0  0  0  0  0
   16.3122   10.5129   -3.5271 H   0  0  0  0  0  0  0  0  0  0  0  0
   17.5556   11.0095   -0.8692 H   0  0  0  0  0  0  0  0  0  0  0  0
   17.5682   11.5980    1.8450 H   0  0  0  0  0  0  0  0  0  0  0  0
   16.0374   11.3938    2.7231 H   0  0  0  0  0  0  0  0  0  0  0  0
   16.4480    8.8870    2.3410 H   0  0  0  0  0  0  0  0  0  0  0  0
   15.2285   11.1723    4.8018 H   0  0  0  0  0  0  0  0  0  0  0  0
   13.1770   11.1493    7.0398 H   0  0  0  0  0  0  0  0  0  0  0  0
   12.5589    9.8531    9.0920 H   0  0  0  0  0  0  0  0  0  0  0  0
   13.8942    7.8839    9.7971 H   0  0  0  0  0  0  0  0  0  0  0  0
   15.9058    7.1560    8.4668 H   0  0  0  0  0  0  0  0  0  0  0  0
   14.0978   10.9995    2.5017 H   0  0  0  0  0  0  0  0  0  0  0  0
   12.7560   10.8522    1.2906 H   0  0  0  0  0  0  0  0  0  0  0  0
  1  2  1  0
  2  3  1  0
  3  4  2  0
  4  5  1  0
  5  6  2  0
  6  7  1  0
  7  8  2  0
  7  9  1  0
  9 10  2  0
 10 11  1  0
 11 12  1  0
 12 13  1  0
 13 14  2  0
 13 15  2  0
 13 16  1  0
 16 17  2  0
 17 18  1  0
 18 19  2  0
 19 20  1  0
 20 21  2  0
 21 22  1  0
 22 23  2  0
 23 24  1  0
 10 25  1  0
 25 26  1  0
 26 27  1  0
 27 28  2  0
 27 29  1  0
  8  3  1  0
 24 16  1  0
 25  6  1  0
 23 18  1  0
  1 30  1  0
  1 31  1  0
  1 32  1  0
  4 33  1  0
  5 34  1  0
  8 35  1  0
  9 36  1  0
 11 37  1  0
 11 38  1  0
 12 39  1  0
 17 40  1  0
 19 41  1  0
 20 42  1  0
 21 43  1  0
 22 44  1  0
 26 45  1  0
 26 46  1  0
M  CHG  1  29  -1
M  END
>  <meeko>  (1) 
{"is_sidechain": [false], "free_energy": -9.884, "intermolecular_energy": -13.929, "internal_energy": -1.266}

$$$$
3ivg_ligand
     RDKit          3D

 46 49  0  0  0  0  0  0  0  0999 V2000
   15.1780    9.9270   -5.6610 C   0  0  0  0  0  0  0  0  0  0  0  0
   14.0490    9.8310   -4.8020 O   0  0  0  0  0  0  0  0  0  0  0  0
   14.2860    9.9760   -3.4600 C   0  0  0  0  0  0  0  0  0  0  0  0
   13.1820    9.7250   -2.6460 C   0  0  0  0  0  0  0  0  0  0  0  0
   13.2590    9.8310   -1.2530 C   0  0  0  0  0  0  0  0  0  0  0  0
   14.4870   10.2050   -0.6880 C   0  0  0  0  0  0  0  0  0  0  0  0
   15.6110   10.4500   -1.4760 C   0  0  0  0  0  0  0  0  0  0  0  0
   15.5080   10.3370   -2.8810 C   0  0  0  0  0  0  0  0  0  0  0  0
   16.6780   10.7670   -0.5960 C   0  0  0  0  0  0  0  0  0  0  0  0
   16.2030   10.7150    0.7020 C   0  0  0  0  0  0  0  0  0  0  0  0
   16.9440   10.9120    1.9800 C   0  0  0  0  0  0  0  0  0  0  0  0
   17.5260    9.6170    2.3340 N   0  0  0  0  0  0  0  0  0  0  0  0
   18.4810    9.5820    3.7130 S   0  0  0  0  0  0  0  0  0  0  0  0
   19.4870   10.6180    3.6060 O   0  0  0  0  0  0  0  0  0  0  0  0
   17.5640    9.5430    4.8330 O   0  0  0  0  0  0  0  0  0  0  0  0
   19.3740    8.0310    3.7590 C   0  0  0  0  0  0  0  0  0  0  0  0
   20.7150    7.7420    3.5280 C   0  0  0  0  0  0  0  0  0  0  0  0
   20.8910    6.3440    3.6570 C   0  0  0  0  0  0  0  0  0  0  0  0
   21.9680    5.4500    3.5220 C   0  0  0  0  0  0  0  0  0  0  0  0
   21.7380    4.0840    3.7390 C   0  0  0  0  0  0  0  0  0  0  0  0
   20.4670    3.6150    4.0840 C   0  0  0  0  0  0  0  0  0  0  0  0
   19.3840    4.4910    4.2180 C   0  0  0  0  0  0  0  0  0  0  0  0
   19.6450    5.8400    3.9920 C   0  0  0  0  0  0  0  0  0  0  0  0
   18.7330    6.8420    4.0600 O   0  0  0  0  0  0  0  0  0  0  0  0
   14.8570   10.4020    0.6350 N   0  0  0  0  0  0  0  0  0  0  0  0
   13.9230   10.3950    1.7520 C   0  0  0  0  0  0  0  0  0  0  0  0
   13.7010    8.9920    2.2910 C   0  0  0  0  0  0  0  0  0  0  0  0
   12.6430    8.4190    1.8950 O   0  0  0  0  0  0  0  0  0  0  0  0
   14.6280    8.5320    3.0180 O   0  0  0  0  0  0  0  0  0  0  0  0
   16.0934   10.0048   -5.0561 H   0  0  0  0  0  0  0  0  0  0  0  0
   15.2331    9.0303   -6.2957 H   0  0  0  0  0  0  0  0  0  0  0  0
   15.0809   10.8201   -6.2957 H   0  0  0  0  0  0  0  0  0  0  0  0
   12.2274    9.4367   -3.1103 H   0  0  0  0  0  0  0  0  0  0  0  0
   12.3828    9.6271   -0.6200 H   0  0  0  0  0  0  0  0  0  0  0  0
   16.3843   10.5319   -3.5166 H   0  0  0  0  0  0  0  0  0  0  0  0
   17.7077   11.0124   -0.8952 H   0  0  0  0  0  0  0  0  0  0  0  0
   17.7388   11.6605    1.8456 H   0  0  0  0  0  0  0  0  0  0  0  0
   16.2738   11.2742    2.7735 H   0  0  0  0  0  0  0  0  0  0  0  0
   16.8560    8.8530    2.3270 H   0  0  0  0  0  0  0  0  0  0  0  0
   21.5012    8.4727    3.2871 H   0  0  0  0  0  0  0  0  0  0  0  0
   22.9700    5.8147    3.2518 H   0  0  0  0  0  0  0  0  0  0  0  0
   22.5695    3.3712    3.6363 H   0  0  0  0  0  0  0  0  0  0  0  0
   20.3156    2.5387    4.2531 H   0  0  0  0  0  0  0  0  0  0  0  0
   18.3795    4.1328    4.4876 H   0  0  0  0  0  0  0  0  0  0  0  0
   14.3260   11.0265    2.5574 H   0  0  0  0  0  0  0  0  0  0  0  0
   12.9574   10.7811    1.3936 H   0  0  0  0  0  0  0  0  0  0  0  0
  1  2  1  0
  2  3  1  0
  3  4  2  0
  4  5  1  0
  5  6  2  0
  6  7  1  0
  7  8  2  0
  7  9  1  0
  9 10  2  0
 10 11  1  0
 11 12  1  0
 12 13  1  0
 13 14  2  0
 13 15  2  0
 13 16  1  0
 16 17  2  0
 17 18  1  0
 18 19  2  0
 19 20  1  0
 20 21  2  0
 21 22  1  0
 22 23  2  0
 23 24  1  0
 10 25  1  0
 25 26  1  0
 26 27  1  0
 27 28  2  0
 27 29  1  0
  8  3  1  0
 24 16  1  0
 25  6  1  0
 23 18  1  0
  1 30  1  0
  1 31  1  0
  1 32  1  0
  4 33  1  0
  5 34  1  0
  8 35  1  0
  9 36  1  0
 11 37  1  0
 11 38  1  0
 12 39  1  0
 17 40  1  0
 19 41  1  0
 20 42  1  0
 21 43  1  0
 22 44  1  0
 26 45  1  0
 26 46  1  0
M  CHG  1  29  -1
M  END
>  <meeko>  (2) 
{"is_sidechain": [false], "free_energy": -9.652, "intermolecular_energy": -13.776, "internal_energy": -1.092}

$$$$
3ivg_ligand
     RDKit          3D

 46 49  0  0  0  0  0  0  0  0999 V2000
   12.2750    9.5470   -5.1630 C   0  0  0  0  0  0  0  0  0  0  0  0
   13.6700    9.6750   -4.9250 O   0  0  0  0  0  0  0  0  0  0  0  0
   14.0580    9.8400   -3.6200 C   0  0  0  0  0  0  0  0  0  0  0  0
   13.0430    9.6510   -2.6840 C   0  0  0  0  0  0  0  0  0  0  0  0
   13.2770    9.7850   -1.3110 C   0  0  0  0  0  0  0  0  0  0  0  0
   14.5730   10.1240   -0.8950 C   0  0  0  0  0  0  0  0  0  0  0  0
   15.6100   10.3070   -1.8070 C   0  0  0  0  0  0  0  0  0  0  0  0
   15.3490   10.1670   -3.1890 C   0  0  0  0  0  0  0  0  0  0  0  0
   16.7790   10.6010   -1.0580 C   0  0  0  0  0  0  0  0  0  0  0  0
   16.4490   10.5970    0.2850 C   0  0  0  0  0  0  0  0  0  0  0  0
   17.3340   10.7930    1.4690 C   0  0  0  0  0  0  0  0  0  0  0  0
   18.4740    9.8920    1.2970 N   0  0  0  0  0  0  0  0  0  0  0  0
   19.9880   10.6120    1.2460 S   0  0  0  0  0  0  0  0  0  0  0  0
   20.2060   11.1420   -0.0840 O   0  0  0  0  0  0  0  0  0  0  0  0
   20.0650   11.4660    2.4140 O   0  0  0  0  0  0  0  0  0  0  0  0
   21.2360    9.3500    1.4830 C   0  0  0  0  0  0  0  0  0  0  0  0
   21.3680    8.3670    2.4580 C   0  0  0  0  0  0  0  0  0  0  0  0
   22.5620    7.6520    2.2030 C   0  0  0  0  0  0  0  0  0  0  0  0
   23.2500    6.5930    2.8200 C   0  0  0  0  0  0  0  0  0  0  0  0
   24.4480    6.1460    2.2460 C   0  0  0  0  0  0  0  0  0  0  0  0
   24.9530    6.7360    1.0830 C   0  0  0  0  0  0  0  0  0  0  0  0
   24.2820    7.7930    0.4580 C   0  0  0  0  0  0  0  0  0  0  0  0
   23.0970    8.2160    1.0570 C   0  0  0  0  0  0  0  0  0  0  0  0
   22.3080    9.2290    0.6160 O   0  0  0  0  0  0  0  0  0  0  0  0
   15.0930   10.3350    0.3740 N   0  0  0  0  0  0  0  0  0  0  0  0
   14.2890   10.3890    1.5870 C   0  0  0  0  0  0  0  0  0  0  0  0
   14.0250    9.0040    2.1500 C   0  0  0  0  0  0  0  0  0  0  0  0
   12.9410    8.4630    1.7780 O   0  0  0  0  0  0  0  0  0  0  0  0
   14.9460    8.5210    2.8690 O   0  0  0  0  0  0  0  0  0  0  0  0
   11.7420    9.4981   -4.2020 H   0  0  0  0  0  0  0  0  0  0  0  0
   11.9194   10.4163   -5.7356 H   0  0  0  0  0  0  0  0  0  0  0  0
   12.0836    8.6275   -5.7356 H   0  0  0  0  0  0  0  0  0  0  0  0
   12.0330    9.3901   -3.0331 H   0  0  0  0  0  0  0  0  0  0  0  0
   12.4696    9.6293   -0.5804 H   0  0  0  0  0  0  0  0  0  0  0  0
   16.1560   10.3142   -3.9219 H   0  0  0  0  0  0  0  0  0  0  0  0
   17.7777   10.7985   -1.4748 H   0  0  0  0  0  0  0  0  0  0  0  0
   17.6793   11.8364    1.5154 H   0  0  0  0  0  0  0  0  0  0  0  0
   16.7967   10.5765    2.4041 H   0  0  0  0  0  0  0  0  0  0  0  0
   18.4630    9.0950    1.9260 H   0  0  0  0  0  0  0  0  0  0  0  0
   20.6662    8.1782    3.2837 H   0  0  0  0  0  0  0  0  0  0  0  0
   22.8565    6.1248    3.7343 H   0  0  0  0  0  0  0  0  0  0  0  0
   24.9991    5.3189    2.7173 H   0  0  0  0  0  0  0  0  0  0  0  0
   25.8938    6.3628    0.6521 H   0  0  0  0  0  0  0  0  0  0  0  0
   24.6692    8.2648   -0.4572 H   0  0  0  0  0  0  0  0  0  0  0  0
   14.8231   10.9845    2.3421 H   0  0  0  0  0  0  0  0  0  0  0  0
   13.3207   10.8464    1.3356 H   0  0  0  0  0  0  0  0  0  0  0  0
  1  2  1  0
  2  3  1  0
  3  4  2  0
  4  5  1  0
  5  6  2  0
  6  7  1  0
  7  8  2  0
  7  9  1  0
  9 10  2  0
 10 11  1  0
 11 12  1  0
 12 13  1  0
 13 14  2  0
 13 15  2  0
 13 16  1  0
 16 17  2  0
 17 18  1  0
 18 19  2  0
 19 20  1  0
 20 21  2  0
 21 22  1  0
 22 23  2  0
 23 24  1  0
 10 25  1  0
 25 26  1  0
 26 27  1  0
 27 28  2  0
 27 29  1  0
  8  3  1  0
 24 16  1  0
 25  6  1  0
 23 18  1  0
  1 30  1  0
  1 31  1  0
  1 32  1  0
  4 33  1  0
  5 34  1  0
  8 35  1  0
  9 36  1  0
 11 37  1  0
 11 38  1  0
 12 39  1  0
 17 40  1  0
 19 41  1  0
 20 42  1  0
 21 43  1  0
 22 44  1  0
 26 45  1  0
 26 46  1  0
M  CHG  1  29  -1
M  END
>  <meeko>  (3) 
{"is_sidechain": [false], "free_energy": -9.545, "intermolecular_energy": -13.885, "internal_energy": -0.832}

$$$$
3ivg_ligand
     RDKit          3D

 46 49  0  0  0  0  0  0  0  0999 V2000
   11.9660    9.2800   -4.8600 C   0  0  0  0  0  0  0  0  0  0  0  0
   13.3190    9.7110   -4.7960 O   0  0  0  0  0  0  0  0  0  0  0  0
   13.8560    9.8660   -3.5440 C   0  0  0  0  0  0  0  0  0  0  0  0
   12.9590    9.6590   -2.4980 C   0  0  0  0  0  0  0  0  0  0  0  0
   13.3510    9.7810   -1.1600 C   0  0  0  0  0  0  0  0  0  0  0  0
   14.6850   10.1250   -0.8950 C   0  0  0  0  0  0  0  0  0  0  0  0
   15.6070   10.3250   -1.9200 C   0  0  0  0  0  0  0  0  0  0  0  0
   15.1870   10.1970   -3.2630 C   0  0  0  0  0  0  0  0  0  0  0  0
   16.8540   10.6210   -1.3100 C   0  0  0  0  0  0  0  0  0  0  0  0
   16.6830   10.6010    0.0630 C   0  0  0  0  0  0  0  0  0  0  0  0
   17.6990   10.7910    1.1370 C   0  0  0  0  0  0  0  0  0  0  0  0
   18.6250    9.6620    1.0470 N   0  0  0  0  0  0  0  0  0  0  0  0
   20.1760   10.0130    0.5140 S   0  0  0  0  0  0  0  0  0  0  0  0
   20.6510    8.9100   -0.2930 O   0  0  0  0  0  0  0  0  0  0  0  0
   20.1200   11.3600   -0.0180 O   0  0  0  0  0  0  0  0  0  0  0  0
   21.2690   10.0940    1.9290 C   0  0  0  0  0  0  0  0  0  0  0  0
   22.6200   10.4140    2.0240 C   0  0  0  0  0  0  0  0  0  0  0  0
   23.0080   10.2890    3.3790 C   0  0  0  0  0  0  0  0  0  0  0  0
   24.2050   10.4400    4.0990 C   0  0  0  0  0  0  0  0  0  0  0  0
   24.1880   10.2200    5.4840 C   0  0  0  0  0  0  0  0  0  0  0  0
   23.0080    9.8590    6.1400 C   0  0  0  0  0  0  0  0  0  0  0  0
   21.8080    9.7000    5.4370 C   0  0  0  0  0  0  0  0  0  0  0  0
   21.8600    9.9220    4.0620 C   0  0  0  0  0  0  0  0  0  0  0  0
   20.8150    9.8080    3.2050 O   0  0  0  0  0  0  0  0  0  0  0  0
   15.3490   10.3270    0.3070 N   0  0  0  0  0  0  0  0  0  0  0  0
   14.6920   10.3630    1.6060 C   0  0  0  0  0  0  0  0  0  0  0  0
   14.6570    8.9920    2.2580 C   0  0  0  0  0  0  0  0  0  0  0  0
   15.6490    8.7160    2.9970 O   0  0  0  0  0  0  0  0  0  0  0  0
   13.6130    8.3110    2.0440 O   0  0  0  0  0  0  0  0  0  0  0  0
   11.5725    9.1546   -3.8405 H   0  0  0  0  0  0  0  0  0  0  0  0
   11.3666   10.0317   -5.3945 H   0  0  0  0  0  0  0  0  0  0  0  0
   11.9118    8.3201   -5.3945 H   0  0  0  0  0  0  0  0  0  0  0  0
   11.9170    9.3931   -2.7296 H   0  0  0  0  0  0  0  0  0  0  0  0
   12.6355    9.6124   -0.3417 H   0  0  0  0  0  0  0  0  0  0  0  0
   15.9021   10.3566   -4.0835 H   0  0  0  0  0  0  0  0  0  0  0  0
   17.7957   10.8305   -1.8385 H   0  0  0  0  0  0  0  0  0  0  0  0
   18.2392   11.7370    0.9843 H   0  0  0  0  0  0  0  0  0  0  0  0
   17.2230   10.8332    2.1278 H   0  0  0  0  0  0  0  0  0  0  0  0
   18.6410    9.0790    1.8790 H   0  0  0  0  0  0  0  0  0  0  0  0
   23.2729   10.7123    1.1905 H   0  0  0  0  0  0  0  0  0  0  0  0
   25.1360   10.7248    3.5871 H   0  0  0  0  0  0  0  0  0  0  0  0
   25.1168   10.3332    6.0623 H   0  0  0  0  0  0  0  0  0  0  0  0
   23.0224    9.6969    7.2279 H   0  0  0  0  0  0  0  0  0  0  0  0
   20.8737    9.4150    5.9428 H   0  0  0  0  0  0  0  0  0  0  0  0
   15.2388   11.0557    2.2626 H   0  0  0  0  0  0  0  0  0  0  0  0
   13.6547   10.6968    1.4556 H   0  0  0  0  0  0  0  0  0  0  0  0
  1  2  1  0
  2  3  1  0
  3  4  2  0
  4  5  1  0
  5  6  2  0
  6  7  1  0
  7  8  2  0
  7  9  1  0
  9 10  2  0
 10 11  1  0
 11 12  1  0
 12 13  1  0
 13 14  2  0
 13 15  2  0
 13 16  1  0
 16 17  2  0
 17 18  1  0
 18 19  2  0
 19 20  1  0
 20 21  2  0
 21 22  1  0
 22 23  2  0
 23 24  1  0
 10 25  1  0
 25 26  1  0
 26 27  1  0
 27 28  2  0
 27 29  1  0
  8  3  1  0
 24 16  1  0
 25  6  1  0
 23 18  1  0
  1 30  1  0
  1 31  1  0
  1 32  1  0
  4 33  1  0
  5 34  1  0
  8 35  1  0
  9 36  1  0
 11 37  1  0
 11 38  1  0
 12 39  1  0
 17 40  1  0
 19 41  1  0
 20 42  1  0
 21 43  1  0
 22 44  1  0
 26 45  1  0
 26 46  1  0
M  CHG  1  29  -1
M  END
>  <meeko>  (4) 
{"is_sidechain": [false], "free_energy": -9.459, "intermolecular_energy": -13.615, "internal_energy": -0.981}

$$$$
3ivg_ligand
     RDKit          3D

 46 49  0  0  0  0  0  0  0  0999 V2000
   15.1950    9.8820   -5.6760 C   0  0  0  0  0  0  0  0  0  0  0  0
   14.0490    9.8280   -4.8370 O   0  0  0  0  0  0  0  0  0  0  0  0
   14.2680    9.9640   -3.4900 C   0  0  0  0  0  0  0  0  0  0  0  0
   13.1360    9.7840   -2.6970 C   0  0  0  0  0  0  0  0  0  0  0  0
   13.1920    9.8920   -1.3040 C   0  0  0  0  0  0  0  0  0  0  0  0
   14.4290   10.1950   -0.7160 C   0  0  0  0  0  0  0  0  0  0  0  0
   15.5800   10.3680   -1.4830 C   0  0  0  0  0  0  0  0  0  0  0  0
   15.4980   10.2540   -2.8890 C   0  0  0  0  0  0  0  0  0  0  0  0
   16.6470   10.6240   -0.5830 C   0  0  0  0  0  0  0  0  0  0  0  0
   16.1450   10.6080    0.7060 C   0  0  0  0  0  0  0  0  0  0  0  0
   16.8720   10.7650    1.9980 C   0  0  0  0  0  0  0  0  0  0  0  0
   17.3110    9.4290    2.4010 N   0  0  0  0  0  0  0  0  0  0  0  0
   18.6640    9.3580    3.3890 S   0  0  0  0  0  0  0  0  0  0  0  0
   18.9090   10.6750    3.9370 O   0  0  0  0  0  0  0  0  0  0  0  0
   18.4680    8.2120    4.2540 O   0  0  0  0  0  0  0  0  0  0  0  0
   20.0940    8.9700    2.3840 C   0  0  0  0  0  0  0  0  0  0  0  0
   20.4020    9.2970    1.0670 C   0  0  0  0  0  0  0  0  0  0  0  0
   21.6470    8.7060    0.7460 C   0  0  0  0  0  0  0  0  0  0  0  0
   22.4640    8.6420   -0.3960 C   0  0  0  0  0  0  0  0  0  0  0  0
   23.6710    7.9340   -0.3180 C   0  0  0  0  0  0  0  0  0  0  0  0
   24.0600    7.3030    0.8680 C   0  0  0  0  0  0  0  0  0  0  0  0
   23.2560    7.3550    2.0120 C   0  0  0  0  0  0  0  0  0  0  0  0
   22.0620    8.0630    1.9000 C   0  0  0  0  0  0  0  0  0  0  0  0
   21.1430    8.2190    2.8860 O   0  0  0  0  0  0  0  0  0  0  0  0
   14.7840   10.3750    0.6130 N   0  0  0  0  0  0  0  0  0  0  0  0
   13.8300   10.4300    1.7120 C   0  0  0  0  0  0  0  0  0  0  0  0
   13.5000    9.0450    2.2400 C   0  0  0  0  0  0  0  0  0  0  0  0
   14.3440    8.5560    3.0490 O   0  0  0  0  0  0  0  0  0  0  0  0
   12.3890    8.5670    1.8670 O   0  0  0  0  0  0  0  0  0  0  0  0
   16.1021    9.9247   -5.0553 H   0  0  0  0  0  0  0  0  0  0  0  0
   15.2272    8.9844   -6.3110 H   0  0  0  0  0  0  0  0  0  0  0  0
   15.1426   10.7787   -6.3110 H   0  0  0  0  0  0  0  0  0  0  0  0
   12.1749    9.5513   -3.1788 H   0  0  0  0  0  0  0  0  0  0  0  0
   12.2930    9.7438   -0.6877 H   0  0  0  0  0  0  0  0  0  0  0  0
   16.3966   10.3925   -3.5081 H   0  0  0  0  0  0  0  0  0  0  0  0
   17.6954   10.8045   -0.8629 H   0  0  0  0  0  0  0  0  0  0  0  0
   17.7416   11.4254    1.8654 H   0  0  0  0  0  0  0  0  0  0  0  0
   16.2232   11.2150    2.7638 H   0  0  0  0  0  0  0  0  0  0  0  0
   16.5620    8.8420    2.7540 H   0  0  0  0  0  0  0  0  0  0  0  0
   19.7848    9.9087    0.3925 H   0  0  0  0  0  0  0  0  0  0  0  0
   22.1625    9.1370   -1.3309 H   0  0  0  0  0  0  0  0  0  0  0  0
   24.3220    7.8737   -1.2026 H   0  0  0  0  0  0  0  0  0  0  0  0
   25.0141    6.7566    0.9020 H   0  0  0  0  0  0  0  0  0  0  0  0
   23.5514    6.8627    2.9503 H   0  0  0  0  0  0  0  0  0  0  0  0
   14.2604   11.0292    2.5279 H   0  0  0  0  0  0  0  0  0  0  0  0
   12.9009   10.8840    1.3368 H   0  0  0  0  0  0  0  0  0  0  0  0
  1  2  1  0
  2  3  1  0
  3  4  2  0
  4  5  1  0
  5  6  2  0
  6  7  1  0
  7  8  2  0
  7  9  1  0
  9 10  2  0
 10 11  1  0
 11 12  1  0
 12 13  1  0
 13 14  2  0
 13 15  2  0
 13 16  1  0
 16 17  2  0
 17 18  1  0
 18 19  2  0
 19 20  1  0
 20 21  2  0
 21 22  1  0
 22 23  2  0
 23 24  1  0
 10 25  1  0
 25 26  1  0
 26 27  1  0
 27 28  2  0
 27 29  1  0
  8  3  1  0
 24 16  1  0
 25  6  1  0
 23 18  1  0
  1 30  1  0
  1 31  1  0
  1 32  1  0
  4 33  1  0
  5 34  1  0
  8 35  1  0
  9 36  1  0
 11 37  1  0
 11 38  1  0
 12 39  1  0
 17 40  1  0
 19 41  1  0
 20 42  1  0
 21 43  1  0
 22 44  1  0
 26 45  1  0
 26 46  1  0
M  CHG  1  29  -1
M  END
>  <meeko>  (5) 
{"is_sidechain": [false], "free_energy": -9.435, "intermolecular_energy": -13.384, "internal_energy": -1.178}

$$$$
3ivg_ligand
     RDKit          3D

 46 49  0  0  0  0  0  0  0  0999 V2000
   14.3930    8.4150    9.3210 C   0  0  0  0  0  0  0  0  0  0  0  0
   15.3940    7.9810    8.4110 O   0  0  0  0  0  0  0  0  0  0  0  0
   15.3570    8.5250    7.1530 C   0  0  0  0  0  0  0  0  0  0  0  0
   14.0860    8.5910    6.5850 C   0  0  0  0  0  0  0  0  0  0  0  0
   13.8800    9.1180    5.3060 C   0  0  0  0  0  0  0  0  0  0  0  0
   14.9990    9.5800    4.5970 C   0  0  0  0  0  0  0  0  0  0  0  0
   16.2810    9.5380    5.1440 C   0  0  0  0  0  0  0  0  0  0  0  0
   16.4630    9.0000    6.4380 C   0  0  0  0  0  0  0  0  0  0  0  0
   17.1620   10.1080    4.1890 C   0  0  0  0  0  0  0  0  0  0  0  0
   16.4220   10.4850    3.0830 C   0  0  0  0  0  0  0  0  0  0  0  0
   16.8750   11.1770    1.8430 C   0  0  0  0  0  0  0  0  0  0  0  0
   17.7250   10.2310    1.1180 N   0  0  0  0  0  0  0  0  0  0  0  0
   18.0890   10.6250   -0.4710 S   0  0  0  0  0  0  0  0  0  0  0  0
   18.3970   12.0380   -0.5410 O   0  0  0  0  0  0  0  0  0  0  0  0
   19.0390    9.6290   -0.9220 O   0  0  0  0  0  0  0  0  0  0  0  0
   16.6240   10.3900   -1.4740 C   0  0  0  0  0  0  0  0  0  0  0  0
   15.2910   10.2190   -1.1170 C   0  0  0  0  0  0  0  0  0  0  0  0
   14.5390   10.0370   -2.3020 C   0  0  0  0  0  0  0  0  0  0  0  0
   13.1880    9.7940   -2.6080 C   0  0  0  0  0  0  0  0  0  0  0  0
   12.8170    9.6690   -3.9540 C   0  0  0  0  0  0  0  0  0  0  0  0
   13.7650    9.7820   -4.9750 C   0  0  0  0  0  0  0  0  0  0  0  0
   15.1140   10.0190   -4.6870 C   0  0  0  0  0  0  0  0  0  0  0  0
   15.4500   10.1350   -3.3410 C   0  0  0  0  0  0  0  0  0  0  0  0
   16.6990   10.3510   -2.8550 O   0  0  0  0  0  0  0  0  0  0  0  0
   15.1070   10.1310    3.3280 N   0  0  0  0  0  0  0  0  0  0  0  0
   14.0100   10.2000    2.3730 C   0  0  0  0  0  0  0  0  0  0  0  0
   13.6140    8.8240    1.8690 C   0  0  0  0  0  0  0  0  0  0  0  0
   14.5370    7.9560    1.8760 O   0  0  0  0  0  0  0  0  0  0  0  0
   12.3940    8.6830    1.5640 O   0  0  0  0  0  0  0  0  0  0  0  0
   14.7441    8.2628   10.3523 H   0  0  0  0  0  0  0  0  0  0  0  0
   14.1872    9.4832    9.1576 H   0  0  0  0  0  0  0  0  0  0  0  0
   13.4727    7.8351    9.1576 H   0  0  0  0  0  0  0  0  0  0  0  0
   13.2231    8.2192    7.1571 H   0  0  0  0  0  0  0  0  0  0  0  0
   12.8716    9.1687    4.8694 H   0  0  0  0  0  0  0  0  0  0  0  0
   17.4687    8.9547    6.8813 H   0  0  0  0  0  0  0  0  0  0  0  0
   18.2488   10.2294    4.3080 H   0  0  0  0  0  0  0  0  0  0  0  0
   16.0077   11.4563    1.2267 H   0  0  0  0  0  0  0  0  0  0  0  0
   17.4255   12.0985    2.0836 H   0  0  0  0  0  0  0  0  0  0  0  0
   18.5570    9.9530    1.6310 H   0  0  0  0  0  0  0  0  0  0  0  0
   14.8909   10.2243   -0.0924 H   0  0  0  0  0  0  0  0  0  0  0  0
   12.4383    9.7039   -1.8081 H   0  0  0  0  0  0  0  0  0  0  0  0
   11.7643    9.4792   -4.2106 H   0  0  0  0  0  0  0  0  0  0  0  0
   13.4453    9.6830   -6.0228 H   0  0  0  0  0  0  0  0  0  0  0  0
   15.8688   10.1089   -5.4821 H   0  0  0  0  0  0  0  0  0  0  0  0
   13.1407   10.6638    2.8621 H   0  0  0  0  0  0  0  0  0  0  0  0
   14.3438   10.7967    1.5113 H   0  0  0  0  0  0  0  0  0  0  0  0
  1  2  1  0
  2  3  1  0
  3  4  2  0
  4  5  1  0
  5  6  2  0
  6  7  1  0
  7  8  2  0
  7  9  1  0
  9 10  2  0
 10 11  1  0
 11 12  1  0
 12 13  1  0
 13 14  2  0
 13 15  2  0
 13 16  1  0
 16 17  2  0
 17 18  1  0
 18 19  2  0
 19 20  1  0
 20 21  2  0
 21 22  1  0
 22 23  2  0
 23 24  1  0
 10 25  1  0
 25 26  1  0
 26 27  1  0
 27 28  2  0
 27 29  1  0
  8  3  1  0
 24 16  1  0
 25  6  1  0
 23 18  1  0
  1 30  1  0
  1 31  1  0
  1 32  1  0
  4 33  1  0
  5 34  1  0
  8 35  1  0
  9 36  1  0
 11 37  1  0
 11 38  1  0
 12 39  1  0
 17 40  1  0
 19 41  1  0
 20 42  1  0
 21 43  1  0
 22 44  1  0
 26 45  1  0
 26 46  1  0
M  CHG  1  29  -1
M  END
>  <meeko>  (6) 
{"is_sidechain": [false], "free_energy": -9.104, "intermolecular_energy": -13.344, "internal_energy": -0.752}

$$$$
3ivg_ligand
     RDKit          3D

 46 49  0  0  0  0  0  0  0  0999 V2000
   14.4480    8.7290    8.8990 C   0  0  0  0  0  0  0  0  0  0  0  0
   15.5400    8.4120    8.0470 O   0  0  0  0  0  0  0  0  0  0  0  0
   15.4550    8.8520    6.7510 C   0  0  0  0  0  0  0  0  0  0  0  0
   14.1710    8.8260    6.2120 C   0  0  0  0  0  0  0  0  0  0  0  0
   13.9170    9.2410    4.9000 C   0  0  0  0  0  0  0  0  0  0  0  0
   15.0010    9.6850    4.1290 C   0  0  0  0  0  0  0  0  0  0  0  0
   16.2950    9.7340    4.6460 C   0  0  0  0  0  0  0  0  0  0  0  0
   16.5260    9.3090    5.9730 C   0  0  0  0  0  0  0  0  0  0  0  0
   17.1330   10.2580    3.6270 C   0  0  0  0  0  0  0  0  0  0  0  0
   16.3550   10.5180    2.5130 C   0  0  0  0  0  0  0  0  0  0  0  0
   16.7540   11.1240    1.2120 C   0  0  0  0  0  0  0  0  0  0  0  0
   17.3560   10.0550    0.4150 N   0  0  0  0  0  0  0  0  0  0  0  0
   18.6780   10.4830   -0.5250 S   0  0  0  0  0  0  0  0  0  0  0  0
   18.4400   10.0490   -1.8860 O   0  0  0  0  0  0  0  0  0  0  0  0
   18.9520   11.8720   -0.2200 O   0  0  0  0  0  0  0  0  0  0  0  0
   20.1090    9.5680    0.0390 C   0  0  0  0  0  0  0  0  0  0  0  0
   20.4190    9.0340    1.2860 C   0  0  0  0  0  0  0  0  0  0  0  0
   21.6990    8.4370    1.2030 C   0  0  0  0  0  0  0  0  0  0  0  0
   22.5590    7.7750    2.0970 C   0  0  0  0  0  0  0  0  0  0  0  0
   23.7920    7.3090    1.6210 C   0  0  0  0  0  0  0  0  0  0  0  0
   24.1650    7.4950    0.2860 C   0  0  0  0  0  0  0  0  0  0  0  0
   23.3220    8.1550   -0.6150 C   0  0  0  0  0  0  0  0  0  0  0  0
   22.1060    8.6090   -0.1090 C   0  0  0  0  0  0  0  0  0  0  0  0
   21.1600    9.2800   -0.8140 O   0  0  0  0  0  0  0  0  0  0  0  0
   15.0600   10.1360    2.8190 N   0  0  0  0  0  0  0  0  0  0  0  0
   13.9400   10.0890    1.8890 C   0  0  0  0  0  0  0  0  0  0  0  0
   13.9100    8.7860    1.1090 C   0  0  0  0  0  0  0  0  0  0  0  0
   13.3450    7.8150    1.6950 O   0  0  0  0  0  0  0  0  0  0  0  0
   14.3900    8.8370   -0.0600 O   0  0  0  0  0  0  0  0  0  0  0  0
   14.7634    8.6374    9.9488 H   0  0  0  0  0  0  0  0  0  0  0  0
   14.1180    9.7600    8.7039 H   0  0  0  0  0  0  0  0  0  0  0  0
   13.6172    8.0350    8.7039 H   0  0  0  0  0  0  0  0  0  0  0  0
   13.3357    8.4704    6.8332 H   0  0  0  0  0  0  0  0  0  0  0  0
   12.8981    9.2196    4.4860 H   0  0  0  0  0  0  0  0  0  0  0  0
   17.5422    9.3368    6.3933 H   0  0  0  0  0  0  0  0  0  0  0  0
   18.2166   10.4283    3.7092 H   0  0  0  0  0  0  0  0  0  0  0  0
   15.8710   11.5295    0.6964 H   0  0  0  0  0  0  0  0  0  0  0  0
   17.4632   11.9513    1.3628 H   0  0  0  0  0  0  0  0  0  0  0  0
   17.5340    9.2040    0.9400 H   0  0  0  0  0  0  0  0  0  0  0  0
   19.7800    9.0698    2.1807 H   0  0  0  0  0  0  0  0  0  0  0  0
   22.2701    7.6260    3.1479 H   0  0  0  0  0  0  0  0  0  0  0  0
   24.4765    6.7893    2.3075 H   0  0  0  0  0  0  0  0  0  0  0  0
   25.1374    7.1161   -0.0616 H   0  0  0  0  0  0  0  0  0  0  0  0
   23.6045    8.3073   -1.6671 H   0  0  0  0  0  0  0  0  0  0  0  0
   13.0022   10.1867    2.4555 H   0  0  0  0  0  0  0  0  0  0  0  0
   14.0558   10.9148    1.1716 H   0  0  0  0  0  0  0  0  0  0  0  0
  1  2  1  0
  2  3  1  0
  3  4  2  0
  4  5  1  0
  5  6  2  0
  6  7  1  0
  7  8  2  0
  7  9  1  0
  9 10  2  0
 10 11  1  0
 11 12  1  0
 12 13  1  0
 13 14  2  0
 13 15  2  0
 13 16  1  0
 16 17  2  0
 17 18  1  0
 18 19  2  0
 19 20  1  0
 20 21  2  0
 21 22  1  0
 22 23  2  0
 23 24  1  0
 10 25  1  0
 25 26  1  0
 26 27  1  0
 27 28  2  0
 27 29  1  0
  8  3  1  0
 24 16  1  0
 25  6  1  0
 23 18  1  0
  1 30  1  0
  1 31  1  0
  1 32  1  0
  4 33  1  0
  5 34  1  0
  8 35  1  0
  9 36  1  0
 11 37  1  0
 11 38  1  0
 12 39  1  0
 17 40  1  0
 19 41  1  0
 20 42  1  0
 21 43  1  0
 22 44  1  0
 26 45  1  0
 26 46  1  0
M  CHG  1  29  -1
M  END
>  <meeko>  (7) 
{"is_sidechain": [false], "free_energy": -9.029, "intermolecular_energy": -12.8, "internal_energy": -1.191}

$$$$
3ivg_ligand
     RDKit          3D

 46 49  0  0  0  0  0  0  0  0999 V2000
   13.4320    9.9950    8.4900 C   0  0  0  0  0  0  0  0  0  0  0  0
   13.3470    9.7450    7.0940 O   0  0  0  0  0  0  0  0  0  0  0  0
   14.5240    9.7780    6.3910 C   0  0  0  0  0  0  0  0  0  0  0  0
   15.5270    8.9530    6.8980 C   0  0  0  0  0  0  0  0  0  0  0  0
   16.7870    8.8760    6.2960 C   0  0  0  0  0  0  0  0  0  0  0  0
   17.0220    9.6620    5.1580 C   0  0  0  0  0  0  0  0  0  0  0  0
   16.0340   10.4860    4.6220 C   0  0  0  0  0  0  0  0  0  0  0  0
   14.7700   10.5480    5.2480 C   0  0  0  0  0  0  0  0  0  0  0  0
   16.5860   11.1040    3.4700 C   0  0  0  0  0  0  0  0  0  0  0  0
   17.8870   10.6600    3.3160 C   0  0  0  0  0  0  0  0  0  0  0  0
   18.8630   10.9700    2.2330 C   0  0  0  0  0  0  0  0  0  0  0  0
   18.6900    9.9440    1.2040 N   0  0  0  0  0  0  0  0  0  0  0  0
   18.7170   10.4760   -0.3870 S   0  0  0  0  0  0  0  0  0  0  0  0
   19.0450   11.8860   -0.4000 O   0  0  0  0  0  0  0  0  0  0  0  0
   19.5190    9.5140   -1.1160 O   0  0  0  0  0  0  0  0  0  0  0  0
   17.0660   10.3480   -1.0660 C   0  0  0  0  0  0  0  0  0  0  0  0
   15.8240   10.2850   -0.4440 C   0  0  0  0  0  0  0  0  0  0  0  0
   14.8340   10.1520   -1.4470 C   0  0  0  0  0  0  0  0  0  0  0  0
   13.4360   10.0140   -1.4670 C   0  0  0  0  0  0  0  0  0  0  0  0
   12.7900    9.9060   -2.7060 C   0  0  0  0  0  0  0  0  0  0  0  0
   13.5160    9.9350   -3.9010 C   0  0  0  0  0  0  0  0  0  0  0  0
   14.9090   10.0680   -3.8980 C   0  0  0  0  0  0  0  0  0  0  0  0
   15.5200   10.1690   -2.6500 C   0  0  0  0  0  0  0  0  0  0  0  0
   16.8540   10.2910   -2.4330 O   0  0  0  0  0  0  0  0  0  0  0  0
   18.1550    9.8030    4.3700 N   0  0  0  0  0  0  0  0  0  0  0  0
   19.4510    9.2240    4.6930 C   0  0  0  0  0  0  0  0  0  0  0  0
   19.6830    7.9160    3.9570 C   0  0  0  0  0  0  0  0  0  0  0  0
   19.0920    6.9060    4.4430 O   0  0  0  0  0  0  0  0  0  0  0  0
   20.3830    7.9960    2.9060 O   0  0  0  0  0  0  0  0  0  0  0  0
   13.1259    9.0947    9.0430 H   0  0  0  0  0  0  0  0  0  0  0  0
   14.4683   10.2528    8.7539 H   0  0  0  0  0  0  0  0  0  0  0  0
   12.7676   10.8310    8.7539 H   0  0  0  0  0  0  0  0  0  0  0  0
   15.3223    8.3478    7.7935 H   0  0  0  0  0  0  0  0  0  0  0  0
   17.5700    8.2190    6.7025 H   0  0  0  0  0  0  0  0  0  0  0  0
   13.9823   11.1982    4.8396 H   0  0  0  0  0  0  0  0  0  0  0  0
   16.0671   11.8157    2.8110 H   0  0  0  0  0  0  0  0  0  0  0  0
   18.6594   11.9661    1.8130 H   0  0  0  0  0  0  0  0  0  0  0  0
   19.8933   10.9738    2.6183 H   0  0  0  0  0  0  0  0  0  0  0  0
   19.2850    9.1310    1.3340 H   0  0  0  0  0  0  0  0  0  0  0  0
   15.6422   10.3306    0.6399 H   0  0  0  0  0  0  0  0  0  0  0  0
   12.8605    9.9912   -0.5298 H   0  0  0  0  0  0  0  0  0  0  0  0
   11.6959    9.7968   -2.7391 H   0  0  0  0  0  0  0  0  0  0  0  0
   12.9829    9.8518   -4.8596 H   0  0  0  0  0  0  0  0  0  0  0  0
   15.4907   10.0916   -4.8313 H   0  0  0  0  0  0  0  0  0  0  0  0
   20.2399    9.9366    4.4102 H   0  0  0  0  0  0  0  0  0  0  0  0
   19.4738    9.0175    5.7732 H   0  0  0  0  0  0  0  0  0  0  0  0
  1  2  1  0
  2  3  1  0
  3  4  2  0
  4  5  1  0
  5  6  2  0
  6  7  1  0
  7  8  2  0
  7  9  1  0
  9 10  2  0
 10 11  1  0
 11 12  1  0
 12 13  1  0
 13 14  2  0
 13 15  2  0
 13 16  1  0
 16 17  2  0
 17 18  1  0
 18 19  2  0
 19 20  1  0
 20 21  2  0
 21 22  1  0
 22 23  2  0
 23 24  1  0
 10 25  1  0
 25 26  1  0
 26 27  1  0
 27 28  2  0
 27 29  1  0
  8  3  1  0
 24 16  1  0
 25  6  1  0
 23 18  1  0
  1 30  1  0
  1 31  1  0
  1 32  1  0
  4 33  1  0
  5 34  1  0
  8 35  1  0
  9 36  1  0
 11 37  1  0
 11 38  1  0
 12 39  1  0
 17 40  1  0
 19 41  1  0
 20 42  1  0
 21 43  1  0
 22 44  1  0
 26 45  1  0
 26 46  1  0
M  CHG  1  29  -1
M  END
>  <meeko>  (8) 
{"is_sidechain": [false], "free_energy": -8.94, "intermolecular_energy": -12.641, "internal_energy": -1.224}

$$$$
3ivg_ligand
     RDKit          3D

 46 49  0  0  0  0  0  0  0  0999 V2000
   21.3830    4.3770    3.3190 C   0  0  0  0  0  0  0  0  0  0  0  0
   21.2470    5.4160    4.2780 O   0  0  0  0  0  0  0  0  0  0  0  0
   20.5670    6.5370    3.8770 C   0  0  0  0  0  0  0  0  0  0  0  0
   21.3020    7.4030    3.0690 C   0  0  0  0  0  0  0  0  0  0  0  0
   20.7510    8.5920    2.5780 C   0  0  0  0  0  0  0  0  0  0  0  0
   19.4280    8.8980    2.9280 C   0  0  0  0  0  0  0  0  0  0  0  0
   18.6650    8.0450    3.7230 C   0  0  0  0  0  0  0  0  0  0  0  0
   19.2430    6.8500    4.2070 C   0  0  0  0  0  0  0  0  0  0  0  0
   17.3790    8.6310    3.8510 C   0  0  0  0  0  0  0  0  0  0  0  0
   17.3680    9.8200    3.1450 C   0  0  0  0  0  0  0  0  0  0  0  0
   16.2420   10.7710    2.9260 C   0  0  0  0  0  0  0  0  0  0  0  0
   15.8690   10.6660    1.5150 N   0  0  0  0  0  0  0  0  0  0  0  0
   14.3930    9.9390    1.1880 S   0  0  0  0  0  0  0  0  0  0  0  0
   14.4530    8.5550    1.6070 O   0  0  0  0  0  0  0  0  0  0  0  0
   13.3820   10.8360    1.7110 O   0  0  0  0  0  0  0  0  0  0  0  0
   14.1450    9.9060   -0.5840 C   0  0  0  0  0  0  0  0  0  0  0  0
   13.0020    9.6740   -1.3430 C   0  0  0  0  0  0  0  0  0  0  0  0
   13.3640    9.7250   -2.7100 C   0  0  0  0  0  0  0  0  0  0  0  0
   12.6950    9.5500   -3.9340 C   0  0  0  0  0  0  0  0  0  0  0  0
   13.4240    9.6860   -5.1230 C   0  0  0  0  0  0  0  0  0  0  0  0
   14.7890    9.9880   -5.0990 C   0  0  0  0  0  0  0  0  0  0  0  0
   15.4710   10.1610   -3.8900 C   0  0  0  0  0  0  0  0  0  0  0  0
   14.7180   10.0160   -2.7270 C   0  0  0  0  0  0  0  0  0  0  0  0
   15.1930   10.1310   -1.4600 O   0  0  0  0  0  0  0  0  0  0  0  0
   18.6330    9.9900    2.6090 N   0  0  0  0  0  0  0  0  0  0  0  0
   19.1180   11.1780    1.9210 C   0  0  0  0  0  0  0  0  0  0  0  0
   19.2850   10.9370    0.4310 C   0  0  0  0  0  0  0  0  0  0  0  0
   20.4090   11.2680   -0.0510 O   0  0  0  0  0  0  0  0  0  0  0  0
   18.3110   10.3700   -0.1440 O   0  0  0  0  0  0  0  0  0  0  0  0
   21.5090    3.4145    3.8365 H   0  0  0  0  0  0  0  0  0  0  0  0
   20.4821    4.3394    2.6889 H   0  0  0  0  0  0  0  0  0  0  0  0
   22.2632    4.5725    2.6889 H   0  0  0  0  0  0  0  0  0  0  0  0
   22.3399    7.1456    2.8112 H   0  0  0  0  0  0  0  0  0  0  0  0
   21.3379    9.2662    1.9369 H   0  0  0  0  0  0  0  0  0  0  0  0
   18.6555    6.1688    4.8401 H   0  0  0  0  0  0  0  0  0  0  0  0
   16.5340    8.2107    4.4161 H   0  0  0  0  0  0  0  0  0  0  0  0
   15.3882   10.5006    3.5646 H   0  0  0  0  0  0  0  0  0  0  0  0
   16.5383   11.7993    3.1807 H   0  0  0  0  0  0  0  0  0  0  0  0
   15.9790   11.5330    0.9980 H   0  0  0  0  0  0  0  0  0  0  0  0
   11.9927    9.4840   -0.9489 H   0  0  0  0  0  0  0  0  0  0  0  0
   11.6215    9.3113   -3.9579 H   0  0  0  0  0  0  0  0  0  0  0  0
   12.9151    9.5533   -6.0891 H   0  0  0  0  0  0  0  0  0  0  0  0
   15.3362   10.0914   -6.0476 H   0  0  0  0  0  0  0  0  0  0  0  0
   16.5445   10.3988   -3.8593 H   0  0  0  0  0  0  0  0  0  0  0  0
   18.3976   11.9956    2.0711 H   0  0  0  0  0  0  0  0  0  0  0  0
   20.1022   11.4373    2.3382 H   0  0  0  0  0  0  0  0  0  0  0  0
  1  2  1  0
  2  3  1  0
  3  4  2  0
  4  5  1  0
  5  6  2  0
  6  7  1  0
  7  8  2  0
  7  9  1  0
  9 10  2  0
 10 11  1  0
 11 12  1  0
 12 13  1  0
 13 14  2  0
 13 15  2  0
 13 16  1  0
 16 17  2  0
 17 18  1  0
 18 19  2  0
 19 20  1  0
 20 21  2  0
 21 22  1  0
 22 23  2  0
 23 24  1  0
 10 25  1  0
 25 26  1  0
 26 27  1  0
 27 28  2  0
 27 29  1  0
  8  3  1  0
 24 16  1  0
 25  6  1  0
 23 18  1  0
  1 30  1  0
  1 31  1  0
  1 32  1  0
  4 33  1  0
  5 34  1  0
  8 35  1  0
  9 36  1  0
 11 37  1  0
 11 38  1  0
 12 39  1  0
 17 40  1  0
 19 41  1  0
 20 42  1  0
 21 43  1  0
 22 44  1  0
 26 45  1  0
 26 46  1  0
M  CHG  1  29  -1
M  END
>  <meeko>  (9) 
{"is_sidechain": [false], "free_energy": -8.923, "intermolecular_energy": -12.75, "internal_energy": -1.091}

$$$$
