3jvr_ligand
     RDKit          3D

 36 38  0  0  0  0  0  0  0  0999 V2000
   12.0890   -5.6480   13.1370 C   0  0  0  0  0  0  0  0  0  0  0  0
   12.6150   -4.2400   12.8860 C   0  0  2  0  0  0  0  0  0  0  0  0
   13.6840   -4.0070   13.8260 O   0  0  0  0  0  0  0  0  0  0  0  0
   14.7360   -3.2850   13.3640 C   0  0  0  0  0  0  0  0  0  0  0  0
   15.4380   -2.5740   14.0680 O   0  0  0  0  0  0  0  0  0  0  0  0
   14.8520   -3.5190   12.0240 N   0  0  0  0  0  0  0  0  0  0  0  0
   15.7930   -2.9960   11.1220 C   0  0  0  0  0  0  0  0  0  0  0  0
   17.0480   -3.6150   11.0780 C   0  0  0  0  0  0  0  0  0  0  0  0
   18.0400   -3.1530   10.2080 C   0  0  0  0  0  0  0  0  0  0  0  0
   17.7880   -2.0670    9.3700 C   0  0  0  0  0  0  0  0  0  0  0  0
   19.0570   -1.5480    8.3190 Cl  0  0  0  0  0  0  0  0  0  0  0  0
   16.5370   -1.4430    9.4070 C   0  0  0  0  0  0  0  0  0  0  0  0
   16.1500   -0.0940    8.3970 Cl  0  0  0  0  0  0  0  0  0  0  0  0
   15.5440   -1.9090   10.2800 C   0  0  0  0  0  0  0  0  0  0  0  0
   11.5590   -3.2000   13.1120 C   0  0  0  0  0  0  0  0  0  0  0  0
   10.3180   -3.3770   13.5240 N   0  0  0  0  0  0  0  0  0  0  0  0
    9.7580   -2.1240   13.5670 C   0  0  0  0  0  0  0  0  0  0  0  0
    8.4630   -1.7310   13.9370 C   0  0  0  0  0  0  0  0  0  0  0  0
    8.1390   -0.3680   13.9020 C   0  0  0  0  0  0  0  0  0  0  0  0
    9.0840    0.5820   13.5080 C   0  0  0  0  0  0  0  0  0  0  0  0
   10.3810    0.2090   13.1350 C   0  0  0  0  0  0  0  0  0  0  0  0
   10.6760   -1.1550   13.1770 C   0  0  0  0  0  0  0  0  0  0  0  0
   11.8100   -1.8650   12.8900 N   0  0  0  0  0  0  0  0  0  0  0  0
   12.0222   -5.8268   14.2203 H   0  0  0  0  0  0  0  0  0  0  0  0
   11.0912   -5.7525   12.6859 H   0  0  0  0  0  0  0  0  0  0  0  0
   12.7739   -6.3811   12.6859 H   0  0  0  0  0  0  0  0  0  0  0  0
   12.9484   -4.1657   11.8404 H   0  0  0  0  0  0  0  0  0  0  0  0
   14.1670   -4.1760   11.6740 H   0  0  0  0  0  0  0  0  0  0  0  0
   17.2555   -4.4731   11.7343 H   0  0  0  0  0  0  0  0  0  0  0  0
   19.0223   -3.6475   10.1843 H   0  0  0  0  0  0  0  0  0  0  0  0
   14.5613   -1.4152   10.3023 H   0  0  0  0  0  0  0  0  0  0  0  0
    7.7173   -2.4774   14.2482 H   0  0  0  0  0  0  0  0  0  0  0  0
    7.1281   -0.0424   14.1883 H   0  0  0  0  0  0  0  0  0  0  0  0
    8.8034    1.6455   13.4904 H   0  0  0  0  0  0  0  0  0  0  0  0
   11.1295    0.9529   12.8246 H   0  0  0  0  0  0  0  0  0  0  0  0
   12.7050   -1.4840   12.6070 H   0  0  0  0  0  0  0  0  0  0  0  0
  1  2  1  0
  2  3  1  0
  3  4  1  0
  4  5  2  0
  4  6  1  0
  6  7  1  0
  7  8  2  0
  8  9  1  0
  9 10  2  0
 10 11  1  0
 10 12  1  0
 12 13  1  0
 12 14  2  0
  2 15  1  0
 15 16  2  0
 16 17  1  0
 17 18  2  0
 18 19  1  0
 19 20  2  0
 20 21  1  0
 21 22  2  0
 22 23  1  0
 14  7  1  0
 23 15  1  0
 22 17  1  0
  1 24  1  0
  1 25  1  0
  1 26  1  0
  2 27  1  6
  6 28  1  0
  8 29  1  0
  9 30  1  0
 14 31  1  0
 18 32  1  0
 19 33  1  0
 20 34  1  0
 21 35  1  0
 23 36  1  0
M  END
>  <meeko>  (1) 
{"is_sidechain": [false], "free_energy": -8.124, "intermolecular_energy": -10.024, "internal_energy": -0.506}

$$$$
3jvr_ligand
     RDKit          3D

 36 38  0  0  0  0  0  0  0  0999 V2000
   12.6930   -0.0090   10.4510 C   0  0  0  0  0  0  0  0  0  0  0  0
   14.0080   -0.7200   10.7510 C   0  0  2  0  0  0  0  0  0  0  0  0
   14.6240   -1.0370    9.4860 O   0  0  0  0  0  0  0  0  0  0  0  0
   15.9290   -0.6880    9.3570 C   0  0  0  0  0  0  0  0  0  0  0  0
   16.3170    0.4630    9.2190 O   0  0  0  0  0  0  0  0  0  0  0  0
   16.6790   -1.8260    9.4270 N   0  0  0  0  0  0  0  0  0  0  0  0
   18.0750   -1.9610    9.3460 C   0  0  0  0  0  0  0  0  0  0  0  0
   18.6980   -2.7470   10.3230 C   0  0  0  0  0  0  0  0  0  0  0  0
   20.0840   -2.9300   10.3130 C   0  0  0  0  0  0  0  0  0  0  0  0
   20.8630   -2.3290    9.3240 C   0  0  0  0  0  0  0  0  0  0  0  0
   22.5690   -2.5970    9.3700 Cl  0  0  0  0  0  0  0  0  0  0  0  0
   20.2490   -1.5430    8.3440 C   0  0  0  0  0  0  0  0  0  0  0  0
   21.1490   -0.7690    7.0870 Cl  0  0  0  0  0  0  0  0  0  0  0  0
   18.8590   -1.3620    8.3560 C   0  0  0  0  0  0  0  0  0  0  0  0
   13.7920   -2.0000   11.5000 C   0  0  0  0  0  0  0  0  0  0  0  0
   14.6630   -2.9630   11.7340 N   0  0  0  0  0  0  0  0  0  0  0  0
   13.9830   -3.9150   12.4540 C   0  0  0  0  0  0  0  0  0  0  0  0
   14.4280   -5.1430   12.9650 C   0  0  0  0  0  0  0  0  0  0  0  0
   13.5250   -5.9390   13.6820 C   0  0  0  0  0  0  0  0  0  0  0  0
   12.2080   -5.5210   13.8850 C   0  0  0  0  0  0  0  0  0  0  0  0
   11.7450   -4.2980   13.3830 C   0  0  0  0  0  0  0  0  0  0  0  0
   12.6650   -3.5270   12.6700 C   0  0  0  0  0  0  0  0  0  0  0  0
   12.5690   -2.3090   12.0530 N   0  0  0  0  0  0  0  0  0  0  0  0
   12.1973    0.2590   11.3957 H   0  0  0  0  0  0  0  0  0  0  0  0
   12.8937    0.9035    9.8704 H   0  0  0  0  0  0  0  0  0  0  0  0
   12.0393   -0.6766    9.8704 H   0  0  0  0  0  0  0  0  0  0  0  0
   14.6347   -0.0629   11.3719 H   0  0  0  0  0  0  0  0  0  0  0  0
   16.1250   -2.6590    9.5770 H   0  0  0  0  0  0  0  0  0  0  0  0
   18.0911   -3.2251   11.1060 H   0  0  0  0  0  0  0  0  0  0  0  0
   20.5613   -3.5493   11.0867 H   0  0  0  0  0  0  0  0  0  0  0  0
   18.3819   -0.7443    7.5809 H   0  0  0  0  0  0  0  0  0  0  0  0
   15.4648   -5.4744   12.8061 H   0  0  0  0  0  0  0  0  0  0  0  0
   13.8574   -6.9049   14.0900 H   0  0  0  0  0  0  0  0  0  0  0  0
   11.5197   -6.1658   14.4511 H   0  0  0  0  0  0  0  0  0  0  0  0
   10.7097   -3.9623   13.5424 H   0  0  0  0  0  0  0  0  0  0  0  0
   11.7570   -1.7040   12.0360 H   0  0  0  0  0  0  0  0  0  0  0  0
  1  2  1  0
  2  3  1  0
  3  4  1  0
  4  5  2  0
  4  6  1  0
  6  7  1  0
  7  8  2  0
  8  9  1  0
  9 10  2  0
 10 11  1  0
 10 12  1  0
 12 13  1  0
 12 14  2  0
  2 15  1  0
 15 16  2  0
 16 17  1  0
 17 18  2  0
 18 19  1  0
 19 20  2  0
 20 21  1  0
 21 22  2  0
 22 23  1  0
 14  7  1  0
 23 15  1  0
 22 17  1  0
  1 24  1  0
  1 25  1  0
  1 26  1  0
  2 27  1  1
  6 28  1  0
  8 29  1  0
  9 30  1  0
 14 31  1  0
 18 32  1  0
 19 33  1  0
 20 34  1  0
 21 35  1  0
 23 36  1  0
M  END
>  <meeko>  (2) 
{"is_sidechain": [false], "free_energy": -8.006, "intermolecular_energy": -9.738, "internal_energy": -0.646}

$$$$
3jvr_ligand
     RDKit          3D

 36 38  0  0  0  0  0  0  0  0999 V2000
   12.6630   -0.1020   10.8080 C   0  0  0  0  0  0  0  0  0  0  0  0
   13.1280   -1.5530   10.8270 C   0  0  2  0  0  0  0  0  0  0  0  0
   13.0240   -2.0200   12.1890 O   0  0  0  0  0  0  0  0  0  0  0  0
   12.5140   -3.2660   12.3520 C   0  0  0  0  0  0  0  0  0  0  0  0
   11.3960   -3.6000   11.9870 O   0  0  0  0  0  0  0  0  0  0  0  0
   13.4640   -4.0350   12.9610 N   0  0  0  0  0  0  0  0  0  0  0  0
   13.3920   -5.3890   13.3290 C   0  0  0  0  0  0  0  0  0  0  0  0
   14.5180   -6.1800   13.0730 C   0  0  0  0  0  0  0  0  0  0  0  0
   14.5250   -7.5380   13.4080 C   0  0  0  0  0  0  0  0  0  0  0  0
   13.4060   -8.1180   14.0060 C   0  0  0  0  0  0  0  0  0  0  0  0
   13.4830   -9.7990   14.3950 Cl  0  0  0  0  0  0  0  0  0  0  0  0
   12.2790   -7.3340   14.2660 C   0  0  0  0  0  0  0  0  0  0  0  0
   10.8560   -7.9830   15.0060 Cl  0  0  0  0  0  0  0  0  0  0  0  0
   12.2740   -5.9740   13.9300 C   0  0  0  0  0  0  0  0  0  0  0  0
   14.5560   -1.6880   10.3940 C   0  0  0  0  0  0  0  0  0  0  0  0
   15.4140   -2.6410   10.7040 N   0  0  0  0  0  0  0  0  0  0  0  0
   16.5850   -2.3120   10.0640 C   0  0  0  0  0  0  0  0  0  0  0  0
   17.8180   -2.9790   10.0490 C   0  0  0  0  0  0  0  0  0  0  0  0
   18.8680   -2.4320    9.3010 C   0  0  0  0  0  0  0  0  0  0  0  0
   18.6930   -1.2460    8.5830 C   0  0  0  0  0  0  0  0  0  0  0  0
   17.4700   -0.5660    8.5860 C   0  0  0  0  0  0  0  0  0  0  0  0
   16.4410   -1.1330    9.3420 C   0  0  0  0  0  0  0  0  0  0  0  0
   15.1460   -0.7550    9.5700 N   0  0  0  0  0  0  0  0  0  0  0  0
   12.5472    0.2595   11.8404 H   0  0  0  0  0  0  0  0  0  0  0  0
   13.4084    0.5151   10.2849 H   0  0  0  0  0  0  0  0  0  0  0  0
   11.6978   -0.0331   10.2849 H   0  0  0  0  0  0  0  0  0  0  0  0
   12.5050   -2.1357   10.1325 H   0  0  0  0  0  0  0  0  0  0  0  0
   14.3270   -3.5360   13.1360 H   0  0  0  0  0  0  0  0  0  0  0  0
   15.4053   -5.7296   12.6042 H   0  0  0  0  0  0  0  0  0  0  0  0
   15.4149   -8.1500   13.1994 H   0  0  0  0  0  0  0  0  0  0  0  0
   11.3842   -5.3625   14.1406 H   0  0  0  0  0  0  0  0  0  0  0  0
   17.9578   -3.9129   10.6132 H   0  0  0  0  0  0  0  0  0  0  0  0
   19.8423   -2.9421    9.2784 H   0  0  0  0  0  0  0  0  0  0  0  0
   19.5343   -0.8384    8.0033 H   0  0  0  0  0  0  0  0  0  0  0  0
   17.3261    0.3673    8.0219 H   0  0  0  0  0  0  0  0  0  0  0  0
   14.6720    0.0460    9.1710 H   0  0  0  0  0  0  0  0  0  0  0  0
  1  2  1  0
  2  3  1  0
  3  4  1  0
  4  5  2  0
  4  6  1  0
  6  7  1  0
  7  8  2  0
  8  9  1  0
  9 10  2  0
 10 11  1  0
 10 12  1  0
 12 13  1  0
 12 14  2  0
  2 15  1  0
 15 16  2  0
 16 17  1  0
 17 18  2  0
 18 19  1  0
 19 20  2  0
 20 21  1  0
 21 22  2  0
 22 23  1  0
 14  7  1  0
 23 15  1  0
 22 17  1  0
  1 24  1  0
  1 25  1  0
  1 26  1  0
  2 27  1  6
  6 28  1  0
  8 29  1  0
  9 30  1  0
 14 31  1  0
 18 32  1  0
 19 33  1  0
 20 34  1  0
 21 35  1  0
 23 36  1  0
M  END
>  <meeko>  (3) 
{"is_sidechain": [false], "free_energy": -7.683, "intermolecular_energy": -9.434, "internal_energy": -0.551}

$$$$
3jvr_ligand
     RDKit          3D

 36 38  0  0  0  0  0  0  0  0999 V2000
   12.6870   -0.5620   10.6470 C   0  0  0  0  0  0  0  0  0  0  0  0
   13.3340   -1.9150   10.9200 C   0  0  2  0  0  0  0  0  0  0  0  0
   13.3350   -2.1100   12.3490 O   0  0  0  0  0  0  0  0  0  0  0  0
   13.1250   -3.3810   12.7750 C   0  0  0  0  0  0  0  0  0  0  0  0
   12.0780   -3.9910   12.6140 O   0  0  0  0  0  0  0  0  0  0  0  0
   14.2710   -3.8200   13.3740 N   0  0  0  0  0  0  0  0  0  0  0  0
   14.5280   -5.0700   13.9620 C   0  0  0  0  0  0  0  0  0  0  0  0
   14.8620   -6.1230   13.1020 C   0  0  0  0  0  0  0  0  0  0  0  0
   15.1320   -7.3980   13.6080 C   0  0  0  0  0  0  0  0  0  0  0  0
   15.0720   -7.6340   14.9820 C   0  0  0  0  0  0  0  0  0  0  0  0
   15.4170   -9.2320   15.5400 Cl  0  0  0  0  0  0  0  0  0  0  0  0
   14.7410   -6.5880   15.8480 C   0  0  0  0  0  0  0  0  0  0  0  0
   14.6490   -6.8040   17.5610 Cl  0  0  0  0  0  0  0  0  0  0  0  0
   14.4710   -5.3100   15.3370 C   0  0  0  0  0  0  0  0  0  0  0  0
   14.7530   -1.9620   10.4400 C   0  0  0  0  0  0  0  0  0  0  0  0
   15.6670   -2.8800   10.6910 N   0  0  0  0  0  0  0  0  0  0  0  0
   16.7980   -2.4710   10.0290 C   0  0  0  0  0  0  0  0  0  0  0  0
   18.0630   -3.0730    9.9540 C   0  0  0  0  0  0  0  0  0  0  0  0
   19.0610   -2.4480    9.1950 C   0  0  0  0  0  0  0  0  0  0  0  0
   18.8050   -1.2490    8.5260 C   0  0  0  0  0  0  0  0  0  0  0  0
   17.5490   -0.6320    8.5890 C   0  0  0  0  0  0  0  0  0  0  0  0
   16.5740   -1.2760    9.3540 C   0  0  0  0  0  0  0  0  0  0  0  0
   15.2690   -0.9730    9.6340 N   0  0  0  0  0  0  0  0  0  0  0  0
   12.4513   -0.0690   11.6017 H   0  0  0  0  0  0  0  0  0  0  0  0
   13.3817    0.0671   10.0712 H   0  0  0  0  0  0  0  0  0  0  0  0
   11.7612   -0.7078   10.0712 H   0  0  0  0  0  0  0  0  0  0  0  0
   12.7684   -2.6946   10.3886 H   0  0  0  0  0  0  0  0  0  0  0  0
   15.0160   -3.1370   13.3560 H   0  0  0  0  0  0  0  0  0  0  0  0
   14.9125   -5.9455   12.0176 H   0  0  0  0  0  0  0  0  0  0  0  0
   15.3923   -8.2170   12.9214 H   0  0  0  0  0  0  0  0  0  0  0  0
   14.2125   -4.4907   16.0240 H   0  0  0  0  0  0  0  0  0  0  0  0
   18.2672   -4.0169   10.4806 H   0  0  0  0  0  0  0  0  0  0  0  0
   20.0582   -2.9071    9.1251 H   0  0  0  0  0  0  0  0  0  0  0  0
   19.6066   -0.7793    7.9372 H   0  0  0  0  0  0  0  0  0  0  0  0
   17.3413    0.3114    8.0629 H   0  0  0  0  0  0  0  0  0  0  0  0
   14.7440   -0.1840    9.2770 H   0  0  0  0  0  0  0  0  0  0  0  0
  1  2  1  0
  2  3  1  0
  3  4  1  0
  4  5  2  0
  4  6  1  0
  6  7  1  0
  7  8  2  0
  8  9  1  0
  9 10  2  0
 10 11  1  0
 10 12  1  0
 12 13  1  0
 12 14  2  0
  2 15  1  0
 15 16  2  0
 16 17  1  0
 17 18  2  0
 18 19  1  0
 19 20  2  0
 20 21  1  0
 21 22  2  0
 22 23  1  0
 14  7  1  0
 23 15  1  0
 22 17  1  0
  1 24  1  0
  1 25  1  0
  1 26  1  0
  2 27  1  6
  6 28  1  0
  8 29  1  0
  9 30  1  0
 14 31  1  0
 18 32  1  0
 19 33  1  0
 20 34  1  0
 21 35  1  0
 23 36  1  0
M  END
>  <meeko>  (4) 
{"is_sidechain": [false], "free_energy": -7.518, "intermolecular_energy": -9.072, "internal_energy": -0.71}

$$$$
3jvr_ligand
     RDKit          3D

 36 38  0  0  0  0  0  0  0  0999 V2000
   16.7570   -5.6490   11.2640 C   0  0  0  0  0  0  0  0  0  0  0  0
   17.2190   -4.2970   10.7350 C   0  0  2  0  0  0  0  0  0  0  0  0
   18.2400   -3.8110   11.6300 O   0  0  0  0  0  0  0  0  0  0  0  0
   19.2600   -3.1270   11.0540 C   0  0  0  0  0  0  0  0  0  0  0  0
   20.0100   -2.3770   11.6630 O   0  0  0  0  0  0  0  0  0  0  0  0
   19.2850   -3.4450    9.7260 N   0  0  0  0  0  0  0  0  0  0  0  0
   20.1650   -2.9850    8.7320 C   0  0  0  0  0  0  0  0  0  0  0  0
   19.9740   -1.6790    8.2660 C   0  0  0  0  0  0  0  0  0  0  0  0
   20.8060   -1.1480    7.2760 C   0  0  0  0  0  0  0  0  0  0  0  0
   21.8400   -1.9170    6.7420 C   0  0  0  0  0  0  0  0  0  0  0  0
   22.8300   -1.1990    5.5220 Cl  0  0  0  0  0  0  0  0  0  0  0  0
   22.0380   -3.2220    7.2020 C   0  0  0  0  0  0  0  0  0  0  0  0
   23.2990   -4.2340    6.5890 Cl  0  0  0  0  0  0  0  0  0  0  0  0
   21.2020   -3.7520    8.1950 C   0  0  0  0  0  0  0  0  0  0  0  0
   16.1040   -3.2960   10.7090 C   0  0  0  0  0  0  0  0  0  0  0  0
   16.0330   -2.1740   10.0180 N   0  0  0  0  0  0  0  0  0  0  0  0
   14.8200   -1.6150   10.3380 C   0  0  0  0  0  0  0  0  0  0  0  0
   14.2340   -0.4220    9.8890 C   0  0  0  0  0  0  0  0  0  0  0  0
   12.9640   -0.0750   10.3700 C   0  0  0  0  0  0  0  0  0  0  0  0
   12.2930   -0.8990   11.2770 C   0  0  0  0  0  0  0  0  0  0  0  0
   12.8620   -2.0930   11.7360 C   0  0  0  0  0  0  0  0  0  0  0  0
   14.1290   -2.4120   11.2430 C   0  0  0  0  0  0  0  0  0  0  0  0
   14.9670   -3.4710   11.4650 N   0  0  0  0  0  0  0  0  0  0  0  0
   16.7623   -5.6336   12.3639 H   0  0  0  0  0  0  0  0  0  0  0  0
   15.7377   -5.8543   10.9050 H   0  0  0  0  0  0  0  0  0  0  0  0
   17.4375   -6.4352   10.9050 H   0  0  0  0  0  0  0  0  0  0  0  0
   17.5863   -4.4243    9.7060 H   0  0  0  0  0  0  0  0  0  0  0  0
   18.5760   -4.1170    9.4650 H   0  0  0  0  0  0  0  0  0  0  0  0
   19.1619   -1.0650    8.6825 H   0  0  0  0  0  0  0  0  0  0  0  0
   20.6448   -0.1208    6.9171 H   0  0  0  0  0  0  0  0  0  0  0  0
   21.3637   -4.7792    8.5539 H   0  0  0  0  0  0  0  0  0  0  0  0
   14.7603    0.2277    9.1742 H   0  0  0  0  0  0  0  0  0  0  0  0
   12.4899    0.8573   10.0293 H   0  0  0  0  0  0  0  0  0  0  0  0
   11.2968   -0.6035   11.6380 H   0  0  0  0  0  0  0  0  0  0  0  0
   12.3377   -2.7466   12.4487 H   0  0  0  0  0  0  0  0  0  0  0  0
   14.7770   -4.2790   12.0460 H   0  0  0  0  0  0  0  0  0  0  0  0
  1  2  1  0
  2  3  1  0
  3  4  1  0
  4  5  2  0
  4  6  1  0
  6  7  1  0
  7  8  2  0
  8  9  1  0
  9 10  2  0
 10 11  1  0
 10 12  1  0
 12 13  1  0
 12 14  2  0
  2 15  1  0
 15 16  2  0
 16 17  1  0
 17 18  2  0
 18 19  1  0
 19 20  2  0
 20 21  1  0
 21 22  2  0
 22 23  1  0
 14  7  1  0
 23 15  1  0
 22 17  1  0
  1 24  1  0
  1 25  1  0
  1 26  1  0
  2 27  1  6
  6 28  1  0
  8 29  1  0
  9 30  1  0
 14 31  1  0
 18 32  1  0
 19 33  1  0
 20 34  1  0
 21 35  1  0
 23 36  1  0
M  END
>  <meeko>  (5) 
{"is_sidechain": [false], "free_energy": -7.47, "intermolecular_energy": -9.134, "internal_energy": -0.589}

$$$$
3jvr_ligand
     RDKit          3D

 36 38  0  0  0  0  0  0  0  0999 V2000
   11.9620   -3.1550   11.6510 C   0  0  0  0  0  0  0  0  0  0  0  0
   13.3930   -3.5090   12.0400 C   0  0  2  0  0  0  0  0  0  0  0  0
   13.5810   -3.0930   13.4080 O   0  0  0  0  0  0  0  0  0  0  0  0
   14.7730   -3.4180   13.9690 C   0  0  0  0  0  0  0  0  0  0  0  0
   15.6490   -2.6060   14.2310 O   0  0  0  0  0  0  0  0  0  0  0  0
   14.7840   -4.7660   14.1860 N   0  0  0  0  0  0  0  0  0  0  0  0
   15.8020   -5.5550   14.7480 C   0  0  0  0  0  0  0  0  0  0  0  0
   16.0320   -5.4150   16.1220 C   0  0  0  0  0  0  0  0  0  0  0  0
   17.0280   -6.1630   16.7570 C   0  0  0  0  0  0  0  0  0  0  0  0
   17.8050   -7.0610   16.0250 C   0  0  0  0  0  0  0  0  0  0  0  0
   19.0170   -7.9530   16.8720 Cl  0  0  0  0  0  0  0  0  0  0  0  0
   17.5810   -7.2070   14.6530 C   0  0  0  0  0  0  0  0  0  0  0  0
   18.5030   -8.3000   13.6800 Cl  0  0  0  0  0  0  0  0  0  0  0  0
   16.5820   -6.4560   14.0190 C   0  0  0  0  0  0  0  0  0  0  0  0
   14.3970   -2.7900   11.1900 C   0  0  0  0  0  0  0  0  0  0  0  0
   14.2360   -1.6690   10.5120 N   0  0  0  0  0  0  0  0  0  0  0  0
   15.4410   -1.4280    9.8990 C   0  0  0  0  0  0  0  0  0  0  0  0
   15.8260   -0.3730    9.0590 C   0  0  0  0  0  0  0  0  0  0  0  0
   17.1360   -0.3530    8.5630 C   0  0  0  0  0  0  0  0  0  0  0  0
   18.0420   -1.3630    8.8950 C   0  0  0  0  0  0  0  0  0  0  0  0
   17.6760   -2.4250    9.7320 C   0  0  0  0  0  0  0  0  0  0  0  0
   16.3640   -2.4200   10.2100 C   0  0  0  0  0  0  0  0  0  0  0  0
   15.6760   -3.2740   11.0280 N   0  0  0  0  0  0  0  0  0  0  0  0
   11.3610   -3.0063   12.5602 H   0  0  0  0  0  0  0  0  0  0  0  0
   11.9620   -2.2298   11.0561 H   0  0  0  0  0  0  0  0  0  0  0  0
   11.5306   -3.9735   11.0561 H   0  0  0  0  0  0  0  0  0  0  0  0
   13.5427   -4.5902   11.9033 H   0  0  0  0  0  0  0  0  0  0  0  0
   13.9230   -5.2200   13.9120 H   0  0  0  0  0  0  0  0  0  0  0  0
   15.4234   -4.7100   16.7073 H   0  0  0  0  0  0  0  0  0  0  0  0
   17.1994   -6.0430   17.8369 H   0  0  0  0  0  0  0  0  0  0  0  0
   16.4107   -6.5769   12.9392 H   0  0  0  0  0  0  0  0  0  0  0  0
   15.1138    0.4226    8.7950 H   0  0  0  0  0  0  0  0  0  0  0  0
   17.4550    0.4680    7.9041 H   0  0  0  0  0  0  0  0  0  0  0  0
   19.0643   -1.3236    8.4907 H   0  0  0  0  0  0  0  0  0  0  0  0
   18.3857   -3.2219    9.9990 H   0  0  0  0  0  0  0  0  0  0  0  0
   16.0430   -4.1000   11.4850 H   0  0  0  0  0  0  0  0  0  0  0  0
  1  2  1  0
  2  3  1  0
  3  4  1  0
  4  5  2  0
  4  6  1  0
  6  7  1  0
  7  8  2  0
  8  9  1  0
  9 10  2  0
 10 11  1  0
 10 12  1  0
 12 13  1  0
 12 14  2  0
  2 15  1  0
 15 16  2  0
 16 17  1  0
 17 18  2  0
 18 19  1  0
 19 20  2  0
 20 21  1  0
 21 22  2  0
 22 23  1  0
 14  7  1  0
 23 15  1  0
 22 17  1  0
  1 24  1  0
  1 25  1  0
  1 26  1  0
  2 27  1  1
  6 28  1  0
  8 29  1  0
  9 30  1  0
 14 31  1  0
 18 32  1  0
 19 33  1  0
 20 34  1  0
 21 35  1  0
 23 36  1  0
M  END
>  <meeko>  (6) 
{"is_sidechain": [false], "free_energy": -7.305, "intermolecular_energy": -9.074, "internal_energy": -0.445}

$$$$
3jvr_ligand
     RDKit          3D

 36 38  0  0  0  0  0  0  0  0999 V2000
   11.5940   -3.9350   12.3440 C   0  0  0  0  0  0  0  0  0  0  0  0
   13.0690   -3.9000   12.7230 C   0  0  2  0  0  0  0  0  0  0  0  0
   13.1620   -3.3170   14.0390 O   0  0  0  0  0  0  0  0  0  0  0  0
   14.3040   -3.5740   14.7250 C   0  0  0  0  0  0  0  0  0  0  0  0
   15.0640   -2.7080   15.1330 O   0  0  0  0  0  0  0  0  0  0  0  0
   14.4130   -4.9270   14.8720 N   0  0  0  0  0  0  0  0  0  0  0  0
   15.4260   -5.6590   15.5130 C   0  0  0  0  0  0  0  0  0  0  0  0
   16.5010   -6.0860   14.7250 C   0  0  0  0  0  0  0  0  0  0  0  0
   17.5490   -6.8210   15.2870 C   0  0  0  0  0  0  0  0  0  0  0  0
   17.5330   -7.1370   16.6460 C   0  0  0  0  0  0  0  0  0  0  0  0
   18.8590   -8.0470   17.2760 Cl  0  0  0  0  0  0  0  0  0  0  0  0
   16.4630   -6.7140   17.4400 C   0  0  0  0  0  0  0  0  0  0  0  0
   16.3750   -7.0670   19.1310 Cl  0  0  0  0  0  0  0  0  0  0  0  0
   15.4140   -5.9770   16.8740 C   0  0  0  0  0  0  0  0  0  0  0  0
   13.8690   -3.0530   11.7790 C   0  0  0  0  0  0  0  0  0  0  0  0
   13.5420   -1.8850   11.2590 N   0  0  0  0  0  0  0  0  0  0  0  0
   14.6010   -1.5230   10.4610 C   0  0  0  0  0  0  0  0  0  0  0  0
   14.7830   -0.3760    9.6760 C   0  0  0  0  0  0  0  0  0  0  0  0
   15.9740   -0.2410    8.9500 C   0  0  0  0  0  0  0  0  0  0  0  0
   16.9610   -1.2270    9.0060 C   0  0  0  0  0  0  0  0  0  0  0  0
   16.7980   -2.3790    9.7840 C   0  0  0  0  0  0  0  0  0  0  0  0
   15.6010   -2.4890   10.4950 C   0  0  0  0  0  0  0  0  0  0  0  0
   15.1100   -3.4500   11.3360 N   0  0  0  0  0  0  0  0  0  0  0  0
   10.9810   -3.9495   13.2573 H   0  0  0  0  0  0  0  0  0  0  0  0
   11.3466   -3.0425   11.7505 H   0  0  0  0  0  0  0  0  0  0  0  0
   11.3892   -4.8383   11.7505 H   0  0  0  0  0  0  0  0  0  0  0  0
   13.4697   -4.9238   12.6861 H   0  0  0  0  0  0  0  0  0  0  0  0
   13.6350   -5.4340   14.4710 H   0  0  0  0  0  0  0  0  0  0  0  0
   16.5215   -5.8408   13.6529 H   0  0  0  0  0  0  0  0  0  0  0  0
   18.3879   -7.1509   14.6566 H   0  0  0  0  0  0  0  0  0  0  0  0
   14.5757   -5.6466   17.5050 H   0  0  0  0  0  0  0  0  0  0  0  0
   14.0068    0.4022    9.6308 H   0  0  0  0  0  0  0  0  0  0  0  0
   16.1332    0.6525    8.3285 H   0  0  0  0  0  0  0  0  0  0  0  0
   17.8865   -1.0956    8.4262 H   0  0  0  0  0  0  0  0  0  0  0  0
   17.5731   -3.1580    9.8329 H   0  0  0  0  0  0  0  0  0  0  0  0
   15.5870   -4.2940   11.6310 H   0  0  0  0  0  0  0  0  0  0  0  0
  1  2  1  0
  2  3  1  0
  3  4  1  0
  4  5  2  0
  4  6  1  0
  6  7  1  0
  7  8  2  0
  8  9  1  0
  9 10  2  0
 10 11  1  0
 10 12  1  0
 12 13  1  0
 12 14  2  0
  2 15  1  0
 15 16  2  0
 16 17  1  0
 17 18  2  0
 18 19  1  0
 19 20  2  0
 20 21  1  0
 21 22  2  0
 22 23  1  0
 14  7  1  0
 23 15  1  0
 22 17  1  0
  1 24  1  0
  1 25  1  0
  1 26  1  0
  2 27  1  1
  6 28  1  0
  8 29  1  0
  9 30  1  0
 14 31  1  0
 18 32  1  0
 19 33  1  0
 20 34  1  0
 21 35  1  0
 23 36  1  0
M  END
>  <meeko>  (7) 
{"is_sidechain": [false], "free_energy": -7.201, "intermolecular_energy": -8.727, "internal_energy": -0.664}

$$$$
3jvr_ligand
     RDKit          3D

 36 38  0  0  0  0  0  0  0  0999 V2000
    9.9050   -2.6650   13.4750 C   0  0  0  0  0  0  0  0  0  0  0  0
   11.4140   -2.7030   13.2590 C   0  0  2  0  0  0  0  0  0  0  0  0
   11.6570   -2.3940   11.8710 O   0  0  0  0  0  0  0  0  0  0  0  0
   12.8490   -1.8100   11.5920 C   0  0  0  0  0  0  0  0  0  0  0  0
   13.1000   -0.6340   11.8080 O   0  0  0  0  0  0  0  0  0  0  0  0
   13.6730   -2.7630   11.0660 N   0  0  0  0  0  0  0  0  0  0  0  0
   15.0030   -2.6290   10.6320 C   0  0  0  0  0  0  0  0  0  0  0  0
   15.9130   -3.6050   11.0540 C   0  0  0  0  0  0  0  0  0  0  0  0
   17.2550   -3.5430   10.6650 C   0  0  0  0  0  0  0  0  0  0  0  0
   17.7010   -2.5030    9.8490 C   0  0  0  0  0  0  0  0  0  0  0  0
   19.3700   -2.4860    9.4060 Cl  0  0  0  0  0  0  0  0  0  0  0  0
   16.7980   -1.5250    9.4220 C   0  0  0  0  0  0  0  0  0  0  0  0
   17.2760   -0.2090    8.4080 Cl  0  0  0  0  0  0  0  0  0  0  0  0
   15.4530   -1.5910    9.8130 C   0  0  0  0  0  0  0  0  0  0  0  0
   11.9850   -4.0600   13.5430 C   0  0  0  0  0  0  0  0  0  0  0  0
   11.5120   -5.2350   13.1760 N   0  0  0  0  0  0  0  0  0  0  0  0
   12.3890   -6.1640   13.6810 C   0  0  0  0  0  0  0  0  0  0  0  0
   12.3680   -7.5630   13.5870 C   0  0  0  0  0  0  0  0  0  0  0  0
   13.3990   -8.2930   14.1920 C   0  0  0  0  0  0  0  0  0  0  0  0
   14.4290   -7.6430   14.8760 C   0  0  0  0  0  0  0  0  0  0  0  0
   14.4670   -6.2470   14.9810 C   0  0  0  0  0  0  0  0  0  0  0  0
   13.4250   -5.5460   14.3710 C   0  0  0  0  0  0  0  0  0  0  0  0
   13.1440   -4.2100   14.2710 N   0  0  0  0  0  0  0  0  0  0  0  0
    9.6890   -2.6596   14.5536 H   0  0  0  0  0  0  0  0  0  0  0  0
    9.4913   -1.7562   13.0136 H   0  0  0  0  0  0  0  0  0  0  0  0
    9.4461   -3.5519   13.0136 H   0  0  0  0  0  0  0  0  0  0  0  0
   11.8900   -1.9832   13.9412 H   0  0  0  0  0  0  0  0  0  0  0  0
   13.2430   -3.6780   11.0170 H   0  0  0  0  0  0  0  0  0  0  0  0
   15.5696   -4.4284   11.6975 H   0  0  0  0  0  0  0  0  0  0  0  0
   17.9606   -4.3161   11.0033 H   0  0  0  0  0  0  0  0  0  0  0  0
   14.7470   -0.8194    9.4721 H   0  0  0  0  0  0  0  0  0  0  0  0
   11.5579   -8.0769   13.0488 H   0  0  0  0  0  0  0  0  0  0  0  0
   13.3976   -9.3911   14.1277 H   0  0  0  0  0  0  0  0  0  0  0  0
   15.2268   -8.2400   15.3418 H   0  0  0  0  0  0  0  0  0  0  0  0
   15.2764   -5.7293   15.5166 H   0  0  0  0  0  0  0  0  0  0  0  0
   13.7080   -3.4470   14.6250 H   0  0  0  0  0  0  0  0  0  0  0  0
  1  2  1  0
  2  3  1  0
  3  4  1  0
  4  5  2  0
  4  6  1  0
  6  7  1  0
  7  8  2  0
  8  9  1  0
  9 10  2  0
 10 11  1  0
 10 12  1  0
 12 13  1  0
 12 14  2  0
  2 15  1  0
 15 16  2  0
 16 17  1  0
 17 18  2  0
 18 19  1  0
 19 20  2  0
 20 21  1  0
 21 22  2  0
 22 23  1  0
 14  7  1  0
 23 15  1  0
 22 17  1  0
  1 24  1  0
  1 25  1  0
  1 26  1  0
  2 27  1  1
  6 28  1  0
  8 29  1  0
  9 30  1  0
 14 31  1  0
 18 32  1  0
 19 33  1  0
 20 34  1  0
 21 35  1  0
 23 36  1  0
M  END
>  <meeko>  (8) 
{"is_sidechain": [false], "free_energy": -7.149, "intermolecular_energy": -8.907, "internal_energy": -0.419}

$$$$
3jvr_ligand
     RDKit          3D

 36 38  0  0  0  0  0  0  0  0999 V2000
   14.8540   -6.2410   16.3470 C   0  0  0  0  0  0  0  0  0  0  0  0
   14.4760   -5.8380   14.9270 C   0  0  2  0  0  0  0  0  0  0  0  0
   13.9340   -4.5020   14.9890 O   0  0  0  0  0  0  0  0  0  0  0  0
   14.6190   -3.5510   14.3060 C   0  0  0  0  0  0  0  0  0  0  0  0
   15.3450   -2.7210   14.8340 O   0  0  0  0  0  0  0  0  0  0  0  0
   14.3590   -3.7160   12.9760 N   0  0  0  0  0  0  0  0  0  0  0  0
   14.8450   -2.9700   11.8890 C   0  0  0  0  0  0  0  0  0  0  0  0
   13.9530   -2.0830   11.2740 C   0  0  0  0  0  0  0  0  0  0  0  0
   14.3590   -1.3060   10.1850 C   0  0  0  0  0  0  0  0  0  0  0  0
   15.6630   -1.4060    9.7000 C   0  0  0  0  0  0  0  0  0  0  0  0
   16.0990   -0.4170    8.3530 Cl  0  0  0  0  0  0  0  0  0  0  0  0
   16.5600   -2.2890   10.3090 C   0  0  0  0  0  0  0  0  0  0  0  0
   18.1920   -2.4660    9.7640 Cl  0  0  0  0  0  0  0  0  0  0  0  0
   16.1510   -3.0660   11.4010 C   0  0  0  0  0  0  0  0  0  0  0  0
   13.4270   -6.7410   14.3500 C   0  0  0  0  0  0  0  0  0  0  0  0
   13.1770   -6.9890   13.0780 N   0  0  0  0  0  0  0  0  0  0  0  0
   12.1270   -7.8750   13.0710 C   0  0  0  0  0  0  0  0  0  0  0  0
   11.4610   -8.4700   11.9890 C   0  0  0  0  0  0  0  0  0  0  0  0
   10.4110   -9.3580   12.2530 C   0  0  0  0  0  0  0  0  0  0  0  0
   10.0320   -9.6470   13.5660 C   0  0  0  0  0  0  0  0  0  0  0  0
   10.6840   -9.0640   14.6590 C   0  0  0  0  0  0  0  0  0  0  0  0
   11.7260   -8.1810   14.3660 C   0  0  0  0  0  0  0  0  0  0  0  0
   12.5650   -7.4460   15.1590 N   0  0  0  0  0  0  0  0  0  0  0  0
   14.2838   -5.6330   17.0648 H   0  0  0  0  0  0  0  0  0  0  0  0
   14.6205   -7.3049   16.5007 H   0  0  0  0  0  0  0  0  0  0  0  0
   15.9306   -6.0760   16.5007 H   0  0  0  0  0  0  0  0  0  0  0  0
   15.3699   -5.9019   14.2892 H   0  0  0  0  0  0  0  0  0  0  0  0
   13.7480   -4.4990   12.7850 H   0  0  0  0  0  0  0  0  0  0  0  0
   12.9233   -1.9968   11.6512 H   0  0  0  0  0  0  0  0  0  0  0  0
   13.6483   -0.6141    9.7094 H   0  0  0  0  0  0  0  0  0  0  0  0
   16.8628   -3.7562   11.8774 H   0  0  0  0  0  0  0  0  0  0  0  0
   11.7576   -8.2435   10.9542 H   0  0  0  0  0  0  0  0  0  0  0  0
    9.8782   -9.8337   11.4164 H   0  0  0  0  0  0  0  0  0  0  0  0
    9.2033  -10.3479   13.7450 H   0  0  0  0  0  0  0  0  0  0  0  0
   10.3910   -9.2895   15.6950 H   0  0  0  0  0  0  0  0  0  0  0  0
   12.5920   -7.4460   16.1720 H   0  0  0  0  0  0  0  0  0  0  0  0
  1  2  1  0
  2  3  1  0
  3  4  1  0
  4  5  2  0
  4  6  1  0
  6  7  1  0
  7  8  2  0
  8  9  1  0
  9 10  2  0
 10 11  1  0
 10 12  1  0
 12 13  1  0
 12 14  2  0
  2 15  1  0
 15 16  2  0
 16 17  1  0
 17 18  2  0
 18 19  1  0
 19 20  2  0
 20 21  1  0
 21 22  2  0
 22 23  1  0
 14  7  1  0
 23 15  1  0
 22 17  1  0
  1 24  1  0
  1 25  1  0
  1 26  1  0
  2 27  1  6
  6 28  1  0
  8 29  1  0
  9 30  1  0
 14 31  1  0
 18 32  1  0
 19 33  1  0
 20 34  1  0
 21 35  1  0
 23 36  1  0
M  END
>  <meeko>  (9) 
{"is_sidechain": [false], "free_energy": -7.083, "intermolecular_energy": -8.591, "internal_energy": -0.655}

$$$$
