4gkm_ligand
     RDKit          3D

 31 32  0  0  0  0  0  0  0  0999 V2000
  -46.6340  -22.5900   41.8830 C   0  0  0  0  0  0  0  0  0  0  0  0
  -47.9600  -23.2220   42.1710 C   0  0  0  0  0  0  0  0  0  0  0  0
  -48.5510  -24.0950   41.2590 C   0  0  0  0  0  0  0  0  0  0  0  0
  -49.8000  -24.6560   41.5340 C   0  0  0  0  0  0  0  0  0  0  0  0
  -50.5110  -24.3440   42.7130 C   0  0  0  0  0  0  0  0  0  0  0  0
  -51.7370  -25.0400   42.9390 N   0  0  0  0  0  0  0  0  0  0  0  0
  -52.9180  -24.7490   42.1750 C   0  0  0  0  0  0  0  0  0  0  0  0
  -52.9140  -25.0080   40.7910 C   0  0  0  0  0  0  0  0  0  0  0  0
  -54.0430  -24.7810   40.0030 C   0  0  0  0  0  0  0  0  0  0  0  0
  -55.2030  -24.2910   40.5850 C   0  0  0  0  0  0  0  0  0  0  0  0
  -55.2300  -24.0300   41.9560 C   0  0  0  0  0  0  0  0  0  0  0  0
  -54.0990  -24.2490   42.7770 C   0  0  0  0  0  0  0  0  0  0  0  0
  -54.1990  -23.9030   44.2520 C   0  0  0  0  0  0  0  0  0  0  0  0
  -54.1420  -22.6720   44.5770 O   0  0  0  0  0  0  0  0  0  0  0  0
  -54.3590  -24.8640   45.0760 O   0  0  0  0  0  0  0  0  0  0  0  0
  -49.9300  -23.4520   43.6300 C   0  0  0  0  0  0  0  0  0  0  0  0
  -50.5750  -23.0080   44.9130 C   0  0  0  0  0  0  0  0  0  0  0  0
  -50.7470  -21.7600   45.0910 O   0  0  0  0  0  0  0  0  0  0  0  0
  -50.7710  -23.9130   45.7920 O   0  0  0  0  0  0  0  0  0  0  0  0
  -48.6590  -22.9020   43.3410 C   0  0  0  0  0  0  0  0  0  0  0  0
  -46.1291  -22.3493   42.8302 H   0  0  0  0  0  0  0  0  0  0  0  0
  -46.0128  -23.2889   41.3036 H   0  0  0  0  0  0  0  0  0  0  0  0
  -46.7857  -21.6673   41.3036 H   0  0  0  0  0  0  0  0  0  0  0  0
  -48.0326  -24.3425   40.3209 H   0  0  0  0  0  0  0  0  0  0  0  0
  -50.2415  -25.3596   40.8128 H   0  0  0  0  0  0  0  0  0  0  0  0
  -52.0170  -24.8630   43.9260 H   0  0  0  0  0  0  0  0  0  0  0  0
  -51.9997  -25.3983   40.3201 H   0  0  0  0  0  0  0  0  0  0  0  0
  -54.0133  -24.9900   38.9234 H   0  0  0  0  0  0  0  0  0  0  0  0
  -56.0964  -24.1092   39.9696 H   0  0  0  0  0  0  0  0  0  0  0  0
  -56.1547  -23.6440   42.4098 H   0  0  0  0  0  0  0  0  0  0  0  0
  -48.2060  -22.2013   44.0578 H   0  0  0  0  0  0  0  0  0  0  0  0
  1  2  1  0
  2  3  2  0
  3  4  1  0
  4  5  2  0
  5  6  1  0
  6  7  1  0
  7  8  2  0
  8  9  1  0
  9 10  2  0
 10 11  1  0
 11 12  2  0
 12 13  1  0
 13 14  2  0
 13 15  1  0
  5 16  1  0
 16 17  1  0
 17 18  2  0
 17 19  1  0
 16 20  2  0
 20  2  1  0
 12  7  1  0
  1 21  1  0
  1 22  1  0
  1 23  1  0
  3 24  1  0
  4 25  1  0
  6 26  1  0
  8 27  1  0
  9 28  1  0
 10 29  1  0
 11 30  1  0
 20 31  1  0
M  CHG  2  15  -1  19  -1
M  END
>  <meeko>  (1) 
{"is_sidechain": [false], "free_energy": -8.958, "intermolecular_energy": -11.053, "internal_energy": -0.905}

$$$$
4gkm_ligand
     RDKit          3D

 31 32  0  0  0  0  0  0  0  0999 V2000
  -53.6400  -26.0950   37.2890 C   0  0  0  0  0  0  0  0  0  0  0  0
  -53.4630  -26.6380   35.9060 C   0  0  0  0  0  0  0  0  0  0  0  0
  -54.5500  -26.7710   35.0430 C   0  0  0  0  0  0  0  0  0  0  0  0
  -54.3680  -27.3020   33.7640 C   0  0  0  0  0  0  0  0  0  0  0  0
  -53.1050  -27.7430   33.3150 C   0  0  0  0  0  0  0  0  0  0  0  0
  -53.0120  -28.1860   31.9610 N   0  0  0  0  0  0  0  0  0  0  0  0
  -53.7410  -29.3330   31.4950 C   0  0  0  0  0  0  0  0  0  0  0  0
  -53.2270  -30.6170   31.7540 C   0  0  0  0  0  0  0  0  0  0  0  0
  -53.9080  -31.7690   31.3590 C   0  0  0  0  0  0  0  0  0  0  0  0
  -55.1230  -31.6600   30.6980 C   0  0  0  0  0  0  0  0  0  0  0  0
  -55.6520  -30.3960   30.4340 C   0  0  0  0  0  0  0  0  0  0  0  0
  -54.9810  -29.2130   30.8210 C   0  0  0  0  0  0  0  0  0  0  0  0
  -55.6070  -27.8760   30.4610 C   0  0  0  0  0  0  0  0  0  0  0  0
  -56.8430  -27.7100   30.7260 O   0  0  0  0  0  0  0  0  0  0  0  0
  -54.8520  -26.9910   29.9360 O   0  0  0  0  0  0  0  0  0  0  0  0
  -52.0070  -27.6280   34.1840 C   0  0  0  0  0  0  0  0  0  0  0  0
  -50.6100  -28.0750   33.8570 C   0  0  0  0  0  0  0  0  0  0  0  0
  -49.7000  -27.1860   33.7970 O   0  0  0  0  0  0  0  0  0  0  0  0
  -50.4700  -29.2980   33.5200 O   0  0  0  0  0  0  0  0  0  0  0  0
  -52.2060  -27.0770   35.4730 C   0  0  0  0  0  0  0  0  0  0  0  0
  -53.3863  -26.8733   38.0238 H   0  0  0  0  0  0  0  0  0  0  0  0
  -52.9780  -25.2279   37.4300 H   0  0  0  0  0  0  0  0  0  0  0  0
  -54.6858  -25.7846   37.4300 H   0  0  0  0  0  0  0  0  0  0  0  0
  -55.5524  -26.4573   35.3699 H   0  0  0  0  0  0  0  0  0  0  0  0
  -55.2327  -27.3785   33.0884 H   0  0  0  0  0  0  0  0  0  0  0  0
  -52.0140  -28.4220   31.7800 H   0  0  0  0  0  0  0  0  0  0  0  0
  -52.2659  -30.7149   32.2801 H   0  0  0  0  0  0  0  0  0  0  0  0
  -53.4827  -32.7610   31.5711 H   0  0  0  0  0  0  0  0  0  0  0  0
  -55.6656  -32.5639   30.3842 H   0  0  0  0  0  0  0  0  0  0  0  0
  -56.6165  -30.3178   29.9110 H   0  0  0  0  0  0  0  0  0  0  0  0
  -51.3471  -26.9912   36.1548 H   0  0  0  0  0  0  0  0  0  0  0  0
  1  2  1  0
  2  3  2  0
  3  4  1  0
  4  5  2  0
  5  6  1  0
  6  7  1  0
  7  8  2  0
  8  9  1  0
  9 10  2  0
 10 11  1  0
 11 12  2  0
 12 13  1  0
 13 14  2  0
 13 15  1  0
  5 16  1  0
 16 17  1  0
 17 18  2  0
 17 19  1  0
 16 20  2  0
 20  2  1  0
 12  7  1  0
  1 21  1  0
  1 22  1  0
  1 23  1  0
  3 24  1  0
  4 25  1  0
  6 26  1  0
  8 27  1  0
  9 28  1  0
 10 29  1  0
 11 30  1  0
 20 31  1  0
M  CHG  2  15  -1  19  -1
M  END
>  <meeko>  (2) 
{"is_sidechain": [false], "free_energy": -8.879, "intermolecular_energy": -10.652, "internal_energy": -1.208}

$$$$
4gkm_ligand
     RDKit          3D

 31 32  0  0  0  0  0  0  0  0999 V2000
  -53.8050  -26.6540   37.5010 C   0  0  0  0  0  0  0  0  0  0  0  0
  -53.4470  -25.6580   38.5590 C   0  0  0  0  0  0  0  0  0  0  0  0
  -52.1330  -25.2200   38.7150 C   0  0  0  0  0  0  0  0  0  0  0  0
  -51.8140  -24.3090   39.7250 C   0  0  0  0  0  0  0  0  0  0  0  0
  -52.7870  -23.8260   40.6260 C   0  0  0  0  0  0  0  0  0  0  0  0
  -52.3740  -22.8310   41.5620 N   0  0  0  0  0  0  0  0  0  0  0  0
  -51.3870  -23.1110   42.5680 C   0  0  0  0  0  0  0  0  0  0  0  0
  -50.0260  -22.9460   42.2500 C   0  0  0  0  0  0  0  0  0  0  0  0
  -49.0230  -23.1650   43.1950 C   0  0  0  0  0  0  0  0  0  0  0  0
  -49.3630  -23.5520   44.4840 C   0  0  0  0  0  0  0  0  0  0  0  0
  -50.7070  -23.7190   44.8210 C   0  0  0  0  0  0  0  0  0  0  0  0
  -51.7420  -23.5050   43.8820 C   0  0  0  0  0  0  0  0  0  0  0  0
  -53.1770  -23.7450   44.3190 C   0  0  0  0  0  0  0  0  0  0  0  0
  -53.9360  -22.7290   44.4470 O   0  0  0  0  0  0  0  0  0  0  0  0
  -53.5430  -24.9530   44.5110 O   0  0  0  0  0  0  0  0  0  0  0  0
  -54.1120  -24.2760   40.4850 C   0  0  0  0  0  0  0  0  0  0  0  0
  -55.2490  -23.8700   41.3810 C   0  0  0  0  0  0  0  0  0  0  0  0
  -55.5240  -22.6300   41.4680 O   0  0  0  0  0  0  0  0  0  0  0  0
  -55.7610  -24.7930   42.0990 O   0  0  0  0  0  0  0  0  0  0  0  0
  -54.4200  -25.1900   39.4510 C   0  0  0  0  0  0  0  0  0  0  0  0
  -54.1407  -27.5880   37.9752 H   0  0  0  0  0  0  0  0  0  0  0  0
  -54.6139  -26.2492   36.8750 H   0  0  0  0  0  0  0  0  0  0  0  0
  -52.9235  -26.8568   36.8750 H   0  0  0  0  0  0  0  0  0  0  0  0
  -51.3463  -25.5920   38.0421 H   0  0  0  0  0  0  0  0  0  0  0  0
  -50.7757  -23.9585   39.8206 H   0  0  0  0  0  0  0  0  0  0  0  0
  -53.2180  -22.5420   42.1000 H   0  0  0  0  0  0  0  0  0  0  0  0
  -49.7462  -22.6370   41.2320 H   0  0  0  0  0  0  0  0  0  0  0  0
  -47.9665  -23.0314   42.9195 H   0  0  0  0  0  0  0  0  0  0  0  0
  -48.5782  -23.7259   45.2349 H   0  0  0  0  0  0  0  0  0  0  0  0
  -50.9680  -24.0254   45.8447 H   0  0  0  0  0  0  0  0  0  0  0  0
  -55.4558  -25.5444   39.3439 H   0  0  0  0  0  0  0  0  0  0  0  0
  1  2  1  0
  2  3  2  0
  3  4  1  0
  4  5  2  0
  5  6  1  0
  6  7  1  0
  7  8  2  0
  8  9  1  0
  9 10  2  0
 10 11  1  0
 11 12  2  0
 12 13  1  0
 13 14  2  0
 13 15  1  0
  5 16  1  0
 16 17  1  0
 17 18  2  0
 17 19  1  0
 16 20  2  0
 20  2  1  0
 12  7  1  0
  1 21  1  0
  1 22  1  0
  1 23  1  0
  3 24  1  0
  4 25  1  0
  6 26  1  0
  8 27  1  0
  9 28  1  0
 10 29  1  0
 11 30  1  0
 20 31  1  0
M  CHG  2  15  -1  19  -1
M  END
>  <meeko>  (3) 
{"is_sidechain": [false], "free_energy": -8.828, "intermolecular_energy": -10.624, "internal_energy": -1.173}

$$$$
4gkm_ligand
     RDKit          3D

 31 32  0  0  0  0  0  0  0  0999 V2000
  -54.5940  -32.9760   30.5650 C   0  0  0  0  0  0  0  0  0  0  0  0
  -54.3850  -31.5310   30.8910 C   0  0  0  0  0  0  0  0  0  0  0  0
  -55.4100  -30.6020   30.7200 C   0  0  0  0  0  0  0  0  0  0  0  0
  -55.1880  -29.2520   31.0060 C   0  0  0  0  0  0  0  0  0  0  0  0
  -53.9310  -28.7830   31.4450 C   0  0  0  0  0  0  0  0  0  0  0  0
  -53.8370  -27.4020   31.7940 N   0  0  0  0  0  0  0  0  0  0  0  0
  -53.8380  -26.9720   33.1640 C   0  0  0  0  0  0  0  0  0  0  0  0
  -54.6670  -27.6390   34.0850 C   0  0  0  0  0  0  0  0  0  0  0  0
  -54.6840  -27.2920   35.4370 C   0  0  0  0  0  0  0  0  0  0  0  0
  -53.8660  -26.2690   35.8970 C   0  0  0  0  0  0  0  0  0  0  0  0
  -53.0340  -25.5970   35.0000 C   0  0  0  0  0  0  0  0  0  0  0  0
  -52.9990  -25.9270   33.6260 C   0  0  0  0  0  0  0  0  0  0  0  0
  -52.0940  -25.1210   32.7110 C   0  0  0  0  0  0  0  0  0  0  0  0
  -50.9180  -24.8560   33.1250 O   0  0  0  0  0  0  0  0  0  0  0  0
  -52.5580  -24.7770   31.5730 O   0  0  0  0  0  0  0  0  0  0  0  0
  -52.8880  -29.7100   31.6040 C   0  0  0  0  0  0  0  0  0  0  0  0
  -51.4930  -29.3570   32.0400 C   0  0  0  0  0  0  0  0  0  0  0  0
  -50.9700  -30.0470   32.9730 O   0  0  0  0  0  0  0  0  0  0  0  0
  -50.9930  -28.2960   31.5360 O   0  0  0  0  0  0  0  0  0  0  0  0
  -53.1330  -31.0750   31.3200 C   0  0  0  0  0  0  0  0  0  0  0  0
  -54.6776  -33.5538   31.4973 H   0  0  0  0  0  0  0  0  0  0  0  0
  -55.5179  -33.0898   29.9790 H   0  0  0  0  0  0  0  0  0  0  0  0
  -53.7402  -33.3469   29.9790 H   0  0  0  0  0  0  0  0  0  0  0  0
  -56.3954  -30.9319   30.3593 H   0  0  0  0  0  0  0  0  0  0  0  0
  -56.0145  -28.5362   30.8858 H   0  0  0  0  0  0  0  0  0  0  0  0
  -54.6560  -26.9180   31.3690 H   0  0  0  0  0  0  0  0  0  0  0  0
  -55.3169  -28.4529   33.7312 H   0  0  0  0  0  0  0  0  0  0  0  0
  -55.3435  -27.8275   36.1358 H   0  0  0  0  0  0  0  0  0  0  0  0
  -53.8735  -25.9899   36.9610 H   0  0  0  0  0  0  0  0  0  0  0  0
  -52.3879  -24.7885   35.3726 H   0  0  0  0  0  0  0  0  0  0  0  0
  -52.3143  -31.7997   31.4401 H   0  0  0  0  0  0  0  0  0  0  0  0
  1  2  1  0
  2  3  2  0
  3  4  1  0
  4  5  2  0
  5  6  1  0
  6  7  1  0
  7  8  2  0
  8  9  1  0
  9 10  2  0
 10 11  1  0
 11 12  2  0
 12 13  1  0
 13 14  2  0
 13 15  1  0
  5 16  1  0
 16 17  1  0
 17 18  2  0
 17 19  1  0
 16 20  2  0
 20  2  1  0
 12  7  1  0
  1 21  1  0
  1 22  1  0
  1 23  1  0
  3 24  1  0
  4 25  1  0
  6 26  1  0
  8 27  1  0
  9 28  1  0
 10 29  1  0
 11 30  1  0
 20 31  1  0
M  CHG  2  15  -1  19  -1
M  END
>  <meeko>  (4) 
{"is_sidechain": [false], "free_energy": -8.706, "intermolecular_energy": -10.473, "internal_energy": -1.173}

$$$$
4gkm_ligand
     RDKit          3D

 31 32  0  0  0  0  0  0  0  0999 V2000
  -53.8270  -25.9290   36.8800 C   0  0  0  0  0  0  0  0  0  0  0  0
  -53.6920  -26.5180   35.5110 C   0  0  0  0  0  0  0  0  0  0  0  0
  -54.7140  -27.2880   34.9580 C   0  0  0  0  0  0  0  0  0  0  0  0
  -54.5590  -27.8500   33.6880 C   0  0  0  0  0  0  0  0  0  0  0  0
  -53.3730  -27.6840   32.9420 C   0  0  0  0  0  0  0  0  0  0  0  0
  -53.3530  -28.2240   31.6200 N   0  0  0  0  0  0  0  0  0  0  0  0
  -53.7680  -29.5720   31.3530 C   0  0  0  0  0  0  0  0  0  0  0  0
  -55.1030  -29.8100   30.9760 C   0  0  0  0  0  0  0  0  0  0  0  0
  -55.5570  -31.0930   30.6670 C   0  0  0  0  0  0  0  0  0  0  0  0
  -54.6810  -32.1680   30.7280 C   0  0  0  0  0  0  0  0  0  0  0  0
  -53.3520  -31.9540   31.0980 C   0  0  0  0  0  0  0  0  0  0  0  0
  -52.8670  -30.6640   31.4170 C   0  0  0  0  0  0  0  0  0  0  0  0
  -51.4170  -30.5220   31.8470 C   0  0  0  0  0  0  0  0  0  0  0  0
  -50.7120  -29.6320   31.2680 O   0  0  0  0  0  0  0  0  0  0  0  0
  -50.9990  -31.2890   32.7770 O   0  0  0  0  0  0  0  0  0  0  0  0
  -52.3310  -26.9220   33.4990 C   0  0  0  0  0  0  0  0  0  0  0  0
  -51.0050  -26.6780   32.8360 C   0  0  0  0  0  0  0  0  0  0  0  0
  -51.0090  -26.1960   31.6570 O   0  0  0  0  0  0  0  0  0  0  0  0
  -49.9740  -27.1100   33.4530 O   0  0  0  0  0  0  0  0  0  0  0  0
  -52.5090  -26.3520   34.7810 C   0  0  0  0  0  0  0  0  0  0  0  0
  -53.6481  -26.7095   37.6342 H   0  0  0  0  0  0  0  0  0  0  0  0
  -53.0906  -25.1216   37.0061 H   0  0  0  0  0  0  0  0  0  0  0  0
  -54.8415  -25.5229   37.0061 H   0  0  0  0  0  0  0  0  0  0  0  0
  -55.6437  -27.4534   35.5221 H   0  0  0  0  0  0  0  0  0  0  0  0
  -55.3837  -28.4376   33.2584 H   0  0  0  0  0  0  0  0  0  0  0  0
  -52.3670  -28.1850   31.2850 H   0  0  0  0  0  0  0  0  0  0  0  0
  -55.8051  -28.9648   30.9237 H   0  0  0  0  0  0  0  0  0  0  0  0
  -56.6058  -31.2519   30.3760 H   0  0  0  0  0  0  0  0  0  0  0  0
  -55.0318  -33.1822   30.4863 H   0  0  0  0  0  0  0  0  0  0  0  0
  -52.6639  -32.8110   31.1427 H   0  0  0  0  0  0  0  0  0  0  0  0
  -51.6920  -25.7594   35.2184 H   0  0  0  0  0  0  0  0  0  0  0  0
  1  2  1  0
  2  3  2  0
  3  4  1  0
  4  5  2  0
  5  6  1  0
  6  7  1  0
  7  8  2  0
  8  9  1  0
  9 10  2  0
 10 11  1  0
 11 12  2  0
 12 13  1  0
 13 14  2  0
 13 15  1  0
  5 16  1  0
 16 17  1  0
 17 18  2  0
 17 19  1  0
 16 20  2  0
 20  2  1  0
 12  7  1  0
  1 21  1  0
  1 22  1  0
  1 23  1  0
  3 24  1  0
  4 25  1  0
  6 26  1  0
  8 27  1  0
  9 28  1  0
 10 29  1  0
 11 30  1  0
 20 31  1  0
M  CHG  2  15  -1  19  -1
M  END
>  <meeko>  (5) 
{"is_sidechain": [false], "free_energy": -8.681, "intermolecular_energy": -10.492, "internal_energy": -1.124}

$$$$
4gkm_ligand
     RDKit          3D

 31 32  0  0  0  0  0  0  0  0999 V2000
  -48.7470  -21.9340   44.0470 C   0  0  0  0  0  0  0  0  0  0  0  0
  -49.7630  -22.9270   43.5790 C   0  0  0  0  0  0  0  0  0  0  0  0
  -49.5040  -23.7590   42.4910 C   0  0  0  0  0  0  0  0  0  0  0  0
  -50.4750  -24.6630   42.0530 C   0  0  0  0  0  0  0  0  0  0  0  0
  -51.7420  -24.7480   42.6680 C   0  0  0  0  0  0  0  0  0  0  0  0
  -52.6270  -25.7660   42.2000 N   0  0  0  0  0  0  0  0  0  0  0  0
  -53.0510  -25.8210   40.8290 C   0  0  0  0  0  0  0  0  0  0  0  0
  -52.3960  -26.7050   39.9500 C   0  0  0  0  0  0  0  0  0  0  0  0
  -52.7860  -26.8310   38.6160 C   0  0  0  0  0  0  0  0  0  0  0  0
  -53.8450  -26.0750   38.1340 C   0  0  0  0  0  0  0  0  0  0  0  0
  -54.5100  -25.1950   38.9890 C   0  0  0  0  0  0  0  0  0  0  0  0
  -54.1330  -25.0470   40.3440 C   0  0  0  0  0  0  0  0  0  0  0  0
  -54.8840  -24.0400   41.1970 C   0  0  0  0  0  0  0  0  0  0  0  0
  -55.7040  -24.4900   42.0620 O   0  0  0  0  0  0  0  0  0  0  0  0
  -54.6310  -22.8030   41.0120 O   0  0  0  0  0  0  0  0  0  0  0  0
  -52.0180  -23.9010   43.7550 C   0  0  0  0  0  0  0  0  0  0  0  0
  -53.3260  -23.8610   44.4930 C   0  0  0  0  0  0  0  0  0  0  0  0
  -53.8810  -24.9690   44.7810 O   0  0  0  0  0  0  0  0  0  0  0  0
  -53.8540  -22.7080   44.6480 O   0  0  0  0  0  0  0  0  0  0  0  0
  -51.0190  -22.9990   44.1920 C   0  0  0  0  0  0  0  0  0  0  0  0
  -48.7300  -21.9174   45.1467 H   0  0  0  0  0  0  0  0  0  0  0  0
  -47.7541  -22.2195   43.6692 H   0  0  0  0  0  0  0  0  0  0  0  0
  -49.0097  -20.9349   43.6692 H   0  0  0  0  0  0  0  0  0  0  0  0
  -48.5334  -23.7037   41.9764 H   0  0  0  0  0  0  0  0  0  0  0  0
  -50.2456  -25.3263   41.2060 H   0  0  0  0  0  0  0  0  0  0  0  0
  -53.5120  -25.6800   42.7420 H   0  0  0  0  0  0  0  0  0  0  0  0
  -51.5571  -27.3105   40.3237 H   0  0  0  0  0  0  0  0  0  0  0  0
  -52.2559  -27.5270   37.9492 H   0  0  0  0  0  0  0  0  0  0  0  0
  -54.1586  -26.1688   37.0838 H   0  0  0  0  0  0  0  0  0  0  0  0
  -55.3495  -24.6009   38.5987 H   0  0  0  0  0  0  0  0  0  0  0  0
  -51.2366  -22.3334   45.0403 H   0  0  0  0  0  0  0  0  0  0  0  0
  1  2  1  0
  2  3  2  0
  3  4  1  0
  4  5  2  0
  5  6  1  0
  6  7  1  0
  7  8  2  0
  8  9  1  0
  9 10  2  0
 10 11  1  0
 11 12  2  0
 12 13  1  0
 13 14  2  0
 13 15  1  0
  5 16  1  0
 16 17  1  0
 17 18  2  0
 17 19  1  0
 16 20  2  0
 20  2  1  0
 12  7  1  0
  1 21  1  0
  1 22  1  0
  1 23  1  0
  3 24  1  0
  4 25  1  0
  6 26  1  0
  8 27  1  0
  9 28  1  0
 10 29  1  0
 11 30  1  0
 20 31  1  0
M  CHG  2  15  -1  19  -1
M  END
>  <meeko>  (6) 
{"is_sidechain": [false], "free_energy": -8.656, "intermolecular_energy": -10.371, "internal_energy": -1.213}

$$$$
4gkm_ligand
     RDKit          3D

 31 32  0  0  0  0  0  0  0  0999 V2000
  -54.1410  -26.4630   37.9860 C   0  0  0  0  0  0  0  0  0  0  0  0
  -53.4720  -26.0440   39.2570 C   0  0  0  0  0  0  0  0  0  0  0  0
  -52.3020  -26.6670   39.6900 C   0  0  0  0  0  0  0  0  0  0  0  0
  -51.7060  -26.2780   40.8930 C   0  0  0  0  0  0  0  0  0  0  0  0
  -52.2710  -25.2790   41.7140 C   0  0  0  0  0  0  0  0  0  0  0  0
  -51.5360  -24.8960   42.8760 N   0  0  0  0  0  0  0  0  0  0  0  0
  -50.3310  -24.1190   42.7800 C   0  0  0  0  0  0  0  0  0  0  0  0
  -49.5160  -24.2670   41.6430 C   0  0  0  0  0  0  0  0  0  0  0  0
  -48.3540  -23.5120   41.4750 C   0  0  0  0  0  0  0  0  0  0  0  0
  -47.9840  -22.5900   42.4440 C   0  0  0  0  0  0  0  0  0  0  0  0
  -48.7800  -22.4270   43.5790 C   0  0  0  0  0  0  0  0  0  0  0  0
  -49.9610  -23.1800   43.7740 C   0  0  0  0  0  0  0  0  0  0  0  0
  -50.7500  -22.9680   45.0550 C   0  0  0  0  0  0  0  0  0  0  0  0
  -50.8390  -23.9480   45.8640 O   0  0  0  0  0  0  0  0  0  0  0  0
  -51.2560  -21.8140   45.2540 O   0  0  0  0  0  0  0  0  0  0  0  0
  -53.4600  -24.6580   41.2920 C   0  0  0  0  0  0  0  0  0  0  0  0
  -54.1890  -23.5970   42.0690 C   0  0  0  0  0  0  0  0  0  0  0  0
  -54.9150  -22.7780   41.4190 O   0  0  0  0  0  0  0  0  0  0  0  0
  -53.9090  -23.5110   43.3110 O   0  0  0  0  0  0  0  0  0  0  0  0
  -54.0440  -25.0550   40.0670 C   0  0  0  0  0  0  0  0  0  0  0  0
  -55.0516  -27.0333   38.2217 H   0  0  0  0  0  0  0  0  0  0  0  0
  -54.4084  -25.5707   37.4009 H   0  0  0  0  0  0  0  0  0  0  0  0
  -53.4549  -27.0930   37.4009 H   0  0  0  0  0  0  0  0  0  0  0  0
  -51.8478  -27.4651   39.0844 H   0  0  0  0  0  0  0  0  0  0  0  0
  -50.7709  -26.7639   41.2084 H   0  0  0  0  0  0  0  0  0  0  0  0
  -51.2430  -25.7710   43.3590 H   0  0  0  0  0  0  0  0  0  0  0  0
  -49.8009  -24.9944   40.8686 H   0  0  0  0  0  0  0  0  0  0  0  0
  -47.7333  -23.6475   40.5770 H   0  0  0  0  0  0  0  0  0  0  0  0
  -47.0696  -21.9916   42.3185 H   0  0  0  0  0  0  0  0  0  0  0  0
  -48.4807  -21.6934   44.3420 H   0  0  0  0  0  0  0  0  0  0  0  0
  -54.9766  -24.5720   39.7400 H   0  0  0  0  0  0  0  0  0  0  0  0
  1  2  1  0
  2  3  2  0
  3  4  1  0
  4  5  2  0
  5  6  1  0
  6  7  1  0
  7  8  2  0
  8  9  1  0
  9 10  2  0
 10 11  1  0
 11 12  2  0
 12 13  1  0
 13 14  2  0
 13 15  1  0
  5 16  1  0
 16 17  1  0
 17 18  2  0
 17 19  1  0
 16 20  2  0
 20  2  1  0
 12  7  1  0
  1 21  1  0
  1 22  1  0
  1 23  1  0
  3 24  1  0
  4 25  1  0
  6 26  1  0
  8 27  1  0
  9 28  1  0
 10 29  1  0
 11 30  1  0
 20 31  1  0
M  CHG  2  15  -1  19  -1
M  END
>  <meeko>  (7) 
{"is_sidechain": [false], "free_energy": -8.347, "intermolecular_energy": -10.464, "internal_energy": -0.739}

$$$$
4gkm_ligand
     RDKit          3D

 31 32  0  0  0  0  0  0  0  0999 V2000
  -54.9120  -32.9270   30.4360 C   0  0  0  0  0  0  0  0  0  0  0  0
  -54.4010  -31.5690   30.7990 C   0  0  0  0  0  0  0  0  0  0  0  0
  -53.1830  -31.4140   31.4590 C   0  0  0  0  0  0  0  0  0  0  0  0
  -52.7350  -30.1380   31.8120 C   0  0  0  0  0  0  0  0  0  0  0  0
  -53.4970  -28.9810   31.5430 C   0  0  0  0  0  0  0  0  0  0  0  0
  -52.9070  -27.7220   31.8640 N   0  0  0  0  0  0  0  0  0  0  0  0
  -53.0070  -27.1610   33.1830 C   0  0  0  0  0  0  0  0  0  0  0  0
  -54.1500  -27.4380   33.9550 C   0  0  0  0  0  0  0  0  0  0  0  0
  -54.2880  -26.9530   35.2560 C   0  0  0  0  0  0  0  0  0  0  0  0
  -53.2790  -26.1800   35.8140 C   0  0  0  0  0  0  0  0  0  0  0  0
  -52.1350  -25.8950   35.0660 C   0  0  0  0  0  0  0  0  0  0  0  0
  -51.9720  -26.3730   33.7450 C   0  0  0  0  0  0  0  0  0  0  0  0
  -50.7140  -25.9860   32.9860 C   0  0  0  0  0  0  0  0  0  0  0  0
  -50.8480  -25.5820   31.7850 O   0  0  0  0  0  0  0  0  0  0  0  0
  -49.6020  -26.0670   33.6060 O   0  0  0  0  0  0  0  0  0  0  0  0
  -54.7340  -29.1300   30.8920 C   0  0  0  0  0  0  0  0  0  0  0  0
  -55.6640  -27.9970   30.5610 C   0  0  0  0  0  0  0  0  0  0  0  0
  -55.1710  -26.9680   29.9980 O   0  0  0  0  0  0  0  0  0  0  0  0
  -56.8580  -28.0970   31.0020 O   0  0  0  0  0  0  0  0  0  0  0  0
  -55.1680  -30.4280   30.5320 C   0  0  0  0  0  0  0  0  0  0  0  0
  -55.1259  -33.4955   31.3531 H   0  0  0  0  0  0  0  0  0  0  0  0
  -55.8336  -32.8258   29.8440 H   0  0  0  0  0  0  0  0  0  0  0  0
  -54.1523  -33.4584   29.8440 H   0  0  0  0  0  0  0  0  0  0  0  0
  -52.5737  -32.2970   31.7023 H   0  0  0  0  0  0  0  0  0  0  0  0
  -51.7616  -30.0327   32.3133 H   0  0  0  0  0  0  0  0  0  0  0  0
  -53.3440  -27.0080   31.2440 H   0  0  0  0  0  0  0  0  0  0  0  0
  -54.9541  -28.0516   33.5227 H   0  0  0  0  0  0  0  0  0  0  0  0
  -55.1932  -27.1824   35.8374 H   0  0  0  0  0  0  0  0  0  0  0  0
  -53.3801  -25.7943   36.8392 H   0  0  0  0  0  0  0  0  0  0  0  0
  -51.3397  -25.2826   35.5160 H   0  0  0  0  0  0  0  0  0  0  0  0
  -56.1381  -30.5444   30.0267 H   0  0  0  0  0  0  0  0  0  0  0  0
  1  2  1  0
  2  3  2  0
  3  4  1  0
  4  5  2  0
  5  6  1  0
  6  7  1  0
  7  8  2  0
  8  9  1  0
  9 10  2  0
 10 11  1  0
 11 12  2  0
 12 13  1  0
 13 14  2  0
 13 15  1  0
  5 16  1  0
 16 17  1  0
 17 18  2  0
 17 19  1  0
 16 20  2  0
 20  2  1  0
 12  7  1  0
  1 21  1  0
  1 22  1  0
  1 23  1  0
  3 24  1  0
  4 25  1  0
  6 26  1  0
  8 27  1  0
  9 28  1  0
 10 29  1  0
 11 30  1  0
 20 31  1  0
M  CHG  2  15  -1  19  -1
M  END
>  <meeko>  (8) 
{"is_sidechain": [false], "free_energy": -8.23, "intermolecular_energy": -9.894, "internal_energy": -1.166}

$$$$
4gkm_ligand
     RDKit          3D

 31 32  0  0  0  0  0  0  0  0999 V2000
  -47.7570  -22.9810   41.9760 C   0  0  0  0  0  0  0  0  0  0  0  0
  -48.8580  -23.9000   41.5520 C   0  0  0  0  0  0  0  0  0  0  0  0
  -48.6440  -24.8740   40.5780 C   0  0  0  0  0  0  0  0  0  0  0  0
  -49.6920  -25.7080   40.1770 C   0  0  0  0  0  0  0  0  0  0  0  0
  -50.9910  -25.5780   40.7140 C   0  0  0  0  0  0  0  0  0  0  0  0
  -51.9650  -26.5370   40.3020 N   0  0  0  0  0  0  0  0  0  0  0  0
  -52.7070  -26.3770   39.0830 C   0  0  0  0  0  0  0  0  0  0  0  0
  -52.0110  -26.3640   37.8600 C   0  0  0  0  0  0  0  0  0  0  0  0
  -52.6790  -26.2500   36.6400 C   0  0  0  0  0  0  0  0  0  0  0  0
  -54.0630  -26.1490   36.6190 C   0  0  0  0  0  0  0  0  0  0  0  0
  -54.7730  -26.1630   37.8210 C   0  0  0  0  0  0  0  0  0  0  0  0
  -54.1200  -26.2760   39.0700 C   0  0  0  0  0  0  0  0  0  0  0  0
  -54.9640  -26.2440   40.3320 C   0  0  0  0  0  0  0  0  0  0  0  0
  -55.6480  -25.1940   40.5620 O   0  0  0  0  0  0  0  0  0  0  0  0
  -54.9560  -27.2810   41.0760 O   0  0  0  0  0  0  0  0  0  0  0  0
  -51.2190  -24.5880   41.6850 C   0  0  0  0  0  0  0  0  0  0  0  0
  -52.5500  -24.3170   42.3280 C   0  0  0  0  0  0  0  0  0  0  0  0
  -53.0820  -25.2500   43.0110 O   0  0  0  0  0  0  0  0  0  0  0  0
  -53.1150  -23.2140   42.0200 O   0  0  0  0  0  0  0  0  0  0  0  0
  -50.1450  -23.7600   42.0870 C   0  0  0  0  0  0  0  0  0  0  0  0
  -47.7128  -22.9441   43.0745 H   0  0  0  0  0  0  0  0  0  0  0  0
  -46.7987  -23.3510   41.5827 H   0  0  0  0  0  0  0  0  0  0  0  0
  -47.9497  -21.9720   41.5827 H   0  0  0  0  0  0  0  0  0  0  0  0
  -47.6484  -24.9867   40.1239 H   0  0  0  0  0  0  0  0  0  0  0  0
  -49.4993  -26.4858   39.4234 H   0  0  0  0  0  0  0  0  0  0  0  0
  -52.6930  -26.5780   41.0460 H   0  0  0  0  0  0  0  0  0  0  0  0
  -50.9141  -26.4457   37.8658 H   0  0  0  0  0  0  0  0  0  0  0  0
  -52.1105  -26.2402   35.6983 H   0  0  0  0  0  0  0  0  0  0  0  0
  -54.5970  -26.0585   35.6616 H   0  0  0  0  0  0  0  0  0  0  0  0
  -55.8699  -26.0840   37.7957 H   0  0  0  0  0  0  0  0  0  0  0  0
  -50.3260  -22.9820   42.8432 H   0  0  0  0  0  0  0  0  0  0  0  0
  1  2  1  0
  2  3  2  0
  3  4  1  0
  4  5  2  0
  5  6  1  0
  6  7  1  0
  7  8  2  0
  8  9  1  0
  9 10  2  0
 10 11  1  0
 11 12  2  0
 12 13  1  0
 13 14  2  0
 13 15  1  0
  5 16  1  0
 16 17  1  0
 17 18  2  0
 17 19  1  0
 16 20  2  0
 20  2  1  0
 12  7  1  0
  1 21  1  0
  1 22  1  0
  1 23  1  0
  3 24  1  0
  4 25  1  0
  6 26  1  0
  8 27  1  0
  9 28  1  0
 10 29  1  0
 11 30  1  0
 20 31  1  0
M  CHG  2  15  -1  19  -1
M  END
>  <meeko>  (9) 
{"is_sidechain": [false], "free_energy": -8.002, "intermolecular_energy": -9.639, "internal_energy": -1.138}

$$$$
