4rfm_ligand
     RDKit          3D

 63 68  0  0  0  0  0  0  0  0999 V2000
   13.9060    3.7570    5.9270 C   0  0  0  0  0  0  0  0  0  0  0  0
   15.1210    3.1260    5.3050 C   0  0  1  0  0  0  0  0  0  0  0  0
   16.4480    3.7150    5.7710 C   0  0  0  0  0  0  0  0  0  0  0  0
   17.5710    2.7330    5.8270 C   0  0  0  0  0  0  0  0  0  0  0  0
   18.7990    3.0580    6.2370 N   0  0  0  0  0  0  0  0  0  0  0  0
   19.4880    1.9130    6.0960 N   0  0  0  0  0  0  0  0  0  0  0  0
   18.7300    0.8390    5.7080 C   0  0  0  0  0  0  0  0  0  0  0  0
   19.1970   -0.5190    5.5240 C   0  0  0  0  0  0  0  0  0  0  0  0
   19.3590   -0.9880    4.4030 O   0  0  0  0  0  0  0  0  0  0  0  0
   19.3960   -1.2080    6.7100 N   0  0  0  0  0  0  0  0  0  0  0  0
   19.8730   -2.5040    6.8120 C   0  0  0  0  0  0  0  0  0  0  0  0
   19.1200   -3.6590    7.1020 C   0  0  0  0  0  0  0  0  0  0  0  0
   19.8650   -4.7650    7.1520 N   0  0  0  0  0  0  0  0  0  0  0  0
   21.1140   -4.3280    6.8590 N   0  0  0  0  0  0  0  0  0  0  0  0
   22.2220   -5.2850    6.9320 C   0  0  2  0  0  0  0  0  0  0  0  0
   22.6550   -5.5660    8.3780 C   0  0  0  0  0  0  0  0  0  0  0  0
   22.8390   -6.9050    8.7820 C   0  0  0  0  0  0  0  0  0  0  0  0
   23.2270   -7.2190   10.0850 C   0  0  0  0  0  0  0  0  0  0  0  0
   23.4320   -6.2030   11.0130 C   0  0  0  0  0  0  0  0  0  0  0  0
   23.2420   -4.8770   10.6380 C   0  0  0  0  0  0  0  0  0  0  0  0
   22.8550   -4.5590    9.3330 C   0  0  0  0  0  0  0  0  0  0  0  0
   23.3660   -5.1500    5.8960 C   0  0  1  0  0  0  0  0  0  0  0  0
   24.7530   -4.8200    6.4820 C   0  0  0  0  0  0  0  0  0  0  0  0
   25.5720   -5.9710    7.0650 C   0  0  0  0  0  0  0  0  0  0  0  0
   25.4330   -7.3080    6.3420 C   0  0  0  0  0  0  0  0  0  0  0  0
   25.1060   -7.1380    4.8750 C   0  0  0  0  0  0  0  0  0  0  0  0
   23.4820   -6.4350    4.6580 S   0  0  0  0  0  0  0  0  0  0  0  0
   22.5190   -7.4810    4.9240 O   0  0  0  0  0  0  0  0  0  0  0  0
   23.4850   -5.7780    3.3620 O   0  0  0  0  0  0  0  0  0  0  0  0
   21.1560   -2.9710    6.6750 C   0  0  0  0  0  0  0  0  0  0  0  0
   17.4720    1.3700    5.4740 C   0  0  0  0  0  0  0  0  0  0  0  0
   16.2290    0.7200    4.9760 C   0  0  0  0  0  0  0  0  0  0  0  0
   15.0400    1.6420    4.8930 C   0  0  2  0  0  0  0  0  0  0  0  0
   15.0250    2.7210    3.8720 C   0  0  0  0  0  0  0  0  0  0  0  0
   13.8770    2.9660    3.1530 F   0  0  0  0  0  0  0  0  0  0  0  0
   16.0820    2.9030    3.0120 F   0  0  0  0  0  0  0  0  0  0  0  0
   13.9904    3.7131    7.0229 H   0  0  0  0  0  0  0  0  0  0  0  0
   13.8333    4.8068    5.6066 H   0  0  0  0  0  0  0  0  0  0  0  0
   13.0054    3.2127    5.6066 H   0  0  0  0  0  0  0  0  0  0  0  0
   16.7296    4.5209    5.0773 H   0  0  0  0  0  0  0  0  0  0  0  0
   16.2901    4.0714    6.7996 H   0  0  0  0  0  0  0  0  0  0  0  0
   20.4870    1.9420    6.2680 H   0  0  0  0  0  0  0  0  0  0  0  0
   19.0870   -0.7920    7.5750 H   0  0  0  0  0  0  0  0  0  0  0  0
   18.0329   -3.6500    7.2695 H   0  0  0  0  0  0  0  0  0  0  0  0
   21.7782   -6.2192    6.5575 H   0  0  0  0  0  0  0  0  0  0  0  0
   22.6737   -7.7157    8.0572 H   0  0  0  0  0  0  0  0  0  0  0  0
   23.3707   -8.2694   10.3783 H   0  0  0  0  0  0  0  0  0  0  0  0
   23.7432   -6.4473   12.0394 H   0  0  0  0  0  0  0  0  0  0  0  0
   23.3973   -4.0736   11.3731 H   0  0  0  0  0  0  0  0  0  0  0  0
   22.7056   -3.5061    9.0519 H   0  0  0  0  0  0  0  0  0  0  0  0
   23.0236   -4.2546    5.3565 H   0  0  0  0  0  0  0  0  0  0  0  0
   25.3502   -4.3672    5.6768 H   0  0  0  0  0  0  0  0  0  0  0  0
   24.5425   -4.1665    7.3414 H   0  0  0  0  0  0  0  0  0  0  0  0
   26.6325   -5.6799    7.0385 H   0  0  0  0  0  0  0  0  0  0  0  0
   25.1827   -6.1348    8.0807 H   0  0  0  0  0  0  0  0  0  0  0  0
   26.3813   -7.8583    6.4313 H   0  0  0  0  0  0  0  0  0  0  0  0
   24.6029   -7.8578    6.8095 H   0  0  0  0  0  0  0  0  0  0  0  0
   25.8506   -6.4713    4.4157 H   0  0  0  0  0  0  0  0  0  0  0  0
   25.1258   -8.1276    4.3952 H   0  0  0  0  0  0  0  0  0  0  0  0
   22.0506   -2.3687    6.4581 H   0  0  0  0  0  0  0  0  0  0  0  0
   16.4274    0.3216    3.9701 H   0  0  0  0  0  0  0  0  0  0  0  0
   15.9702   -0.0648    5.7021 H   0  0  0  0  0  0  0  0  0  0  0  0
   14.3906    0.8011    5.1781 H   0  0  0  0  0  0  0  0  0  0  0  0
  2  1  1  1
  2  3  1  0
  3  4  1  0
  4  5  2  0
  5  6  1  0
  6  7  1  0
  7  8  1  0
  8  9  2  0
  8 10  1  0
 10 11  1  0
 11 12  1  0
 12 13  2  0
 13 14  1  0
 14 15  1  0
 15 16  1  0
 16 17  2  0
 17 18  1  0
 18 19  2  0
 19 20  1  0
 20 21  2  0
 15 22  1  0
 22 23  1  0
 23 24  1  0
 24 25  1  0
 25 26  1  0
 26 27  1  0
 27 28  2  0
 27 29  2  0
 14 30  1  0
  7 31  2  0
 31 32  1  0
 32 33  1  0
 33 34  1  0
 34 35  1  0
 34 36  1  0
 33  2  1  0
 34  2  1  0
 31  4  1  0
 30 11  2  0
 21 16  1  0
 27 22  1  0
  1 37  1  0
  1 38  1  0
  1 39  1  0
  3 40  1  0
  3 41  1  0
  6 42  1  0
 10 43  1  0
 12 44  1  0
 15 45  1  6
 17 46  1  0
 18 47  1  0
 19 48  1  0
 20 49  1  0
 21 50  1  0
 22 51  1  6
 23 52  1  0
 23 53  1  0
 24 54  1  0
 24 55  1  0
 25 56  1  0
 25 57  1  0
 26 58  1  0
 26 59  1  0
 30 60  1  0
 32 61  1  0
 32 62  1  0
 33 63  1  1
M  END
>  <meeko>  (1) 
{"is_sidechain": [false], "free_energy": -11.604, "intermolecular_energy": -14.995, "internal_energy": -1.12}

$$$$
4rfm_ligand
     RDKit          3D

 63 68  0  0  0  0  0  0  0  0999 V2000
   13.4640    3.3110    5.6480 C   0  0  0  0  0  0  0  0  0  0  0  0
   14.8220    2.9930    5.0870 C   0  0  1  0  0  0  0  0  0  0  0  0
   15.9590    3.8230    5.6730 C   0  0  0  0  0  0  0  0  0  0  0  0
   17.2620    3.1010    5.7640 C   0  0  0  0  0  0  0  0  0  0  0  0
   18.3650    3.6550    6.2750 N   0  0  0  0  0  0  0  0  0  0  0  0
   19.2930    2.6950    6.1300 N   0  0  0  0  0  0  0  0  0  0  0  0
   18.8100    1.5090    5.6400 C   0  0  0  0  0  0  0  0  0  0  0  0
   19.5710    0.2950    5.4270 C   0  0  0  0  0  0  0  0  0  0  0  0
   19.1840   -0.5680    4.6470 O   0  0  0  0  0  0  0  0  0  0  0  0
   20.7190    0.2110    6.1990 N   0  0  0  0  0  0  0  0  0  0  0  0
   21.6360   -0.8250    6.1580 C   0  0  0  0  0  0  0  0  0  0  0  0
   22.9460   -0.7710    5.6410 C   0  0  0  0  0  0  0  0  0  0  0  0
   23.5850   -1.9400    5.7230 N   0  0  0  0  0  0  0  0  0  0  0  0
   22.6890   -2.7570    6.3290 N   0  0  0  0  0  0  0  0  0  0  0  0
   23.0320   -4.1740    6.4840 C   0  0  2  0  0  0  0  0  0  0  0  0
   23.2920   -4.5520    7.9500 C   0  0  0  0  0  0  0  0  0  0  0  0
   22.7150   -5.7360    8.4560 C   0  0  0  0  0  0  0  0  0  0  0  0
   22.9140   -6.1270    9.7810 C   0  0  0  0  0  0  0  0  0  0  0  0
   23.6870   -5.3400   10.6280 C   0  0  0  0  0  0  0  0  0  0  0  0
   24.2530   -4.1620   10.1530 C   0  0  0  0  0  0  0  0  0  0  0  0
   24.0560   -3.7680    8.8260 C   0  0  0  0  0  0  0  0  0  0  0  0
   23.9850   -4.8070    5.4410 C   0  0  1  0  0  0  0  0  0  0  0  0
   25.4620   -4.9110    5.8710 C   0  0  0  0  0  0  0  0  0  0  0  0
   25.8610   -6.0760    6.7750 C   0  0  0  0  0  0  0  0  0  0  0  0
   25.1300   -7.3900    6.5130 C   0  0  0  0  0  0  0  0  0  0  0  0
   24.6880   -7.5270    5.0730 C   0  0  0  0  0  0  0  0  0  0  0  0
   23.4350   -6.3240    4.6700 S   0  0  0  0  0  0  0  0  0  0  0  0
   22.1970   -6.7740    5.2690 O   0  0  0  0  0  0  0  0  0  0  0  0
   23.5020   -6.1200    3.2330 O   0  0  0  0  0  0  0  0  0  0  0  0
   21.5010   -2.1240    6.5800 C   0  0  0  0  0  0  0  0  0  0  0  0
   17.4840    1.7720    5.3410 C   0  0  0  0  0  0  0  0  0  0  0  0
   16.4430    0.9040    4.7260 C   0  0  0  0  0  0  0  0  0  0  0  0
   15.0900    1.5540    4.6010 C   0  0  2  0  0  0  0  0  0  0  0  0
   14.9020    2.6650    3.6330 C   0  0  0  0  0  0  0  0  0  0  0  0
   13.7730    2.7020    2.8450 F   0  0  0  0  0  0  0  0  0  0  0  0
   15.9440    3.1200    2.8600 F   0  0  0  0  0  0  0  0  0  0  0  0
   13.5096    3.3003    6.7470 H   0  0  0  0  0  0  0  0  0  0  0  0
   13.1491    4.3072    5.3037 H   0  0  0  0  0  0  0  0  0  0  0  0
   12.7396    2.5582    5.3037 H   0  0  0  0  0  0  0  0  0  0  0  0
   16.1003    4.7104    5.0386 H   0  0  0  0  0  0  0  0  0  0  0  0
   15.6663    4.0762    6.7027 H   0  0  0  0  0  0  0  0  0  0  0  0
   20.2490    2.9250    6.3750 H   0  0  0  0  0  0  0  0  0  0  0  0
   20.8710    0.8950    6.9240 H   0  0  0  0  0  0  0  0  0  0  0  0
   23.3945    0.1385    5.2149 H   0  0  0  0  0  0  0  0  0  0  0  0
   22.1091   -4.6959    6.1909 H   0  0  0  0  0  0  0  0  0  0  0  0
   22.0976   -6.3618    7.7948 H   0  0  0  0  0  0  0  0  0  0  0  0
   22.4600   -7.0565   10.1549 H   0  0  0  0  0  0  0  0  0  0  0  0
   23.8502   -5.6487   11.6711 H   0  0  0  0  0  0  0  0  0  0  0  0
   24.8591   -3.5366   10.8250 H   0  0  0  0  0  0  0  0  0  0  0  0
   24.5059   -2.8314    8.4649 H   0  0  0  0  0  0  0  0  0  0  0  0
   23.9324   -4.0412    4.6531 H   0  0  0  0  0  0  0  0  0  0  0  0
   26.0659   -4.9852    4.9546 H   0  0  0  0  0  0  0  0  0  0  0  0
   25.6358   -4.0137    6.4831 H   0  0  0  0  0  0  0  0  0  0  0  0
   26.9382   -6.2549    6.6420 H   0  0  0  0  0  0  0  0  0  0  0  0
   25.5848   -5.7747    7.7962 H   0  0  0  0  0  0  0  0  0  0  0  0
   25.8046   -8.2241    6.7563 H   0  0  0  0  0  0  0  0  0  0  0  0
   24.2285   -7.4036    7.1432 H   0  0  0  0  0  0  0  0  0  0  0  0
   25.5562   -7.3760    4.4146 H   0  0  0  0  0  0  0  0  0  0  0  0
   24.2658   -8.5328    4.9309 H   0  0  0  0  0  0  0  0  0  0  0  0
   20.6057   -2.5728    7.0349 H   0  0  0  0  0  0  0  0  0  0  0  0
   16.7827    0.6188    3.7194 H   0  0  0  0  0  0  0  0  0  0  0  0
   16.3172    0.0399    5.3950 H   0  0  0  0  0  0  0  0  0  0  0  0
   14.6229    0.5780    4.7991 H   0  0  0  0  0  0  0  0  0  0  0  0
  2  1  1  6
  2  3  1  0
  3  4  1  0
  4  5  2  0
  5  6  1  0
  6  7  1  0
  7  8  1  0
  8  9  2  0
  8 10  1  0
 10 11  1  0
 11 12  1  0
 12 13  2  0
 13 14  1  0
 14 15  1  0
 15 16  1  0
 16 17  2  0
 17 18  1  0
 18 19  2  0
 19 20  1  0
 20 21  2  0
 15 22  1  0
 22 23  1  0
 23 24  1  0
 24 25  1  0
 25 26  1  0
 26 27  1  0
 27 28  2  0
 27 29  2  0
 14 30  1  0
  7 31  2  0
 31 32  1  0
 32 33  1  0
 33 34  1  0
 34 35  1  0
 34 36  1  0
 33  2  1  0
 34  2  1  0
 31  4  1  0
 30 11  2  0
 21 16  1  0
 27 22  1  0
  1 37  1  0
  1 38  1  0
  1 39  1  0
  3 40  1  0
  3 41  1  0
  6 42  1  0
 10 43  1  0
 12 44  1  0
 15 45  1  6
 17 46  1  0
 18 47  1  0
 19 48  1  0
 20 49  1  0
 21 50  1  0
 22 51  1  6
 23 52  1  0
 23 53  1  0
 24 54  1  0
 24 55  1  0
 25 56  1  0
 25 57  1  0
 26 58  1  0
 26 59  1  0
 30 60  1  0
 32 61  1  0
 32 62  1  0
 33 63  1  6
M  END
>  <meeko>  (2) 
{"is_sidechain": [false], "free_energy": -11.363, "intermolecular_energy": -14.862, "internal_energy": -0.943}

$$$$
4rfm_ligand
     RDKit          3D

 63 68  0  0  0  0  0  0  0  0999 V2000
   12.8700    2.8560    5.3080 C   0  0  0  0  0  0  0  0  0  0  0  0
   14.3050    2.7920    4.8640 C   0  0  1  0  0  0  0  0  0  0  0  0
   15.2420    3.7340    5.6120 C   0  0  0  0  0  0  0  0  0  0  0  0
   16.6290    3.2110    5.7840 C   0  0  0  0  0  0  0  0  0  0  0  0
   17.5810    3.8820    6.4380 N   0  0  0  0  0  0  0  0  0  0  0  0
   18.6580    3.0870    6.3220 N   0  0  0  0  0  0  0  0  0  0  0  0
   18.4130    1.8860    5.7100 C   0  0  0  0  0  0  0  0  0  0  0  0
   19.3710    0.8210    5.4930 C   0  0  0  0  0  0  0  0  0  0  0  0
   19.1100   -0.1290    4.7650 O   0  0  0  0  0  0  0  0  0  0  0  0
   20.5520    0.9780    6.2020 N   0  0  0  0  0  0  0  0  0  0  0  0
   21.6390    0.1240    6.1430 C   0  0  0  0  0  0  0  0  0  0  0  0
   21.6410   -1.2090    5.6830 C   0  0  0  0  0  0  0  0  0  0  0  0
   22.8420   -1.7840    5.7660 N   0  0  0  0  0  0  0  0  0  0  0  0
   23.6390   -0.8040    6.2570 N   0  0  0  0  0  0  0  0  0  0  0  0
   25.0310   -1.1320    6.5770 C   0  0  2  0  0  0  0  0  0  0  0  0
   26.0270   -0.2120    5.8570 C   0  0  0  0  0  0  0  0  0  0  0  0
   26.9060    0.5740    6.6310 C   0  0  0  0  0  0  0  0  0  0  0  0
   27.8290    1.4300    6.0290 C   0  0  0  0  0  0  0  0  0  0  0  0
   27.8860    1.5260    4.6430 C   0  0  0  0  0  0  0  0  0  0  0  0
   27.0180    0.7710    3.8610 C   0  0  0  0  0  0  0  0  0  0  0  0
   26.0940   -0.0890    4.4610 C   0  0  0  0  0  0  0  0  0  0  0  0
   25.4240   -2.6280    6.6540 C   0  0  1  0  0  0  0  0  0  0  0  0
   26.9070   -2.9380    6.3740 C   0  0  0  0  0  0  0  0  0  0  0  0
   27.9050   -2.7360    7.5140 C   0  0  0  0  0  0  0  0  0  0  0  0
   27.3850   -3.0740    8.9080 C   0  0  0  0  0  0  0  0  0  0  0  0
   26.3110   -4.1380    8.8810 C   0  0  0  0  0  0  0  0  0  0  0  0
   24.8360   -3.5390    8.0760 S   0  0  0  0  0  0  0  0  0  0  0  0
   24.1690   -2.6520    9.0040 O   0  0  0  0  0  0  0  0  0  0  0  0
   24.1340   -4.7070    7.5740 O   0  0  0  0  0  0  0  0  0  0  0  0
   22.9410    0.3460    6.5170 C   0  0  0  0  0  0  0  0  0  0  0  0
   17.0930    1.9690    5.2990 C   0  0  0  0  0  0  0  0  0  0  0  0
   16.2600    1.0070    4.5270 C   0  0  0  0  0  0  0  0  0  0  0  0
   14.8370    1.4540    4.3130 C   0  0  2  0  0  0  0  0  0  0  0  0
   14.5620    2.5980    3.4060 C   0  0  0  0  0  0  0  0  0  0  0  0
   13.5150    2.5280    2.5150 F   0  0  0  0  0  0  0  0  0  0  0  0
   15.5840    3.2660    2.7720 F   0  0  0  0  0  0  0  0  0  0  0  0
   12.8260    2.8580    6.4071 H   0  0  0  0  0  0  0  0  0  0  0  0
   12.4071    3.7757    4.9209 H   0  0  0  0  0  0  0  0  0  0  0  0
   12.3270    1.9812    4.9209 H   0  0  0  0  0  0  0  0  0  0  0  0
   15.2973    4.6801    5.0537 H   0  0  0  0  0  0  0  0  0  0  0  0
   14.8243    3.8577    6.6220 H   0  0  0  0  0  0  0  0  0  0  0  0
   19.5410    3.4390    6.6750 H   0  0  0  0  0  0  0  0  0  0  0  0
   20.6120    1.7080    6.8950 H   0  0  0  0  0  0  0  0  0  0  0  0
   20.7471   -1.7205    5.2967 H   0  0  0  0  0  0  0  0  0  0  0  0
   25.1104   -0.8921    7.6476 H   0  0  0  0  0  0  0  0  0  0  0  0
   26.8631    0.5111    7.7284 H   0  0  0  0  0  0  0  0  0  0  0  0
   28.5112    2.0286    6.6506 H   0  0  0  0  0  0  0  0  0  0  0  0
   28.6155    2.1972    4.1662 H   0  0  0  0  0  0  0  0  0  0  0  0
   27.0590    0.8512    2.7647 H   0  0  0  0  0  0  0  0  0  0  0  0
   25.4106   -0.6769    3.8307 H   0  0  0  0  0  0  0  0  0  0  0  0
   24.8485   -3.0148    5.8001 H   0  0  0  0  0  0  0  0  0  0  0  0
   26.9694   -3.9923    6.0663 H   0  0  0  0  0  0  0  0  0  0  0  0
   27.2045   -2.2027    5.6119 H   0  0  0  0  0  0  0  0  0  0  0  0
   28.7803   -3.3718    7.3151 H   0  0  0  0  0  0  0  0  0  0  0  0
   28.1336   -1.6601    7.5289 H   0  0  0  0  0  0  0  0  0  0  0  0
   28.2246   -3.4352    9.5201 H   0  0  0  0  0  0  0  0  0  0  0  0
   26.9412   -2.1606    9.3307 H   0  0  0  0  0  0  0  0  0  0  0  0
   26.6877   -5.0153    8.3347 H   0  0  0  0  0  0  0  0  0  0  0  0
   26.0592   -4.4076    9.9173 H   0  0  0  0  0  0  0  0  0  0  0  0
   23.3479    1.2738    6.9454 H   0  0  0  0  0  0  0  0  0  0  0  0
   16.7270    0.8596    3.5420 H   0  0  0  0  0  0  0  0  0  0  0  0
   16.2145    0.0818    5.1203 H   0  0  0  0  0  0  0  0  0  0  0  0
   14.5135    0.4062    4.3998 H   0  0  0  0  0  0  0  0  0  0  0  0
  2  1  1  6
  2  3  1  0
  3  4  1  0
  4  5  2  0
  5  6  1  0
  6  7  1  0
  7  8  1  0
  8  9  2  0
  8 10  1  0
 10 11  1  0
 11 12  1  0
 12 13  2  0
 13 14  1  0
 14 15  1  0
 15 16  1  0
 16 17  2  0
 17 18  1  0
 18 19  2  0
 19 20  1  0
 20 21  2  0
 15 22  1  0
 22 23  1  0
 23 24  1  0
 24 25  1  0
 25 26  1  0
 26 27  1  0
 27 28  2  0
 27 29  2  0
 14 30  1  0
  7 31  2  0
 31 32  1  0
 32 33  1  0
 33 34  1  0
 34 35  1  0
 34 36  1  0
 33  2  1  0
 34  2  1  0
 31  4  1  0
 30 11  2  0
 21 16  1  0
 27 22  1  0
  1 37  1  0
  1 38  1  0
  1 39  1  0
  3 40  1  0
  3 41  1  0
  6 42  1  0
 10 43  1  0
 12 44  1  0
 15 45  1  1
 17 46  1  0
 18 47  1  0
 19 48  1  0
 20 49  1  0
 21 50  1  0
 22 51  1  6
 23 52  1  0
 23 53  1  0
 24 54  1  0
 24 55  1  0
 25 56  1  0
 25 57  1  0
 26 58  1  0
 26 59  1  0
 30 60  1  0
 32 61  1  0
 32 62  1  0
 33 63  1  6
M  END
>  <meeko>  (3) 
{"is_sidechain": [false], "free_energy": -11.152, "intermolecular_energy": -14.932, "internal_energy": -0.599}

$$$$
4rfm_ligand
     RDKit          3D

 63 68  0  0  0  0  0  0  0  0999 V2000
   13.4370    3.3460    5.6750 C   0  0  0  0  0  0  0  0  0  0  0  0
   14.7850    2.9980    5.1040 C   0  0  1  0  0  0  0  0  0  0  0  0
   15.9420    3.8120    5.6720 C   0  0  0  0  0  0  0  0  0  0  0  0
   17.2320    3.0680    5.7580 C   0  0  0  0  0  0  0  0  0  0  0  0
   18.3490    3.6070    6.2550 N   0  0  0  0  0  0  0  0  0  0  0  0
   19.2580    2.6280    6.1100 N   0  0  0  0  0  0  0  0  0  0  0  0
   18.7500    1.4470    5.6350 C   0  0  0  0  0  0  0  0  0  0  0  0
   19.4870    0.2180    5.4260 C   0  0  0  0  0  0  0  0  0  0  0  0
   19.1210   -0.6090    4.5980 O   0  0  0  0  0  0  0  0  0  0  0  0
   20.5850    0.0750    6.2590 N   0  0  0  0  0  0  0  0  0  0  0  0
   21.4730   -0.9860    6.2360 C   0  0  0  0  0  0  0  0  0  0  0  0
   21.1570   -2.3530    6.3730 C   0  0  0  0  0  0  0  0  0  0  0  0
   22.2340   -3.1410    6.3280 N   0  0  0  0  0  0  0  0  0  0  0  0
   23.2600   -2.2780    6.1290 N   0  0  0  0  0  0  0  0  0  0  0  0
   24.6270   -2.8080    6.1370 C   0  0  2  0  0  0  0  0  0  0  0  0
   25.1420   -3.1080    4.7220 C   0  0  0  0  0  0  0  0  0  0  0  0
   26.1970   -2.3270    4.2050 C   0  0  0  0  0  0  0  0  0  0  0  0
   26.7020   -2.5530    2.9240 C   0  0  0  0  0  0  0  0  0  0  0  0
   26.1580   -3.5570    2.1300 C   0  0  0  0  0  0  0  0  0  0  0  0
   25.1080   -4.3300    2.6150 C   0  0  0  0  0  0  0  0  0  0  0  0
   24.6010   -4.1070    3.8990 C   0  0  0  0  0  0  0  0  0  0  0  0
   24.9970   -3.8430    7.2270 C   0  0  1  0  0  0  0  0  0  0  0  0
   26.3130   -4.6110    6.9910 C   0  0  0  0  0  0  0  0  0  0  0  0
   27.6200   -3.9160    7.3680 C   0  0  0  0  0  0  0  0  0  0  0  0
   27.5580   -3.0280    8.6070 C   0  0  0  0  0  0  0  0  0  0  0  0
   26.5100   -3.4900    9.5960 C   0  0  0  0  0  0  0  0  0  0  0  0
   24.8690   -3.2990    8.9250 S   0  0  0  0  0  0  0  0  0  0  0  0
   24.5420   -1.8910    8.9810 O   0  0  0  0  0  0  0  0  0  0  0  0
   24.0240   -4.2570    9.6170 O   0  0  0  0  0  0  0  0  0  0  0  0
   22.8380   -0.9750    6.0950 C   0  0  0  0  0  0  0  0  0  0  0  0
   17.4260    1.7320    5.3450 C   0  0  0  0  0  0  0  0  0  0  0  0
   16.3640    0.8770    4.7470 C   0  0  0  0  0  0  0  0  0  0  0  0
   15.0220    1.5510    4.6290 C   0  0  2  0  0  0  0  0  0  0  0  0
   14.8450    2.6560    3.6520 C   0  0  0  0  0  0  0  0  0  0  0  0
   13.7100    2.7070    2.8750 F   0  0  0  0  0  0  0  0  0  0  0  0
   15.8880    3.0860    2.8660 F   0  0  0  0  0  0  0  0  0  0  0  0
   13.4896    3.3324    6.7737 H   0  0  0  0  0  0  0  0  0  0  0  0
   13.1425    4.3496    5.3344 H   0  0  0  0  0  0  0  0  0  0  0  0
   12.6935    2.6104    5.3344 H   0  0  0  0  0  0  0  0  0  0  0  0
   16.0935    4.6910    5.0282 H   0  0  0  0  0  0  0  0  0  0  0  0
   15.6633    4.0794    6.7020 H   0  0  0  0  0  0  0  0  0  0  0  0
   20.2210    2.8440    6.3440 H   0  0  0  0  0  0  0  0  0  0  0  0
   20.7150    0.7310    7.0130 H   0  0  0  0  0  0  0  0  0  0  0  0
   20.1320   -2.7304    6.5032 H   0  0  0  0  0  0  0  0  0  0  0  0
   25.2272   -1.9653    6.5108 H   0  0  0  0  0  0  0  0  0  0  0  0
   26.6291   -1.5258    4.8226 H   0  0  0  0  0  0  0  0  0  0  0  0
   27.5299   -1.9374    2.5423 H   0  0  0  0  0  0  0  0  0  0  0  0
   26.5569   -3.7393    1.1212 H   0  0  0  0  0  0  0  0  0  0  0  0
   24.6743   -5.1207    1.9852 H   0  0  0  0  0  0  0  0  0  0  0  0
   23.7676   -4.7226    4.2683 H   0  0  0  0  0  0  0  0  0  0  0  0
   24.1758   -4.5613    7.0868 H   0  0  0  0  0  0  0  0  0  0  0  0
   26.2576   -5.5434    7.5720 H   0  0  0  0  0  0  0  0  0  0  0  0
   26.3697   -4.7350    5.8995 H   0  0  0  0  0  0  0  0  0  0  0  0
   28.3781   -4.6930    7.5456 H   0  0  0  0  0  0  0  0  0  0  0  0
   27.8593   -3.2467    6.5284 H   0  0  0  0  0  0  0  0  0  0  0  0
   28.5406   -3.0420    9.1012 H   0  0  0  0  0  0  0  0  0  0  0  0
   27.2860   -2.0137    8.2794 H   0  0  0  0  0  0  0  0  0  0  0  0
   26.6809   -4.5508    9.8318 H   0  0  0  0  0  0  0  0  0  0  0  0
   26.5906   -2.8751   10.5045 H   0  0  0  0  0  0  0  0  0  0  0  0
   23.4746   -0.0858    5.9767 H   0  0  0  0  0  0  0  0  0  0  0  0
   16.6891    0.5770    3.7399 H   0  0  0  0  0  0  0  0  0  0  0  0
   16.2291    0.0207    5.4241 H   0  0  0  0  0  0  0  0  0  0  0  0
   14.5391    0.5857    4.8409 H   0  0  0  0  0  0  0  0  0  0  0  0
  2  1  1  6
  2  3  1  0
  3  4  1  0
  4  5  2  0
  5  6  1  0
  6  7  1  0
  7  8  1  0
  8  9  2  0
  8 10  1  0
 10 11  1  0
 11 12  1  0
 12 13  2  0
 13 14  1  0
 14 15  1  0
 15 16  1  0
 16 17  2  0
 17 18  1  0
 18 19  2  0
 19 20  1  0
 20 21  2  0
 15 22  1  0
 22 23  1  0
 23 24  1  0
 24 25  1  0
 25 26  1  0
 26 27  1  0
 27 28  2  0
 27 29  2  0
 14 30  1  0
  7 31  2  0
 31 32  1  0
 32 33  1  0
 33 34  1  0
 34 35  1  0
 34 36  1  0
 33  2  1  0
 34  2  1  0
 31  4  1  0
 30 11  2  0
 21 16  1  0
 27 22  1  0
  1 37  1  0
  1 38  1  0
  1 39  1  0
  3 40  1  0
  3 41  1  0
  6 42  1  0
 10 43  1  0
 12 44  1  0
 15 45  1  1
 17 46  1  0
 18 47  1  0
 19 48  1  0
 20 49  1  0
 21 50  1  0
 22 51  1  1
 23 52  1  0
 23 53  1  0
 24 54  1  0
 24 55  1  0
 25 56  1  0
 25 57  1  0
 26 58  1  0
 26 59  1  0
 30 60  1  0
 32 61  1  0
 32 62  1  0
 33 63  1  6
M  END
>  <meeko>  (4) 
{"is_sidechain": [false], "free_energy": -11.146, "intermolecular_energy": -14.537, "internal_energy": -0.987}

$$$$
4rfm_ligand
     RDKit          3D

 63 68  0  0  0  0  0  0  0  0999 V2000
   13.4730    3.0560    5.6150 C   0  0  0  0  0  0  0  0  0  0  0  0
   14.8670    2.8280    5.1000 C   0  0  1  0  0  0  0  0  0  0  0  0
   15.9220    3.7510    5.6980 C   0  0  0  0  0  0  0  0  0  0  0  0
   17.2720    3.1300    5.8430 C   0  0  0  0  0  0  0  0  0  0  0  0
   18.3140    3.7750    6.3730 N   0  0  0  0  0  0  0  0  0  0  0  0
   19.3140    2.8830    6.2760 N   0  0  0  0  0  0  0  0  0  0  0  0
   18.9350    1.6550    5.8000 C   0  0  0  0  0  0  0  0  0  0  0  0
   19.7890    0.4970    5.6360 C   0  0  0  0  0  0  0  0  0  0  0  0
   19.4020   -0.4970    5.0320 O   0  0  0  0  0  0  0  0  0  0  0  0
   21.0270    0.6240    6.2460 N   0  0  0  0  0  0  0  0  0  0  0  0
   22.0380   -0.3210    6.2070 C   0  0  0  0  0  0  0  0  0  0  0  0
   23.3860   -0.1000    5.8600 C   0  0  0  0  0  0  0  0  0  0  0  0
   24.1200   -1.2140    5.8960 N   0  0  0  0  0  0  0  0  0  0  0  0
   23.2450   -2.1660    6.3020 N   0  0  0  0  0  0  0  0  0  0  0  0
   23.7020   -3.5580    6.3480 C   0  0  2  0  0  0  0  0  0  0  0  0
   24.7590   -3.8600    5.2760 C   0  0  0  0  0  0  0  0  0  0  0  0
   26.0680   -4.1870    5.6880 C   0  0  0  0  0  0  0  0  0  0  0  0
   27.0700   -4.4650    4.7570 C   0  0  0  0  0  0  0  0  0  0  0  0
   26.7860   -4.4160    3.3960 C   0  0  0  0  0  0  0  0  0  0  0  0
   25.5060   -4.0820    2.9680 C   0  0  0  0  0  0  0  0  0  0  0  0
   24.5000   -3.8030    3.8990 C   0  0  0  0  0  0  0  0  0  0  0  0
   22.6420   -4.6620    6.5830 C   0  0  1  0  0  0  0  0  0  0  0  0
   22.8980   -5.9940    5.8510 C   0  0  0  0  0  0  0  0  0  0  0  0
   23.8900   -6.9730    6.4780 C   0  0  0  0  0  0  0  0  0  0  0  0
   23.8910   -7.0180    8.0030 C   0  0  0  0  0  0  0  0  0  0  0  0
   22.5440   -6.6580    8.5910 C   0  0  0  0  0  0  0  0  0  0  0  0
   22.1450   -4.9480    8.2770 S   0  0  0  0  0  0  0  0  0  0  0  0
   22.9430   -4.1460    9.1790 O   0  0  0  0  0  0  0  0  0  0  0  0
   20.6970   -4.8460    8.3200 O   0  0  0  0  0  0  0  0  0  0  0  0
   21.9810   -1.6660    6.4720 C   0  0  0  0  0  0  0  0  0  0  0  0
   17.6030    1.8130    5.4570 C   0  0  0  0  0  0  0  0  0  0  0  0
   16.6470    0.8570    4.8330 C   0  0  0  0  0  0  0  0  0  0  0  0
   15.2540    1.4030    4.6550 C   0  0  2  0  0  0  0  0  0  0  0  0
   15.0140    2.4760    3.6560 C   0  0  0  0  0  0  0  0  0  0  0  0
   13.9100    2.4130    2.8360 F   0  0  0  0  0  0  0  0  0  0  0  0
   16.0430    2.9920    2.9030 F   0  0  0  0  0  0  0  0  0  0  0  0
   13.4836    3.0543    6.7149 H   0  0  0  0  0  0  0  0  0  0  0  0
   13.1027    4.0266    5.2534 H   0  0  0  0  0  0  0  0  0  0  0  0
   12.8128    2.2539    5.2534 H   0  0  0  0  0  0  0  0  0  0  0  0
   16.0167    4.6328    5.0473 H   0  0  0  0  0  0  0  0  0  0  0  0
   15.5809    4.0027    6.7130 H   0  0  0  0  0  0  0  0  0  0  0  0
   20.2430    3.1890    6.5430 H   0  0  0  0  0  0  0  0  0  0  0  0
   21.1950    1.4120    6.8510 H   0  0  0  0  0  0  0  0  0  0  0  0
   23.7903    0.8863    5.5883 H   0  0  0  0  0  0  0  0  0  0  0  0
   24.2184   -3.6250    7.3169 H   0  0  0  0  0  0  0  0  0  0  0  0
   26.3031   -4.2235    6.7620 H   0  0  0  0  0  0  0  0  0  0  0  0
   28.0832   -4.7226    5.0991 H   0  0  0  0  0  0  0  0  0  0  0  0
   27.5722   -4.6410    2.6603 H   0  0  0  0  0  0  0  0  0  0  0  0
   25.2833   -4.0369    1.8917 H   0  0  0  0  0  0  0  0  0  0  0  0
   23.4929   -3.5355    3.5465 H   0  0  0  0  0  0  0  0  0  0  0  0
   21.7746   -4.1908    6.0976 H   0  0  0  0  0  0  0  0  0  0  0  0
   21.9321   -6.5137    5.7683 H   0  0  0  0  0  0  0  0  0  0  0  0
   23.3629   -5.7012    4.8980 H   0  0  0  0  0  0  0  0  0  0  0  0
   23.6507   -7.9813    6.1090 H   0  0  0  0  0  0  0  0  0  0  0  0
   24.8898   -6.6202    6.1849 H   0  0  0  0  0  0  0  0  0  0  0  0
   24.1573   -8.0351    8.3263 H   0  0  0  0  0  0  0  0  0  0  0  0
   24.6219   -6.2776    8.3602 H   0  0  0  0  0  0  0  0  0  0  0  0
   21.7715   -7.2966    8.1377 H   0  0  0  0  0  0  0  0  0  0  0  0
   22.5839   -6.8142    9.6791 H   0  0  0  0  0  0  0  0  0  0  0  0
   21.0874   -2.2362    6.7660 H   0  0  0  0  0  0  0  0  0  0  0  0
   17.0365    0.5765    3.8433 H   0  0  0  0  0  0  0  0  0  0  0  0
   16.5651    0.0001    5.5178 H   0  0  0  0  0  0  0  0  0  0  0  0
   14.8539    0.3996    4.8627 H   0  0  0  0  0  0  0  0  0  0  0  0
  2  1  1  6
  2  3  1  0
  3  4  1  0
  4  5  2  0
  5  6  1  0
  6  7  1  0
  7  8  1  0
  8  9  2  0
  8 10  1  0
 10 11  1  0
 11 12  1  0
 12 13  2  0
 13 14  1  0
 14 15  1  0
 15 16  1  0
 16 17  2  0
 17 18  1  0
 18 19  2  0
 19 20  1  0
 20 21  2  0
 15 22  1  0
 22 23  1  0
 23 24  1  0
 24 25  1  0
 25 26  1  0
 26 27  1  0
 27 28  2  0
 27 29  2  0
 14 30  1  0
  7 31  2  0
 31 32  1  0
 32 33  1  0
 33 34  1  0
 34 35  1  0
 34 36  1  0
 33  2  1  0
 34  2  1  0
 31  4  1  0
 30 11  2  0
 21 16  1  0
 27 22  1  0
  1 37  1  0
  1 38  1  0
  1 39  1  0
  3 40  1  0
  3 41  1  0
  6 42  1  0
 10 43  1  0
 12 44  1  0
 15 45  1  1
 17 46  1  0
 18 47  1  0
 19 48  1  0
 20 49  1  0
 21 50  1  0
 22 51  1  6
 23 52  1  0
 23 53  1  0
 24 54  1  0
 24 55  1  0
 25 56  1  0
 25 57  1  0
 26 58  1  0
 26 59  1  0
 30 60  1  0
 32 61  1  0
 32 62  1  0
 33 63  1  6
M  END
>  <meeko>  (5) 
{"is_sidechain": [false], "free_energy": -11.105, "intermolecular_energy": -14.739, "internal_energy": -0.732}

$$$$
4rfm_ligand
     RDKit          3D

 63 68  0  0  0  0  0  0  0  0999 V2000
   13.0190    3.1000    5.4570 C   0  0  0  0  0  0  0  0  0  0  0  0
   14.4200    2.9110    4.9460 C   0  0  1  0  0  0  0  0  0  0  0  0
   15.4670    3.7810    5.6330 C   0  0  0  0  0  0  0  0  0  0  0  0
   16.8130    3.1480    5.7470 C   0  0  0  0  0  0  0  0  0  0  0  0
   17.8480    3.7460    6.3430 N   0  0  0  0  0  0  0  0  0  0  0  0
   18.8490    2.8630    6.1900 N   0  0  0  0  0  0  0  0  0  0  0  0
   18.4760    1.6780    5.6100 C   0  0  0  0  0  0  0  0  0  0  0  0
   19.3320    0.5350    5.3660 C   0  0  0  0  0  0  0  0  0  0  0  0
   19.0130   -0.3370    4.5670 O   0  0  0  0  0  0  0  0  0  0  0  0
   20.4850    0.5260    6.1350 N   0  0  0  0  0  0  0  0  0  0  0  0
   21.4830   -0.4310    6.0670 C   0  0  0  0  0  0  0  0  0  0  0  0
   21.3090   -1.8290    6.0180 C   0  0  0  0  0  0  0  0  0  0  0  0
   22.4650   -2.4950    5.9760 N   0  0  0  0  0  0  0  0  0  0  0  0
   23.4030   -1.5160    5.9670 N   0  0  0  0  0  0  0  0  0  0  0  0
   24.8150   -1.9040    6.0310 C   0  0  2  0  0  0  0  0  0  0  0  0
   25.1580   -2.6390    7.3360 C   0  0  0  0  0  0  0  0  0  0  0  0
   25.9020   -3.8340    7.2640 C   0  0  0  0  0  0  0  0  0  0  0  0
   26.2390   -4.5450    8.4170 C   0  0  0  0  0  0  0  0  0  0  0  0
   25.8320   -4.0810    9.6630 C   0  0  0  0  0  0  0  0  0  0  0  0
   25.0850   -2.9110    9.7540 C   0  0  0  0  0  0  0  0  0  0  0  0
   24.7470   -2.1960    8.6020 C   0  0  0  0  0  0  0  0  0  0  0  0
   25.8690   -0.8870    5.5290 C   0  0  1  0  0  0  0  0  0  0  0  0
   26.5430   -0.0360    6.6230 C   0  0  0  0  0  0  0  0  0  0  0  0
   27.6920   -0.6660    7.4100 C   0  0  0  0  0  0  0  0  0  0  0  0
   28.5980   -1.5990    6.6120 C   0  0  0  0  0  0  0  0  0  0  0  0
   28.6550   -1.2330    5.1460 C   0  0  0  0  0  0  0  0  0  0  0  0
   27.0760   -1.4970    4.3590 S   0  0  0  0  0  0  0  0  0  0  0  0
   26.9210   -2.9230    4.1700 O   0  0  0  0  0  0  0  0  0  0  0  0
   27.0350   -0.6150    3.2050 O   0  0  0  0  0  0  0  0  0  0  0  0
   22.8460   -0.2670    6.0460 C   0  0  0  0  0  0  0  0  0  0  0  0
   17.1490    1.8660    5.2610 C   0  0  0  0  0  0  0  0  0  0  0  0
   16.2030    0.9650    4.5470 C   0  0  0  0  0  0  0  0  0  0  0  0
   14.8130    1.5260    4.3930 C   0  0  2  0  0  0  0  0  0  0  0  0
   14.5890    2.6770    3.4810 C   0  0  0  0  0  0  0  0  0  0  0  0
   13.4970    2.6820    2.6420 F   0  0  0  0  0  0  0  0  0  0  0  0
   15.6300    3.2500    2.7870 F   0  0  0  0  0  0  0  0  0  0  0  0
   13.0267    3.0990    6.5570 H   0  0  0  0  0  0  0  0  0  0  0  0
   12.6226    4.0598    5.0940 H   0  0  0  0  0  0  0  0  0  0  0  0
   12.3825    2.2796    5.0940 H   0  0  0  0  0  0  0  0  0  0  0  0
   15.5721    4.7125    5.0575 H   0  0  0  0  0  0  0  0  0  0  0  0
   15.1108    3.9504    6.6599 H   0  0  0  0  0  0  0  0  0  0  0  0
   19.7740    3.1450    6.4940 H   0  0  0  0  0  0  0  0  0  0  0  0
   20.5850    1.2020    6.8750 H   0  0  0  0  0  0  0  0  0  0  0  0
   20.3244   -2.3194    6.0147 H   0  0  0  0  0  0  0  0  0  0  0  0
   24.9144   -2.6460    5.2250 H   0  0  0  0  0  0  0  0  0  0  0  0
   26.2226   -4.2128    6.2823 H   0  0  0  0  0  0  0  0  0  0  0  0
   26.8263   -5.4719    8.3399 H   0  0  0  0  0  0  0  0  0  0  0  0
   26.0998   -4.6371   10.5735 H   0  0  0  0  0  0  0  0  0  0  0  0
   24.7583   -2.5464   10.7391 H   0  0  0  0  0  0  0  0  0  0  0  0
   24.1517   -1.2751    8.6889 H   0  0  0  0  0  0  0  0  0  0  0  0
   25.2165   -0.2129    4.9547 H   0  0  0  0  0  0  0  0  0  0  0  0
   26.9355    0.8701    6.1384 H   0  0  0  0  0  0  0  0  0  0  0  0
   25.7533    0.1294    7.3707 H   0  0  0  0  0  0  0  0  0  0  0  0
   28.3132    0.1474    7.8131 H   0  0  0  0  0  0  0  0  0  0  0  0
   27.2223   -1.2895    8.1850 H   0  0  0  0  0  0  0  0  0  0  0  0
   29.6145   -1.5462    7.0290 H   0  0  0  0  0  0  0  0  0  0  0  0
   28.1833   -2.6150    6.6880 H   0  0  0  0  0  0  0  0  0  0  0  0
   28.9317   -0.1726    5.0505 H   0  0  0  0  0  0  0  0  0  0  0  0
   29.4029   -1.8723    4.6541 H   0  0  0  0  0  0  0  0  0  0  0  0
   23.3892    0.6887    6.0853 H   0  0  0  0  0  0  0  0  0  0  0  0
   16.6075    0.7652    3.5438 H   0  0  0  0  0  0  0  0  0  0  0  0
   16.1108    0.0551    5.1582 H   0  0  0  0  0  0  0  0  0  0  0  0
   14.4092    0.5098    4.5127 H   0  0  0  0  0  0  0  0  0  0  0  0
  2  1  1  6
  2  3  1  0
  3  4  1  0
  4  5  2  0
  5  6  1  0
  6  7  1  0
  7  8  1  0
  8  9  2  0
  8 10  1  0
 10 11  1  0
 11 12  1  0
 12 13  2  0
 13 14  1  0
 14 15  1  0
 15 16  1  0
 16 17  2  0
 17 18  1  0
 18 19  2  0
 19 20  1  0
 20 21  2  0
 15 22  1  0
 22 23  1  0
 23 24  1  0
 24 25  1  0
 25 26  1  0
 26 27  1  0
 27 28  2  0
 27 29  2  0
 14 30  1  0
  7 31  2  0
 31 32  1  0
 32 33  1  0
 33 34  1  0
 34 35  1  0
 34 36  1  0
 33  2  1  0
 34  2  1  0
 31  4  1  0
 30 11  2  0
 21 16  1  0
 27 22  1  0
  1 37  1  0
  1 38  1  0
  1 39  1  0
  3 40  1  0
  3 41  1  0
  6 42  1  0
 10 43  1  0
 12 44  1  0
 15 45  1  6
 17 46  1  0
 18 47  1  0
 19 48  1  0
 20 49  1  0
 21 50  1  0
 22 51  1  6
 23 52  1  0
 23 53  1  0
 24 54  1  0
 24 55  1  0
 25 56  1  0
 25 57  1  0
 26 58  1  0
 26 59  1  0
 30 60  1  0
 32 61  1  0
 32 62  1  0
 33 63  1  6
M  END
>  <meeko>  (6) 
{"is_sidechain": [false], "free_energy": -10.884, "intermolecular_energy": -14.462, "internal_energy": -0.723}

$$$$
4rfm_ligand
     RDKit          3D

 63 68  0  0  0  0  0  0  0  0999 V2000
   13.3920    3.2640    5.7030 C   0  0  0  0  0  0  0  0  0  0  0  0
   14.7580    2.9800    5.1400 C   0  0  1  0  0  0  0  0  0  0  0  0
   15.8820    3.7980    5.7650 C   0  0  0  0  0  0  0  0  0  0  0  0
   17.1920    3.0860    5.8390 C   0  0  0  0  0  0  0  0  0  0  0  0
   18.2850    3.6320    6.3790 N   0  0  0  0  0  0  0  0  0  0  0  0
   19.2240    2.6860    6.2050 N   0  0  0  0  0  0  0  0  0  0  0  0
   18.7560    1.5150    5.6670 C   0  0  0  0  0  0  0  0  0  0  0  0
   19.5300    0.3180    5.4140 C   0  0  0  0  0  0  0  0  0  0  0  0
   19.0980   -0.5780    4.6980 O   0  0  0  0  0  0  0  0  0  0  0  0
   20.7480    0.2890    6.0750 N   0  0  0  0  0  0  0  0  0  0  0  0
   21.6890   -0.7220    5.9740 C   0  0  0  0  0  0  0  0  0  0  0  0
   21.5110   -2.0780    6.3170 C   0  0  0  0  0  0  0  0  0  0  0  0
   22.6100   -2.8100    6.1250 N   0  0  0  0  0  0  0  0  0  0  0  0
   23.5060   -1.9250    5.6230 N   0  0  0  0  0  0  0  0  0  0  0  0
   24.8800   -2.3800    5.3930 C   0  0  2  0  0  0  0  0  0  0  0  0
   25.9190   -1.3780    5.9160 C   0  0  0  0  0  0  0  0  0  0  0  0
   26.6770   -1.7200    7.0560 C   0  0  0  0  0  0  0  0  0  0  0  0
   27.6320   -0.8460    7.5770 C   0  0  0  0  0  0  0  0  0  0  0  0
   27.8450    0.3890    6.9760 C   0  0  0  0  0  0  0  0  0  0  0  0
   27.0990    0.7520    5.8590 C   0  0  0  0  0  0  0  0  0  0  0  0
   26.1420   -0.1210    5.3340 C   0  0  0  0  0  0  0  0  0  0  0  0
   25.2060   -3.0460    4.0330 C   0  0  1  0  0  0  0  0  0  0  0  0
   26.5660   -2.6650    3.4180 C   0  0  0  0  0  0  0  0  0  0  0  0
   27.8100   -3.3840    3.9380 C   0  0  0  0  0  0  0  0  0  0  0  0
   27.6130   -4.8510    4.3100 C   0  0  0  0  0  0  0  0  0  0  0  0
   26.5100   -5.5050    3.5080 C   0  0  0  0  0  0  0  0  0  0  0  0
   24.9200   -4.8080    3.9160 S   0  0  0  0  0  0  0  0  0  0  0  0
   24.5320   -5.3430    5.2030 O   0  0  0  0  0  0  0  0  0  0  0  0
   24.0640   -5.0250    2.7630 O   0  0  0  0  0  0  0  0  0  0  0  0
   22.9910   -0.6580    5.5440 C   0  0  0  0  0  0  0  0  0  0  0  0
   17.4300    1.7760    5.3680 C   0  0  0  0  0  0  0  0  0  0  0  0
   16.4020    0.9220    4.7130 C   0  0  0  0  0  0  0  0  0  0  0  0
   15.0430    1.5630    4.6020 C   0  0  2  0  0  0  0  0  0  0  0  0
   14.8510    2.7080    3.6750 C   0  0  0  0  0  0  0  0  0  0  0  0
   13.7270    2.7640    2.8810 F   0  0  0  0  0  0  0  0  0  0  0  0
   15.8940    3.2020    2.9280 F   0  0  0  0  0  0  0  0  0  0  0  0
   13.4391    3.2542    6.8019 H   0  0  0  0  0  0  0  0  0  0  0  0
   13.0519    4.2521    5.3593 H   0  0  0  0  0  0  0  0  0  0  0  0
   12.6863    2.4934    5.3593 H   0  0  0  0  0  0  0  0  0  0  0  0
   16.0189    4.7099    5.1653 H   0  0  0  0  0  0  0  0  0  0  0  0
   15.5793    4.0092    6.8012 H   0  0  0  0  0  0  0  0  0  0  0  0
   20.1760    2.9170    6.4650 H   0  0  0  0  0  0  0  0  0  0  0  0
   20.9470    0.9970    6.7640 H   0  0  0  0  0  0  0  0  0  0  0  0
   20.5661   -2.4890    6.7021 H   0  0  0  0  0  0  0  0  0  0  0  0
   24.9643   -3.2728    6.0300 H   0  0  0  0  0  0  0  0  0  0  0  0
   26.5122   -2.6927    7.5426 H   0  0  0  0  0  0  0  0  0  0  0  0
   28.2162   -1.1345    8.4633 H   0  0  0  0  0  0  0  0  0  0  0  0
   28.6009    1.0772    7.3821 H   0  0  0  0  0  0  0  0  0  0  0  0
   27.2633    1.7316    5.3864 H   0  0  0  0  0  0  0  0  0  0  0  0
   25.5563    0.1813    4.4534 H   0  0  0  0  0  0  0  0  0  0  0  0
   24.4303   -2.5803    3.4074 H   0  0  0  0  0  0  0  0  0  0  0  0
   26.5030   -2.8587    2.3370 H   0  0  0  0  0  0  0  0  0  0  0  0
   26.7143   -1.6132    3.7041 H   0  0  0  0  0  0  0  0  0  0  0  0
   28.5824   -3.3332    3.1565 H   0  0  0  0  0  0  0  0  0  0  0  0
   28.0883   -2.8706    4.8702 H   0  0  0  0  0  0  0  0  0  0  0  0
   28.5528   -5.3918    4.1250 H   0  0  0  0  0  0  0  0  0  0  0  0
   27.3267   -4.8928    5.3713 H   0  0  0  0  0  0  0  0  0  0  0  0
   26.7054   -5.3514    2.4364 H   0  0  0  0  0  0  0  0  0  0  0  0
   26.4929   -6.5784    3.7478 H   0  0  0  0  0  0  0  0  0  0  0  0
   23.5216    0.2422    5.2003 H   0  0  0  0  0  0  0  0  0  0  0  0
   16.7518    0.6782    3.6990 H   0  0  0  0  0  0  0  0  0  0  0  0
   16.2799    0.0324    5.3484 H   0  0  0  0  0  0  0  0  0  0  0  0
   14.5838    0.5759    4.7593 H   0  0  0  0  0  0  0  0  0  0  0  0
  2  1  1  6
  2  3  1  0
  3  4  1  0
  4  5  2  0
  5  6  1  0
  6  7  1  0
  7  8  1  0
  8  9  2  0
  8 10  1  0
 10 11  1  0
 11 12  1  0
 12 13  2  0
 13 14  1  0
 14 15  1  0
 15 16  1  0
 16 17  2  0
 17 18  1  0
 18 19  2  0
 19 20  1  0
 20 21  2  0
 15 22  1  0
 22 23  1  0
 23 24  1  0
 24 25  1  0
 25 26  1  0
 26 27  1  0
 27 28  2  0
 27 29  2  0
 14 30  1  0
  7 31  2  0
 31 32  1  0
 32 33  1  0
 33 34  1  0
 34 35  1  0
 34 36  1  0
 33  2  1  0
 34  2  1  0
 31  4  1  0
 30 11  2  0
 21 16  1  0
 27 22  1  0
  1 37  1  0
  1 38  1  0
  1 39  1  0
  3 40  1  0
  3 41  1  0
  6 42  1  0
 10 43  1  0
 12 44  1  0
 15 45  1  1
 17 46  1  0
 18 47  1  0
 19 48  1  0
 20 49  1  0
 21 50  1  0
 22 51  1  6
 23 52  1  0
 23 53  1  0
 24 54  1  0
 24 55  1  0
 25 56  1  0
 25 57  1  0
 26 58  1  0
 26 59  1  0
 30 60  1  0
 32 61  1  0
 32 62  1  0
 33 63  1  6
M  END
>  <meeko>  (7) 
{"is_sidechain": [false], "free_energy": -10.876, "intermolecular_energy": -14.682, "internal_energy": -0.494}

$$$$
4rfm_ligand
     RDKit          3D

 63 68  0  0  0  0  0  0  0  0999 V2000
   13.6900    3.5630    5.8130 C   0  0  0  0  0  0  0  0  0  0  0  0
   14.9530    3.0300    5.1960 C   0  0  1  0  0  0  0  0  0  0  0  0
   16.2260    3.7370    5.6480 C   0  0  0  0  0  0  0  0  0  0  0  0
   17.4280    2.8550    5.7140 C   0  0  0  0  0  0  0  0  0  0  0  0
   18.6260    3.2900    6.1150 N   0  0  0  0  0  0  0  0  0  0  0  0
   19.4100    2.2070    5.9860 N   0  0  0  0  0  0  0  0  0  0  0  0
   18.7450    1.0660    5.6160 C   0  0  0  0  0  0  0  0  0  0  0  0
   19.3260   -0.2500    5.4490 C   0  0  0  0  0  0  0  0  0  0  0  0
   19.3100   -0.8170    4.3630 O   0  0  0  0  0  0  0  0  0  0  0  0
   19.8470   -0.7840    6.6170 N   0  0  0  0  0  0  0  0  0  0  0  0
   20.4890   -2.0060    6.7200 C   0  0  0  0  0  0  0  0  0  0  0  0
   19.8930   -3.2500    7.0110 C   0  0  0  0  0  0  0  0  0  0  0  0
   20.7760   -4.2490    7.0620 N   0  0  0  0  0  0  0  0  0  0  0  0
   21.9580   -3.6530    6.7710 N   0  0  0  0  0  0  0  0  0  0  0  0
   23.1810   -4.4570    6.8460 C   0  0  2  0  0  0  0  0  0  0  0  0
   23.5480   -5.0850    5.4940 C   0  0  0  0  0  0  0  0  0  0  0  0
   24.4300   -4.3890    4.6400 C   0  0  0  0  0  0  0  0  0  0  0  0
   24.7950   -4.9100    3.3990 C   0  0  0  0  0  0  0  0  0  0  0  0
   24.2810   -6.1330    2.9810 C   0  0  0  0  0  0  0  0  0  0  0  0
   23.3990   -6.8290    3.8010 C   0  0  0  0  0  0  0  0  0  0  0  0
   23.0330   -6.3100    5.0460 C   0  0  0  0  0  0  0  0  0  0  0  0
   23.3810   -5.3590    8.0890 C   0  0  1  0  0  0  0  0  0  0  0  0
   24.2730   -6.5970    7.8720 C   0  0  0  0  0  0  0  0  0  0  0  0
   25.7880   -6.4000    7.9140 C   0  0  0  0  0  0  0  0  0  0  0  0
   26.2870   -5.3620    8.9150 C   0  0  0  0  0  0  0  0  0  0  0  0
   25.3650   -5.2210   10.1060 C   0  0  0  0  0  0  0  0  0  0  0  0
   23.7920   -4.5330    9.6210 S   0  0  0  0  0  0  0  0  0  0  0  0
   23.9920   -3.1180    9.3940 O   0  0  0  0  0  0  0  0  0  0  0  0
   22.8250   -4.9690   10.6130 O   0  0  0  0  0  0  0  0  0  0  0  0
   21.8220   -2.3020    6.5860 C   0  0  0  0  0  0  0  0  0  0  0  0
   17.4460    1.4840    5.3790 C   0  0  0  0  0  0  0  0  0  0  0  0
   16.2610    0.7230    4.8950 C   0  0  0  0  0  0  0  0  0  0  0  0
   14.9980    1.5390    4.8040 C   0  0  2  0  0  0  0  0  0  0  0  0
   14.8870    2.5980    3.7680 C   0  0  0  0  0  0  0  0  0  0  0  0
   13.7210    2.7330    3.0500 F   0  0  0  0  0  0  0  0  0  0  0  0
   15.9230    2.8580    2.9020 F   0  0  0  0  0  0  0  0  0  0  0  0
   13.7741    3.5275    6.9092 H   0  0  0  0  0  0  0  0  0  0  0  0
   13.5351    4.6032    5.4906 H   0  0  0  0  0  0  0  0  0  0  0  0
   12.8367    2.9483    5.4906 H   0  0  0  0  0  0  0  0  0  0  0  0
   16.4361    4.5534    4.9413 H   0  0  0  0  0  0  0  0  0  0  0  0
   16.0412    4.0946    6.6717 H   0  0  0  0  0  0  0  0  0  0  0  0
   20.4020    2.3230    6.1540 H   0  0  0  0  0  0  0  0  0  0  0  0
   19.6740   -0.3120    7.4900 H   0  0  0  0  0  0  0  0  0  0  0  0
   18.8140   -3.3830    7.1783 H   0  0  0  0  0  0  0  0  0  0  0  0
   23.9630   -3.7144    7.0627 H   0  0  0  0  0  0  0  0  0  0  0  0
   24.8369   -3.4181    4.9590 H   0  0  0  0  0  0  0  0  0  0  0  0
   25.4889   -4.3542    2.7512 H   0  0  0  0  0  0  0  0  0  0  0  0
   24.5712   -6.5486    2.0047 H   0  0  0  0  0  0  0  0  0  0  0  0
   22.9873   -7.7931    3.4678 H   0  0  0  0  0  0  0  0  0  0  0  0
   22.3319   -6.8696    5.6827 H   0  0  0  0  0  0  0  0  0  0  0  0
   22.3517   -5.7241    8.2204 H   0  0  0  0  0  0  0  0  0  0  0  0
   24.0154   -7.3279    8.6527 H   0  0  0  0  0  0  0  0  0  0  0  0
   24.0632   -6.9120    6.8392 H   0  0  0  0  0  0  0  0  0  0  0  0
   26.2486   -7.3658    8.1690 H   0  0  0  0  0  0  0  0  0  0  0  0
   26.0716   -6.0227    6.9204 H   0  0  0  0  0  0  0  0  0  0  0  0
   27.2821   -5.6654    9.2723 H   0  0  0  0  0  0  0  0  0  0  0  0
   26.3229   -4.3901    8.4012 H   0  0  0  0  0  0  0  0  0  0  0  0
   25.2011   -6.2126   10.5531 H   0  0  0  0  0  0  0  0  0  0  0  0
   25.8344   -4.5423   10.8334 H   0  0  0  0  0  0  0  0  0  0  0  0
   22.6306   -1.5881    6.3703 H   0  0  0  0  0  0  0  0  0  0  0  0
   16.4897    0.3285    3.8940 H   0  0  0  0  0  0  0  0  0  0  0  0
   16.0721   -0.0706    5.6329 H   0  0  0  0  0  0  0  0  0  0  0  0
   14.4239    0.6497    5.1032 H   0  0  0  0  0  0  0  0  0  0  0  0
  2  1  1  1
  2  3  1  0
  3  4  1  0
  4  5  2  0
  5  6  1  0
  6  7  1  0
  7  8  1  0
  8  9  2  0
  8 10  1  0
 10 11  1  0
 11 12  1  0
 12 13  2  0
 13 14  1  0
 14 15  1  0
 15 16  1  0
 16 17  2  0
 17 18  1  0
 18 19  2  0
 19 20  1  0
 20 21  2  0
 15 22  1  0
 22 23  1  0
 23 24  1  0
 24 25  1  0
 25 26  1  0
 26 27  1  0
 27 28  2  0
 27 29  2  0
 14 30  1  0
  7 31  2  0
 31 32  1  0
 32 33  1  0
 33 34  1  0
 34 35  1  0
 34 36  1  0
 33  2  1  0
 34  2  1  0
 31  4  1  0
 30 11  2  0
 21 16  1  0
 27 22  1  0
  1 37  1  0
  1 38  1  0
  1 39  1  0
  3 40  1  0
  3 41  1  0
  6 42  1  0
 10 43  1  0
 12 44  1  0
 15 45  1  1
 17 46  1  0
 18 47  1  0
 19 48  1  0
 20 49  1  0
 21 50  1  0
 22 51  1  1
 23 52  1  0
 23 53  1  0
 24 54  1  0
 24 55  1  0
 25 56  1  0
 25 57  1  0
 26 58  1  0
 26 59  1  0
 30 60  1  0
 32 61  1  0
 32 62  1  0
 33 63  1  1
M  END
>  <meeko>  (8) 
{"is_sidechain": [false], "free_energy": -10.756, "intermolecular_energy": -13.917, "internal_energy": -1.103}

$$$$
4rfm_ligand
     RDKit          3D

 63 68  0  0  0  0  0  0  0  0999 V2000
   13.3350    3.4080    5.5810 C   0  0  0  0  0  0  0  0  0  0  0  0
   14.7170    3.0390    5.1180 C   0  0  1  0  0  0  0  0  0  0  0  0
   15.8260    3.9320    5.6630 C   0  0  0  0  0  0  0  0  0  0  0  0
   17.1240    3.2320    5.8900 C   0  0  0  0  0  0  0  0  0  0  0  0
   18.2020    3.8430    6.3890 N   0  0  0  0  0  0  0  0  0  0  0  0
   19.1360    2.8780    6.3890 N   0  0  0  0  0  0  0  0  0  0  0  0
   18.6770    1.6440    6.0060 C   0  0  0  0  0  0  0  0  0  0  0  0
   19.4480    0.4190    5.9580 C   0  0  0  0  0  0  0  0  0  0  0  0
   18.9110   -0.6600    5.7320 O   0  0  0  0  0  0  0  0  0  0  0  0
   20.7970    0.5960    6.2190 N   0  0  0  0  0  0  0  0  0  0  0  0
   21.7530   -0.4050    6.1980 C   0  0  0  0  0  0  0  0  0  0  0  0
   21.6570   -1.6500    5.5430 C   0  0  0  0  0  0  0  0  0  0  0  0
   22.7370   -2.4140    5.7210 N   0  0  0  0  0  0  0  0  0  0  0  0
   23.5580   -1.6450    6.4760 N   0  0  0  0  0  0  0  0  0  0  0  0
   24.8150   -2.2290    6.9550 C   0  0  2  0  0  0  0  0  0  0  0  0
   24.5860   -3.4960    7.7910 C   0  0  0  0  0  0  0  0  0  0  0  0
   23.8980   -3.3850    9.0170 C   0  0  0  0  0  0  0  0  0  0  0  0
   23.6650   -4.5030    9.8190 C   0  0  0  0  0  0  0  0  0  0  0  0
   24.1210   -5.7540    9.4160 C   0  0  0  0  0  0  0  0  0  0  0  0
   24.8140   -5.8830    8.2160 C   0  0  0  0  0  0  0  0  0  0  0  0
   25.0470   -4.7650    7.4100 C   0  0  0  0  0  0  0  0  0  0  0  0
   25.9110   -1.2650    7.4720 C   0  0  1  0  0  0  0  0  0  0  0  0
   26.7960   -1.8160    8.6070 C   0  0  0  0  0  0  0  0  0  0  0  0
   27.9500   -2.7420    8.2260 C   0  0  0  0  0  0  0  0  0  0  0  0
   28.6500   -2.4110    6.9110 C   0  0  0  0  0  0  0  0  0  0  0  0
   28.5790   -0.9380    6.5750 C   0  0  0  0  0  0  0  0  0  0  0  0
   26.9010   -0.4400    6.2320 S   0  0  0  0  0  0  0  0  0  0  0  0
   26.5680   -0.9290    4.9120 O   0  0  0  0  0  0  0  0  0  0  0  0
   26.8270    0.9850    6.5070 O   0  0  0  0  0  0  0  0  0  0  0  0
   22.9860   -0.4430    6.8000 C   0  0  0  0  0  0  0  0  0  0  0  0
   17.3660    1.8670    5.6210 C   0  0  0  0  0  0  0  0  0  0  0  0
   16.3540    0.9320    5.0550 C   0  0  0  0  0  0  0  0  0  0  0  0
   15.0080    1.5580    4.8010 C   0  0  2  0  0  0  0  0  0  0  0  0
   14.8630    2.5590    3.7120 C   0  0  0  0  0  0  0  0  0  0  0  0
   13.7720    2.5060    2.8750 F   0  0  0  0  0  0  0  0  0  0  0  0
   15.9390    2.9360    2.9430 F   0  0  0  0  0  0  0  0  0  0  0  0
   13.3065    3.4156    6.6806 H   0  0  0  0  0  0  0  0  0  0  0  0
   13.0754    4.4069    5.2006 H   0  0  0  0  0  0  0  0  0  0  0  0
   12.6120    2.6714    5.2006 H   0  0  0  0  0  0  0  0  0  0  0  0
   15.9957    4.7475    4.9445 H   0  0  0  0  0  0  0  0  0  0  0  0
   15.4863    4.2909    6.6457 H   0  0  0  0  0  0  0  0  0  0  0  0
   20.0800    3.1390    6.6500 H   0  0  0  0  0  0  0  0  0  0  0  0
   21.1180    1.4930    6.5470 H   0  0  0  0  0  0  0  0  0  0  0  0
   20.7846   -1.9589    4.9484 H   0  0  0  0  0  0  0  0  0  0  0  0
   25.3147   -2.5562    6.0313 H   0  0  0  0  0  0  0  0  0  0  0  0
   23.5385   -2.3992    9.3471 H   0  0  0  0  0  0  0  0  0  0  0  0
   23.1212   -4.3952   10.7691 H   0  0  0  0  0  0  0  0  0  0  0  0
   23.9345   -6.6380   10.0435 H   0  0  0  0  0  0  0  0  0  0  0  0
   25.1806   -6.8708    7.8999 H   0  0  0  0  0  0  0  0  0  0  0  0
   25.5986   -4.8816    6.4655 H   0  0  0  0  0  0  0  0  0  0  0  0
   25.2764   -0.4812    7.9113 H   0  0  0  0  0  0  0  0  0  0  0  0
   27.2285   -0.9528    9.1341 H   0  0  0  0  0  0  0  0  0  0  0  0
   26.1203   -2.4469    9.2032 H   0  0  0  0  0  0  0  0  0  0  0  0
   28.6997   -2.6978    9.0297 H   0  0  0  0  0  0  0  0  0  0  0  0
   27.5054   -3.7388    8.0894 H   0  0  0  0  0  0  0  0  0  0  0  0
   29.7071   -2.7048    6.9898 H   0  0  0  0  0  0  0  0  0  0  0  0
   28.1369   -2.9630    6.1097 H   0  0  0  0  0  0  0  0  0  0  0  0
   28.9598   -0.3560    7.4272 H   0  0  0  0  0  0  0  0  0  0  0  0
   29.1892   -0.7535    5.6786 H   0  0  0  0  0  0  0  0  0  0  0  0
   23.4316    0.3444    7.4256 H   0  0  0  0  0  0  0  0  0  0  0  0
   16.7392    0.5434    4.1007 H   0  0  0  0  0  0  0  0  0  0  0  0
   16.1987    0.1428    5.8054 H   0  0  0  0  0  0  0  0  0  0  0  0
   14.5333    0.6061    5.0812 H   0  0  0  0  0  0  0  0  0  0  0  0
  2  1  1  6
  2  3  1  0
  3  4  1  0
  4  5  2  0
  5  6  1  0
  6  7  1  0
  7  8  1  0
  8  9  2  0
  8 10  1  0
 10 11  1  0
 11 12  1  0
 12 13  2  0
 13 14  1  0
 14 15  1  0
 15 16  1  0
 16 17  2  0
 17 18  1  0
 18 19  2  0
 19 20  1  0
 20 21  2  0
 15 22  1  0
 22 23  1  0
 23 24  1  0
 24 25  1  0
 25 26  1  0
 26 27  1  0
 27 28  2  0
 27 29  2  0
 14 30  1  0
  7 31  2  0
 31 32  1  0
 32 33  1  0
 33 34  1  0
 34 35  1  0
 34 36  1  0
 33  2  1  0
 34  2  1  0
 31  4  1  0
 30 11  2  0
 21 16  1  0
 27 22  1  0
  1 37  1  0
  1 38  1  0
  1 39  1  0
  3 40  1  0
  3 41  1  0
  6 42  1  0
 10 43  1  0
 12 44  1  0
 15 45  1  6
 17 46  1  0
 18 47  1  0
 19 48  1  0
 20 49  1  0
 21 50  1  0
 22 51  1  1
 23 52  1  0
 23 53  1  0
 24 54  1  0
 24 55  1  0
 25 56  1  0
 25 57  1  0
 26 58  1  0
 26 59  1  0
 30 60  1  0
 32 61  1  0
 32 62  1  0
 33 63  1  6
M  END
>  <meeko>  (9) 
{"is_sidechain": [false], "free_energy": -10.536, "intermolecular_energy": -14.11, "internal_energy": -0.626}

$$$$
