4tmn_ligand
     RDKit          3D

 68 69  0  0  0  0  0  0  0  0999 V2000
   53.3950   18.2000    0.5370 C   0  0  0  0  0  0  0  0  0  0  0  0
   52.9160   19.2370   -0.4820 C   0  0  0  0  0  0  0  0  0  0  0  0
   54.1410   19.8840   -1.1400 C   0  0  0  0  0  0  0  0  0  0  0  0
   52.0040   18.6210   -1.5620 C   0  0  0  0  0  0  0  0  0  0  0  0
   52.6470   18.4420   -2.9560 C   0  0  2  0  0  0  0  0  0  0  0  0
   51.5820   18.4110   -4.0050 N   0  0  0  0  0  0  0  0  0  0  0  0
   52.1250   18.0250   -5.6360 P   0  0  2  0  0  5  0  0  0  0  0  0
   51.9900   16.5290   -5.7290 O   0  0  0  0  0  0  0  0  0  0  0  0
   53.3940   18.7880   -5.8930 O   0  0  0  0  0  0  0  0  0  0  0  0
   50.7230   18.7830   -6.6410 C   0  0  2  0  0  0  0  0  0  0  0  0
   49.5540   17.8050   -6.7760 C   0  0  0  0  0  0  0  0  0  0  0  0
   49.3730   17.2790   -8.1840 C   0  0  0  0  0  0  0  0  0  0  0  0
   48.3660   17.8010   -9.0090 C   0  0  0  0  0  0  0  0  0  0  0  0
   48.2000   17.3280  -10.3110 C   0  0  0  0  0  0  0  0  0  0  0  0
   49.0400   16.3300  -10.8030 C   0  0  0  0  0  0  0  0  0  0  0  0
   50.0470   15.8080   -9.9930 C   0  0  0  0  0  0  0  0  0  0  0  0
   50.2130   16.2810   -8.6900 C   0  0  0  0  0  0  0  0  0  0  0  0
   51.3250   19.3260   -7.8640 N   0  0  0  0  0  0  0  0  0  0  0  0
   50.7430   20.3630   -8.5290 C   0  0  0  0  0  0  0  0  0  0  0  0
   50.2340   21.3630   -8.0450 O   0  0  0  0  0  0  0  0  0  0  0  0
   50.8710   20.1330   -9.8570 O   0  0  0  0  0  0  0  0  0  0  0  0
   51.1260   21.3110  -10.6160 C   0  0  0  0  0  0  0  0  0  0  0  0
   50.6290   21.0550  -12.0150 C   0  0  0  0  0  0  0  0  0  0  0  0
   49.6830   20.0500  -12.2690 C   0  0  0  0  0  0  0  0  0  0  0  0
   49.1880   19.8570  -13.5600 C   0  0  0  0  0  0  0  0  0  0  0  0
   49.6250   20.6700  -14.6040 C   0  0  0  0  0  0  0  0  0  0  0  0
   50.5550   21.6780  -14.3590 C   0  0  0  0  0  0  0  0  0  0  0  0
   51.0550   21.8710  -13.0710 C   0  0  0  0  0  0  0  0  0  0  0  0
   53.4250   17.1050   -2.9190 C   0  0  0  0  0  0  0  0  0  0  0  0
   54.5610   16.9850   -3.3830 O   0  0  0  0  0  0  0  0  0  0  0  0
   52.6890   16.0340   -2.4560 N   0  0  0  0  0  0  0  0  0  0  0  0
   53.1310   14.6300   -2.5190 C   0  0  1  0  0  0  0  0  0  0  0  0
   52.4350   13.8060   -1.4440 C   0  0  0  0  0  0  0  0  0  0  0  0
   52.8530   13.9670   -3.9100 C   0  0  0  0  0  0  0  0  0  0  0  0
   51.6970   13.4830   -4.0840 O   0  0  0  0  0  0  0  0  0  0  0  0
   53.8420   13.9730   -4.7090 O   0  0  0  0  0  0  0  0  0  0  0  0
   53.2202   18.5784    1.5550 H   0  0  0  0  0  0  0  0  0  0  0  0
   52.8391   17.2616    0.3941 H   0  0  0  0  0  0  0  0  0  0  0  0
   54.4699   18.0149    0.3941 H   0  0  0  0  0  0  0  0  0  0  0  0
   52.3177   19.9904    0.0514 H   0  0  0  0  0  0  0  0  0  0  0  0
   54.8273   20.2465   -0.3605 H   0  0  0  0  0  0  0  0  0  0  0  0
   54.6566   19.1406   -1.7657 H   0  0  0  0  0  0  0  0  0  0  0  0
   53.8177   20.7290   -1.7657 H   0  0  0  0  0  0  0  0  0  0  0  0
   51.6818   17.6306   -1.2082 H   0  0  0  0  0  0  0  0  0  0  0  0
   51.1779   19.3340   -1.7009 H   0  0  0  0  0  0  0  0  0  0  0  0
   53.3240   19.2743   -3.1987 H   0  0  0  0  0  0  0  0  0  0  0  0
   50.9250   17.6390   -3.8210 H   0  0  0  0  0  0  0  0  0  0  0  0
   50.2285   19.6335   -6.1490 H   0  0  0  0  0  0  0  0  0  0  0  0
   49.7331   16.9520   -6.1049 H   0  0  0  0  0  0  0  0  0  0  0  0
   48.6378   18.3540   -6.5130 H   0  0  0  0  0  0  0  0  0  0  0  0
   47.7017   18.5898   -8.6263 H   0  0  0  0  0  0  0  0  0  0  0  0
   47.4061   17.7426  -10.9496 H   0  0  0  0  0  0  0  0  0  0  0  0
   48.9082   15.9552  -11.8287 H   0  0  0  0  0  0  0  0  0  0  0  0
   50.7119   15.0222  -10.3809 H   0  0  0  0  0  0  0  0  0  0  0  0
   51.0104   15.8658   -8.0562 H   0  0  0  0  0  0  0  0  0  0  0  0
   51.4730   18.5710   -8.5220 H   0  0  0  0  0  0  0  0  0  0  0  0
   50.5912   22.1658  -10.1764 H   0  0  0  0  0  0  0  0  0  0  0  0
   52.2001   21.5483  -10.6202 H   0  0  0  0  0  0  0  0  0  0  0  0
   49.3296   19.4109  -11.4464 H   0  0  0  0  0  0  0  0  0  0  0  0
   48.4523   19.0624  -13.7533 H   0  0  0  0  0  0  0  0  0  0  0  0
   49.2358   20.5159  -15.6212 H   0  0  0  0  0  0  0  0  0  0  0  0
   50.8956   22.3228  -15.1825 H   0  0  0  0  0  0  0  0  0  0  0  0
   51.7885   22.6690  -12.8834 H   0  0  0  0  0  0  0  0  0  0  0  0
   51.7000   16.1310   -2.2450 H   0  0  0  0  0  0  0  0  0  0  0  0
   54.2188   14.6434   -2.3564 H   0  0  0  0  0  0  0  0  0  0  0  0
   52.7398   14.1669   -0.4506 H   0  0  0  0  0  0  0  0  0  0  0  0
   51.3451   13.9075   -1.5524 H   0  0  0  0  0  0  0  0  0  0  0  0
   52.7174   12.7484   -1.5524 H   0  0  0  0  0  0  0  0  0  0  0  0
  1  2  1  0
  2  3  1  0
  2  4  1  0
  4  5  1  0
  5  6  1  0
  6  7  1  0
  7  8  2  0
  7  9  1  6
  7 10  1  0
 10 11  1  0
 11 12  1  0
 12 13  2  0
 13 14  1  0
 14 15  2  0
 15 16  1  0
 16 17  2  0
 10 18  1  0
 18 19  1  0
 19 20  2  0
 19 21  1  0
 21 22  1  0
 22 23  1  0
 23 24  2  0
 24 25  1  0
 25 26  2  0
 26 27  1  0
 27 28  2  0
  5 29  1  0
 29 30  2  0
 29 31  1  0
 31 32  1  0
 32 33  1  0
 32 34  1  0
 34 35  2  0
 34 36  1  0
 17 12  1  0
 28 23  1  0
  1 37  1  0
  1 38  1  0
  1 39  1  0
  2 40  1  0
  3 41  1  0
  3 42  1  0
  3 43  1  0
  4 44  1  0
  4 45  1  0
  5 46  1  6
  6 47  1  0
 10 48  1  1
 11 49  1  0
 11 50  1  0
 13 51  1  0
 14 52  1  0
 15 53  1  0
 16 54  1  0
 17 55  1  0
 18 56  1  0
 22 57  1  0
 22 58  1  0
 24 59  1  0
 25 60  1  0
 26 61  1  0
 27 62  1  0
 28 63  1  0
 31 64  1  0
 32 65  1  1
 33 66  1  0
 33 67  1  0
 33 68  1  0
M  CHG  2   9  -1  36  -1
M  END
>  <meeko>  (1) 
{"is_sidechain": [false], "free_energy": -9.498, "intermolecular_energy": -17.272, "internal_energy": -1.761}

$$$$
4tmn_ligand
     RDKit          3D

 68 69  0  0  0  0  0  0  0  0999 V2000
   53.2690   18.3220    0.3800 C   0  0  0  0  0  0  0  0  0  0  0  0
   52.8120   19.3630   -0.6440 C   0  0  0  0  0  0  0  0  0  0  0  0
   54.0500   20.0060   -1.2800 C   0  0  0  0  0  0  0  0  0  0  0  0
   51.9140   18.7530   -1.7410 C   0  0  0  0  0  0  0  0  0  0  0  0
   52.6130   18.4590   -3.0880 C   0  0  2  0  0  0  0  0  0  0  0  0
   51.5930   18.3380   -4.1730 N   0  0  0  0  0  0  0  0  0  0  0  0
   52.2010   17.8170   -5.7420 P   0  0  2  0  0  5  0  0  0  0  0  0
   52.2630   16.3170   -5.6360 O   0  0  0  0  0  0  0  0  0  0  0  0
   53.3620   18.6990   -6.1040 O   0  0  0  0  0  0  0  0  0  0  0  0
   50.7240   18.2450   -6.8300 C   0  0  2  0  0  0  0  0  0  0  0  0
   50.7590   19.7160   -7.2490 C   0  0  0  0  0  0  0  0  0  0  0  0
   50.5060   19.9240   -8.7270 C   0  0  0  0  0  0  0  0  0  0  0  0
   49.8220   18.9510   -9.4700 C   0  0  0  0  0  0  0  0  0  0  0  0
   49.5760   19.1410  -10.8310 C   0  0  0  0  0  0  0  0  0  0  0  0
   50.0090   20.3060  -11.4610 C   0  0  0  0  0  0  0  0  0  0  0  0
   50.6860   21.2820  -10.7310 C   0  0  0  0  0  0  0  0  0  0  0  0
   50.9330   21.0920   -9.3700 C   0  0  0  0  0  0  0  0  0  0  0  0
   49.5310   17.7420   -6.1420 N   0  0  0  0  0  0  0  0  0  0  0  0
   48.8430   16.6700   -6.6250 C   0  0  0  0  0  0  0  0  0  0  0  0
   49.3080   15.6390   -7.0890 O   0  0  0  0  0  0  0  0  0  0  0  0
   47.5220   16.9080   -6.4550 O   0  0  0  0  0  0  0  0  0  0  0  0
   46.6850   16.0150   -7.1840 C   0  0  0  0  0  0  0  0  0  0  0  0
   45.8340   16.8520   -8.1020 C   0  0  0  0  0  0  0  0  0  0  0  0
   46.4220   17.7190   -9.0360 C   0  0  0  0  0  0  0  0  0  0  0  0
   45.6270   18.4510   -9.9200 C   0  0  0  0  0  0  0  0  0  0  0  0
   44.2400   18.3160   -9.8860 C   0  0  0  0  0  0  0  0  0  0  0  0
   43.6470   17.4480   -8.9700 C   0  0  0  0  0  0  0  0  0  0  0  0
   44.4400   16.7200   -8.0830 C   0  0  0  0  0  0  0  0  0  0  0  0
   53.3880   17.1320   -2.9060 C   0  0  0  0  0  0  0  0  0  0  0  0
   54.5580   16.9920   -3.2690 O   0  0  0  0  0  0  0  0  0  0  0  0
   52.6180   16.0870   -2.4420 N   0  0  0  0  0  0  0  0  0  0  0  0
   53.0650   14.6840   -2.3830 C   0  0  1  0  0  0  0  0  0  0  0  0
   52.2420   13.9060   -1.3670 C   0  0  0  0  0  0  0  0  0  0  0  0
   52.9640   13.9560   -3.7660 C   0  0  0  0  0  0  0  0  0  0  0  0
   54.0360   13.8600   -4.4330 O   0  0  0  0  0  0  0  0  0  0  0  0
   51.7970   13.5580   -4.0740 O   0  0  0  0  0  0  0  0  0  0  0  0
   53.0995   18.7081    1.3960 H   0  0  0  0  0  0  0  0  0  0  0  0
   52.6956   17.3937    0.2401 H   0  0  0  0  0  0  0  0  0  0  0  0
   54.3404   18.1158    0.2401 H   0  0  0  0  0  0  0  0  0  0  0  0
   52.2087   20.1181   -0.1188 H   0  0  0  0  0  0  0  0  0  0  0  0
   54.7279   20.3581   -0.4885 H   0  0  0  0  0  0  0  0  0  0  0  0
   54.5692   19.2636   -1.9039 H   0  0  0  0  0  0  0  0  0  0  0  0
   53.7412   20.8577   -1.9039 H   0  0  0  0  0  0  0  0  0  0  0  0
   51.5065   17.8061   -1.3572 H   0  0  0  0  0  0  0  0  0  0  0  0
   51.1471   19.5109   -1.9586 H   0  0  0  0  0  0  0  0  0  0  0  0
   53.2999   19.2696   -3.3727 H   0  0  0  0  0  0  0  0  0  0  0  0
   50.9270   17.5840   -3.9510 H   0  0  0  0  0  0  0  0  0  0  0  0
   50.7326   17.7483   -7.8114 H   0  0  0  0  0  0  0  0  0  0  0  0
   49.9875   20.2587   -6.6830 H   0  0  0  0  0  0  0  0  0  0  0  0
   51.7707   20.0914   -7.0357 H   0  0  0  0  0  0  0  0  0  0  0  0
   49.4765   18.0307   -8.9764 H   0  0  0  0  0  0  0  0  0  0  0  0
   49.0404   18.3712  -11.4059 H   0  0  0  0  0  0  0  0  0  0  0  0
   49.8168   20.4556  -12.5337 H   0  0  0  0  0  0  0  0  0  0  0  0
   51.0259   22.2027  -11.2278 H   0  0  0  0  0  0  0  0  0  0  0  0
   51.4670   21.8657   -8.7988 H   0  0  0  0  0  0  0  0  0  0  0  0
   48.8770   18.5060   -6.0140 H   0  0  0  0  0  0  0  0  0  0  0  0
   47.2997   15.3173   -7.7717 H   0  0  0  0  0  0  0  0  0  0  0  0
   46.0576   15.4229   -6.5015 H   0  0  0  0  0  0  0  0  0  0  0  0
   47.5165   17.8225   -9.0718 H   0  0  0  0  0  0  0  0  0  0  0  0
   46.0953   19.1345  -10.6436 H   0  0  0  0  0  0  0  0  0  0  0  0
   43.6137   18.8939  -10.5815 H   0  0  0  0  0  0  0  0  0  0  0  0
   42.5528   17.3372   -8.9468 H   0  0  0  0  0  0  0  0  0  0  0  0
   43.9665   16.0366   -7.3627 H   0  0  0  0  0  0  0  0  0  0  0  0
   51.6150   16.1900   -2.3180 H   0  0  0  0  0  0  0  0  0  0  0  0
   54.1237   14.7121   -2.0856 H   0  0  0  0  0  0  0  0  0  0  0  0
   52.5469   14.1943   -0.3502 H   0  0  0  0  0  0  0  0  0  0  0  0
   51.1750   14.1333   -1.5081 H   0  0  0  0  0  0  0  0  0  0  0  0
   52.4090   12.8280   -1.5081 H   0  0  0  0  0  0  0  0  0  0  0  0
  1  2  1  0
  2  3  1  0
  2  4  1  0
  4  5  1  0
  5  6  1  0
  6  7  1  0
  7  8  2  0
  7  9  1  6
  7 10  1  0
 10 11  1  0
 11 12  1  0
 12 13  2  0
 13 14  1  0
 14 15  2  0
 15 16  1  0
 16 17  2  0
 10 18  1  0
 18 19  1  0
 19 20  2  0
 19 21  1  0
 21 22  1  0
 22 23  1  0
 23 24  2  0
 24 25  1  0
 25 26  2  0
 26 27  1  0
 27 28  2  0
  5 29  1  0
 29 30  2  0
 29 31  1  0
 31 32  1  0
 32 33  1  0
 32 34  1  0
 34 35  2  0
 34 36  1  0
 17 12  1  0
 28 23  1  0
  1 37  1  0
  1 38  1  0
  1 39  1  0
  2 40  1  0
  3 41  1  0
  3 42  1  0
  3 43  1  0
  4 44  1  0
  4 45  1  0
  5 46  1  6
  6 47  1  0
 10 48  1  6
 11 49  1  0
 11 50  1  0
 13 51  1  0
 14 52  1  0
 15 53  1  0
 16 54  1  0
 17 55  1  0
 18 56  1  0
 22 57  1  0
 22 58  1  0
 24 59  1  0
 25 60  1  0
 26 61  1  0
 27 62  1  0
 28 63  1  0
 31 64  1  0
 32 65  1  1
 33 66  1  0
 33 67  1  0
 33 68  1  0
M  CHG  2   9  -1  36  -1
M  END
>  <meeko>  (2) 
{"is_sidechain": [false], "free_energy": -9.285, "intermolecular_energy": -16.9, "internal_energy": -1.745}

$$$$
4tmn_ligand
     RDKit          3D

 68 69  0  0  0  0  0  0  0  0999 V2000
   45.7410   17.4910   -9.1430 C   0  0  0  0  0  0  0  0  0  0  0  0
   46.3140   16.1280   -9.5370 C   0  0  0  0  0  0  0  0  0  0  0  0
   45.1550   15.1950   -9.9100 C   0  0  0  0  0  0  0  0  0  0  0  0
   47.3090   16.2260  -10.7120 C   0  0  0  0  0  0  0  0  0  0  0  0
   48.2500   17.4510  -10.6880 C   0  0  2  0  0  0  0  0  0  0  0  0
   48.7120   17.7630  -12.0750 N   0  0  0  0  0  0  0  0  0  0  0  0
   48.8340   19.4740  -12.4760 P   0  0  2  0  0  5  0  0  0  0  0  0
   49.2180   19.4880  -13.9310 O   0  0  0  0  0  0  0  0  0  0  0  0
   49.6060   20.1510  -11.3790 O   0  0  0  0  0  0  0  0  0  0  0  0
   47.0200   19.9710  -12.3650 C   0  0  2  0  0  0  0  0  0  0  0  0
   46.2390   19.4750  -13.5840 C   0  0  0  0  0  0  0  0  0  0  0  0
   45.1960   18.4320  -13.2410 C   0  0  0  0  0  0  0  0  0  0  0  0
   45.1940   17.1930  -13.8980 C   0  0  0  0  0  0  0  0  0  0  0  0
   44.2410   16.2230  -13.5800 C   0  0  0  0  0  0  0  0  0  0  0  0
   43.2830   16.4820  -12.6010 C   0  0  0  0  0  0  0  0  0  0  0  0
   43.2800   17.7090  -11.9390 C   0  0  0  0  0  0  0  0  0  0  0  0
   44.2320   18.6790  -12.2580 C   0  0  0  0  0  0  0  0  0  0  0  0
   46.9930   21.4040  -12.0540 N   0  0  0  0  0  0  0  0  0  0  0  0
   46.5850   22.3150  -12.9820 C   0  0  0  0  0  0  0  0  0  0  0  0
   45.6420   22.2170  -13.7540 O   0  0  0  0  0  0  0  0  0  0  0  0
   47.3800   23.4050  -12.8750 O   0  0  0  0  0  0  0  0  0  0  0  0
   48.2270   23.6030  -14.0030 C   0  0  0  0  0  0  0  0  0  0  0  0
   49.6230   23.2210  -13.5830 C   0  0  0  0  0  0  0  0  0  0  0  0
   50.5160   22.6440  -14.4990 C   0  0  0  0  0  0  0  0  0  0  0  0
   51.8250   22.3430  -14.1150 C   0  0  0  0  0  0  0  0  0  0  0  0
   52.2540   22.6240  -12.8200 C   0  0  0  0  0  0  0  0  0  0  0  0
   51.3770   23.2080  -11.9070 C   0  0  0  0  0  0  0  0  0  0  0  0
   50.0680   23.5050  -12.2860 C   0  0  0  0  0  0  0  0  0  0  0  0
   49.4450   17.0770   -9.7790 C   0  0  0  0  0  0  0  0  0  0  0  0
   49.9850   15.9690   -9.8150 O   0  0  0  0  0  0  0  0  0  0  0  0
   49.7570   18.0300   -8.8330 N   0  0  0  0  0  0  0  0  0  0  0  0
   50.7070   17.8270   -7.7260 C   0  0  1  0  0  0  0  0  0  0  0  0
   50.9970   19.1470   -7.0250 C   0  0  0  0  0  0  0  0  0  0  0  0
   50.1880   16.8030   -6.6600 C   0  0  0  0  0  0  0  0  0  0  0  0
   51.0270   15.9550   -6.2380 O   0  0  0  0  0  0  0  0  0  0  0  0
   48.9610   16.9300   -6.3530 O   0  0  0  0  0  0  0  0  0  0  0  0
   45.7072   17.5714   -8.0465 H   0  0  0  0  0  0  0  0  0  0  0  0
   46.3799   18.2888   -9.5496 H   0  0  0  0  0  0  0  0  0  0  0  0
   44.7240   17.5926   -9.5496 H   0  0  0  0  0  0  0  0  0  0  0  0
   46.8723   15.7297   -8.6770 H   0  0  0  0  0  0  0  0  0  0  0  0
   44.6815   14.8138   -8.9932 H   0  0  0  0  0  0  0  0  0  0  0  0
   44.4130   15.7507  -10.5021 H   0  0  0  0  0  0  0  0  0  0  0  0
   45.5394   14.3514  -10.5021 H   0  0  0  0  0  0  0  0  0  0  0  0
   47.9325   15.3198  -10.7042 H   0  0  0  0  0  0  0  0  0  0  0  0
   46.6953   16.3351  -11.6183 H   0  0  0  0  0  0  0  0  0  0  0  0
   47.7386   18.3454  -10.3026 H   0  0  0  0  0  0  0  0  0  0  0  0
   49.6860   17.4530  -12.2030 H   0  0  0  0  0  0  0  0  0  0  0  0
   46.4701   19.4779  -11.5498 H   0  0  0  0  0  0  0  0  0  0  0  0
   45.7340   20.3345  -14.0490 H   0  0  0  0  0  0  0  0  0  0  0  0
   46.9621   19.0023  -14.2650 H   0  0  0  0  0  0  0  0  0  0  0  0
   45.9491   16.9836  -14.6700 H   0  0  0  0  0  0  0  0  0  0  0  0
   44.2463   15.2547  -14.1019 H   0  0  0  0  0  0  0  0  0  0  0  0
   42.5306   15.7195  -12.3512 H   0  0  0  0  0  0  0  0  0  0  0  0
   42.5264   17.9131  -11.1642 H   0  0  0  0  0  0  0  0  0  0  0  0
   44.2240   19.6452  -11.7322 H   0  0  0  0  0  0  0  0  0  0  0  0
   47.9050   21.6850  -11.7140 H   0  0  0  0  0  0  0  0  0  0  0  0
   47.8973   22.9676  -14.8382 H   0  0  0  0  0  0  0  0  0  0  0  0
   48.1925   24.6499  -14.3389 H   0  0  0  0  0  0  0  0  0  0  0  0
   50.1834   22.4276  -15.5249 H   0  0  0  0  0  0  0  0  0  0  0  0
   52.5174   21.8837  -14.8359 H   0  0  0  0  0  0  0  0  0  0  0  0
   53.2844   22.3852  -12.5177 H   0  0  0  0  0  0  0  0  0  0  0  0
   51.7180   23.4349  -10.8861 H   0  0  0  0  0  0  0  0  0  0  0  0
   49.3805   23.9654  -11.5612 H   0  0  0  0  0  0  0  0  0  0  0  0
   49.1800   18.8590   -8.7150 H   0  0  0  0  0  0  0  0  0  0  0  0
   51.6220   17.4180   -8.1793 H   0  0  0  0  0  0  0  0  0  0  0  0
   50.9644   18.9985   -5.9356 H   0  0  0  0  0  0  0  0  0  0  0  0
   51.9953   19.5054   -7.3165 H   0  0  0  0  0  0  0  0  0  0  0  0
   50.2409   19.8908   -7.3165 H   0  0  0  0  0  0  0  0  0  0  0  0
  1  2  1  0
  2  3  1  0
  2  4  1  0
  4  5  1  0
  5  6  1  0
  6  7  1  0
  7  8  2  0
  7  9  1  1
  7 10  1  0
 10 11  1  0
 11 12  1  0
 12 13  2  0
 13 14  1  0
 14 15  2  0
 15 16  1  0
 16 17  2  0
 10 18  1  0
 18 19  1  0
 19 20  2  0
 19 21  1  0
 21 22  1  0
 22 23  1  0
 23 24  2  0
 24 25  1  0
 25 26  2  0
 26 27  1  0
 27 28  2  0
  5 29  1  0
 29 30  2  0
 29 31  1  0
 31 32  1  0
 32 33  1  0
 32 34  1  0
 34 35  2  0
 34 36  1  0
 17 12  1  0
 28 23  1  0
  1 37  1  0
  1 38  1  0
  1 39  1  0
  2 40  1  0
  3 41  1  0
  3 42  1  0
  3 43  1  0
  4 44  1  0
  4 45  1  0
  5 46  1  1
  6 47  1  0
 10 48  1  1
 11 49  1  0
 11 50  1  0
 13 51  1  0
 14 52  1  0
 15 53  1  0
 16 54  1  0
 17 55  1  0
 18 56  1  0
 22 57  1  0
 22 58  1  0
 24 59  1  0
 25 60  1  0
 26 61  1  0
 27 62  1  0
 28 63  1  0
 31 64  1  0
 32 65  1  6
 33 66  1  0
 33 67  1  0
 33 68  1  0
M  CHG  2   9  -1  36  -1
M  END
>  <meeko>  (3) 
{"is_sidechain": [false], "free_energy": -9.18, "intermolecular_energy": -15.449, "internal_energy": -3.007}

$$$$
4tmn_ligand
     RDKit          3D

 68 69  0  0  0  0  0  0  0  0999 V2000
   45.5960   20.2400  -10.9190 C   0  0  0  0  0  0  0  0  0  0  0  0
   46.5230   19.2320  -10.2360 C   0  0  0  0  0  0  0  0  0  0  0  0
   45.6850   18.0460   -9.7430 C   0  0  0  0  0  0  0  0  0  0  0  0
   47.6410   18.7320  -11.1740 C   0  0  0  0  0  0  0  0  0  0  0  0
   49.0070   19.4390  -11.0220 C   0  0  2  0  0  0  0  0  0  0  0  0
   48.9640   20.3790   -9.8600 N   0  0  0  0  0  0  0  0  0  0  0  0
   50.4890   20.6180   -9.0120 P   0  0  2  0  0  5  0  0  0  0  0  0
   50.1860   21.6830   -7.9930 O   0  0  0  0  0  0  0  0  0  0  0  0
   51.5810   20.7030  -10.0410 O   0  0  0  0  0  0  0  0  0  0  0  0
   50.6200   18.9780   -8.0940 C   0  0  2  0  0  0  0  0  0  0  0  0
   49.2910   18.6120   -7.4320 C   0  0  0  0  0  0  0  0  0  0  0  0
   48.8030   17.2250   -7.7960 C   0  0  0  0  0  0  0  0  0  0  0  0
   47.7540   16.6330   -7.0760 C   0  0  0  0  0  0  0  0  0  0  0  0
   47.2940   15.3600   -7.4130 C   0  0  0  0  0  0  0  0  0  0  0  0
   47.8740   14.6660   -8.4740 C   0  0  0  0  0  0  0  0  0  0  0  0
   48.9140   15.2470   -9.1980 C   0  0  0  0  0  0  0  0  0  0  0  0
   49.3760   16.5210   -8.8610 C   0  0  0  0  0  0  0  0  0  0  0  0
   51.8210   19.0580   -7.2550 N   0  0  0  0  0  0  0  0  0  0  0  0
   51.9220   18.3300   -6.1070 C   0  0  0  0  0  0  0  0  0  0  0  0
   51.5800   17.1700   -5.9310 O   0  0  0  0  0  0  0  0  0  0  0  0
   52.5320   19.1000   -5.1760 O   0  0  0  0  0  0  0  0  0  0  0  0
   53.6440   18.4650   -4.5530 C   0  0  0  0  0  0  0  0  0  0  0  0
   53.4950   18.6620   -3.0670 C   0  0  0  0  0  0  0  0  0  0  0  0
   52.3420   18.2260   -2.3970 C   0  0  0  0  0  0  0  0  0  0  0  0
   52.2350   18.3630   -1.0110 C   0  0  0  0  0  0  0  0  0  0  0  0
   53.2810   18.9280   -0.2840 C   0  0  0  0  0  0  0  0  0  0  0  0
   54.4350   19.3530   -0.9400 C   0  0  0  0  0  0  0  0  0  0  0  0
   54.5420   19.2210   -2.3240 C   0  0  0  0  0  0  0  0  0  0  0  0
   49.2610   20.2040  -12.3430 C   0  0  0  0  0  0  0  0  0  0  0  0
   49.5140   19.6290  -13.4040 O   0  0  0  0  0  0  0  0  0  0  0  0
   49.3240   21.5730  -12.2010 N   0  0  0  0  0  0  0  0  0  0  0  0
   49.7570   22.5030  -13.2590 C   0  0  1  0  0  0  0  0  0  0  0  0
   48.7970   23.6790  -13.3580 C   0  0  0  0  0  0  0  0  0  0  0  0
   51.2020   23.0590  -13.0250 C   0  0  0  0  0  0  0  0  0  0  0  0
   51.3160   23.9970  -12.1830 O   0  0  0  0  0  0  0  0  0  0  0  0
   52.1050   22.5120  -13.7330 O   0  0  0  0  0  0  0  0  0  0  0  0
   45.0606   20.8222  -10.1546 H   0  0  0  0  0  0  0  0  0  0  0  0
   46.1916   20.9191  -11.5467 H   0  0  0  0  0  0  0  0  0  0  0  0
   44.8695   19.7032  -11.5467 H   0  0  0  0  0  0  0  0  0  0  0  0
   47.0153   19.7373   -9.3920 H   0  0  0  0  0  0  0  0  0  0  0  0
   45.6770   18.0347   -8.6431 H   0  0  0  0  0  0  0  0  0  0  0  0
   44.6549   18.1446  -10.1161 H   0  0  0  0  0  0  0  0  0  0  0  0
   46.1220   17.1080  -10.1161 H   0  0  0  0  0  0  0  0  0  0  0  0
   47.7915   17.6598  -10.9795 H   0  0  0  0  0  0  0  0  0  0  0  0
   47.2989   18.9554  -12.1953 H   0  0  0  0  0  0  0  0  0  0  0  0
   49.8167   18.7189  -10.8328 H   0  0  0  0  0  0  0  0  0  0  0  0
   48.7590   21.3350  -10.1850 H   0  0  0  0  0  0  0  0  0  0  0  0
   50.7723   18.1084   -8.7503 H   0  0  0  0  0  0  0  0  0  0  0  0
   49.4190   18.6620   -6.3406 H   0  0  0  0  0  0  0  0  0  0  0  0
   48.5384   19.3279   -7.7939 H   0  0  0  0  0  0  0  0  0  0  0  0
   47.2910   17.1770   -6.2395 H   0  0  0  0  0  0  0  0  0  0  0  0
   46.4728   14.9032   -6.8411 H   0  0  0  0  0  0  0  0  0  0  0  0
   47.5117   13.6619   -8.7393 H   0  0  0  0  0  0  0  0  0  0  0  0
   49.3715   14.7010  -10.0362 H   0  0  0  0  0  0  0  0  0  0  0  0
   50.1962   16.9744   -9.4369 H   0  0  0  0  0  0  0  0  0  0  0  0
   52.0030   20.0290   -7.0320 H   0  0  0  0  0  0  0  0  0  0  0  0
   53.6475   17.3913   -4.7923 H   0  0  0  0  0  0  0  0  0  0  0  0
   54.5906   18.8962   -4.9109 H   0  0  0  0  0  0  0  0  0  0  0  0
   51.5170   17.7734   -2.9668 H   0  0  0  0  0  0  0  0  0  0  0  0
   51.3251   18.0249   -0.4935 H   0  0  0  0  0  0  0  0  0  0  0  0
   53.1960   19.0385    0.8071 H   0  0  0  0  0  0  0  0  0  0  0  0
   55.2628   19.7933   -0.3649 H   0  0  0  0  0  0  0  0  0  0  0  0
   55.4554   19.5584   -2.8358 H   0  0  0  0  0  0  0  0  0  0  0  0
   49.2850   22.0070  -11.2820 H   0  0  0  0  0  0  0  0  0  0  0  0
   49.7594   21.9237  -14.1941 H   0  0  0  0  0  0  0  0  0  0  0  0
   48.5229   24.0147  -12.3470 H   0  0  0  0  0  0  0  0  0  0  0  0
   49.2827   24.5043  -13.8993 H   0  0  0  0  0  0  0  0  0  0  0  0
   47.8912   23.3683  -13.8993 H   0  0  0  0  0  0  0  0  0  0  0  0
  1  2  1  0
  2  3  1  0
  2  4  1  0
  4  5  1  0
  5  6  1  0
  6  7  1  0
  7  8  2  0
  7  9  1  6
  7 10  1  0
 10 11  1  0
 11 12  1  0
 12 13  2  0
 13 14  1  0
 14 15  2  0
 15 16  1  0
 16 17  2  0
 10 18  1  0
 18 19  1  0
 19 20  2  0
 19 21  1  0
 21 22  1  0
 22 23  1  0
 23 24  2  0
 24 25  1  0
 25 26  2  0
 26 27  1  0
 27 28  2  0
  5 29  1  0
 29 30  2  0
 29 31  1  0
 31 32  1  0
 32 33  1  0
 32 34  1  0
 34 35  2  0
 34 36  1  0
 17 12  1  0
 28 23  1  0
  1 37  1  0
  1 38  1  0
  1 39  1  0
  2 40  1  0
  3 41  1  0
  3 42  1  0
  3 43  1  0
  4 44  1  0
  4 45  1  0
  5 46  1  1
  6 47  1  0
 10 48  1  6
 11 49  1  0
 11 50  1  0
 13 51  1  0
 14 52  1  0
 15 53  1  0
 16 54  1  0
 17 55  1  0
 18 56  1  0
 22 57  1  0
 22 58  1  0
 24 59  1  0
 25 60  1  0
 26 61  1  0
 27 62  1  0
 28 63  1  0
 31 64  1  0
 32 65  1  6
 33 66  1  0
 33 67  1  0
 33 68  1  0
M  CHG  2   9  -1  36  -1
M  END
>  <meeko>  (4) 
{"is_sidechain": [false], "free_energy": -8.834, "intermolecular_energy": -15.303, "internal_energy": -2.523}

$$$$
4tmn_ligand
     RDKit          3D

 68 69  0  0  0  0  0  0  0  0999 V2000
   44.3110   13.2120  -13.5750 C   0  0  0  0  0  0  0  0  0  0  0  0
   44.7320   14.6480  -13.8930 C   0  0  0  0  0  0  0  0  0  0  0  0
   43.5960   15.5960  -13.4910 C   0  0  0  0  0  0  0  0  0  0  0  0
   46.0340   15.0530  -13.1710 C   0  0  0  0  0  0  0  0  0  0  0  0
   45.8620   16.0150  -11.9740 C   0  0  2  0  0  0  0  0  0  0  0  0
   46.7930   17.1760  -12.1190 N   0  0  0  0  0  0  0  0  0  0  0  0
   46.0490   18.7700  -12.0250 P   0  0  2  0  0  5  0  0  0  0  0  0
   45.9640   19.0540  -10.5500 O   0  0  0  0  0  0  0  0  0  0  0  0
   44.8810   18.7910  -12.9700 O   0  0  0  0  0  0  0  0  0  0  0  0
   47.4420   19.8280  -12.7260 C   0  0  2  0  0  0  0  0  0  0  0  0
   48.7950   19.1350  -12.5590 C   0  0  0  0  0  0  0  0  0  0  0  0
   49.5000   19.5010  -11.2690 C   0  0  0  0  0  0  0  0  0  0  0  0
   49.3450   18.7010  -10.1280 C   0  0  0  0  0  0  0  0  0  0  0  0
   49.9990   19.0270   -8.9390 C   0  0  0  0  0  0  0  0  0  0  0  0
   50.8160   20.1550   -8.8800 C   0  0  0  0  0  0  0  0  0  0  0  0
   50.9800   20.9550  -10.0100 C   0  0  0  0  0  0  0  0  0  0  0  0
   50.3250   20.6290  -11.1990 C   0  0  0  0  0  0  0  0  0  0  0  0
   47.2710   21.1740  -12.1680 N   0  0  0  0  0  0  0  0  0  0  0  0
   46.7670   22.1880  -12.9270 C   0  0  0  0  0  0  0  0  0  0  0  0
   45.8330   22.1320  -13.7130 O   0  0  0  0  0  0  0  0  0  0  0  0
   47.4480   23.3170  -12.6220 O   0  0  0  0  0  0  0  0  0  0  0  0
   48.1630   23.8640  -13.7260 C   0  0  0  0  0  0  0  0  0  0  0  0
   49.5980   23.4300  -13.5850 C   0  0  0  0  0  0  0  0  0  0  0  0
   50.1720   22.5340  -14.5000 C   0  0  0  0  0  0  0  0  0  0  0  0
   51.5180   22.1790  -14.3940 C   0  0  0  0  0  0  0  0  0  0  0  0
   52.3040   22.7230  -13.3800 C   0  0  0  0  0  0  0  0  0  0  0  0
   51.7470   23.6230  -12.4730 C   0  0  0  0  0  0  0  0  0  0  0  0
   50.4010   23.9760  -12.5750 C   0  0  0  0  0  0  0  0  0  0  0  0
   46.1870   15.2010  -10.6990 C   0  0  0  0  0  0  0  0  0  0  0  0
   45.5060   14.2400  -10.3340 O   0  0  0  0  0  0  0  0  0  0  0  0
   47.2080   15.7280   -9.9360 N   0  0  0  0  0  0  0  0  0  0  0  0
   47.5650   15.2620   -8.5850 C   0  0  1  0  0  0  0  0  0  0  0  0
   49.0720   15.3220   -8.3830 C   0  0  0  0  0  0  0  0  0  0  0  0
   46.8780   16.0980   -7.4530 C   0  0  0  0  0  0  0  0  0  0  0  0
   47.1650   15.7780   -6.2620 O   0  0  0  0  0  0  0  0  0  0  0  0
   46.0830   17.0010   -7.8650 O   0  0  0  0  0  0  0  0  0  0  0  0
   44.2707   13.0747  -12.4843 H   0  0  0  0  0  0  0  0  0  0  0  0
   43.3179   13.0171  -14.0060 H   0  0  0  0  0  0  0  0  0  0  0  0
   45.0416   12.5117  -14.0060 H   0  0  0  0  0  0  0  0  0  0  0  0
   44.9303   14.7146  -14.9729 H   0  0  0  0  0  0  0  0  0  0  0  0
   43.5331   15.6485  -12.3941 H   0  0  0  0  0  0  0  0  0  0  0  0
   43.7954   16.5994  -13.8953 H   0  0  0  0  0  0  0  0  0  0  0  0
   42.6445   15.2202  -13.8953 H   0  0  0  0  0  0  0  0  0  0  0  0
   46.5155   14.1356  -12.8015 H   0  0  0  0  0  0  0  0  0  0  0  0
   46.6322   15.6009  -13.9139 H   0  0  0  0  0  0  0  0  0  0  0  0
   44.8398   16.4180  -11.9225 H   0  0  0  0  0  0  0  0  0  0  0  0
   47.4460   17.2080  -11.3230 H   0  0  0  0  0  0  0  0  0  0  0  0
   47.4053   19.9511  -13.8185 H   0  0  0  0  0  0  0  0  0  0  0  0
   48.6341   18.0469  -12.5725 H   0  0  0  0  0  0  0  0  0  0  0  0
   49.4369   19.4691  -13.3875 H   0  0  0  0  0  0  0  0  0  0  0  0
   48.7026   17.8091  -10.1704 H   0  0  0  0  0  0  0  0  0  0  0  0
   49.8698   18.3941   -8.0487 H   0  0  0  0  0  0  0  0  0  0  0  0
   51.3307   20.4136   -7.9429 H   0  0  0  0  0  0  0  0  0  0  0  0
   51.6262   21.8440   -9.9647 H   0  0  0  0  0  0  0  0  0  0  0  0
   50.4585   21.2637  -12.0875 H   0  0  0  0  0  0  0  0  0  0  0  0
   48.1530   21.4820  -11.7750 H   0  0  0  0  0  0  0  0  0  0  0  0
   47.7456   23.4851  -14.6706 H   0  0  0  0  0  0  0  0  0  0  0  0
   48.0857   24.9612  -13.7367 H   0  0  0  0  0  0  0  0  0  0  0  0
   49.5569   22.1083  -15.3065 H   0  0  0  0  0  0  0  0  0  0  0  0
   51.9580   21.4700  -15.1107 H   0  0  0  0  0  0  0  0  0  0  0  0
   53.3642   22.4421  -13.2953 H   0  0  0  0  0  0  0  0  0  0  0  0
   52.3694   24.0555  -11.6758 H   0  0  0  0  0  0  0  0  0  0  0  0
   49.9672   24.6880  -11.8574 H   0  0  0  0  0  0  0  0  0  0  0  0
   47.6330   16.6200  -10.1750 H   0  0  0  0  0  0  0  0  0  0  0  0
   47.2045   14.2252   -8.5133 H   0  0  0  0  0  0  0  0  0  0  0  0
   49.2976   15.3310   -7.3064 H   0  0  0  0  0  0  0  0  0  0  0  0
   49.5396   14.4418   -8.8483 H   0  0  0  0  0  0  0  0  0  0  0  0
   49.4682   16.2366   -8.8483 H   0  0  0  0  0  0  0  0  0  0  0  0
  1  2  1  0
  2  3  1  0
  2  4  1  0
  4  5  1  0
  5  6  1  0
  6  7  1  0
  7  8  2  0
  7  9  1  6
  7 10  1  0
 10 11  1  0
 11 12  1  0
 12 13  2  0
 13 14  1  0
 14 15  2  0
 15 16  1  0
 16 17  2  0
 10 18  1  0
 18 19  1  0
 19 20  2  0
 19 21  1  0
 21 22  1  0
 22 23  1  0
 23 24  2  0
 24 25  1  0
 25 26  2  0
 26 27  1  0
 27 28  2  0
  5 29  1  0
 29 30  2  0
 29 31  1  0
 31 32  1  0
 32 33  1  0
 32 34  1  0
 34 35  2  0
 34 36  1  0
 17 12  1  0
 28 23  1  0
  1 37  1  0
  1 38  1  0
  1 39  1  0
  2 40  1  0
  3 41  1  0
  3 42  1  0
  3 43  1  0
  4 44  1  0
  4 45  1  0
  5 46  1  1
  6 47  1  0
 10 48  1  6
 11 49  1  0
 11 50  1  0
 13 51  1  0
 14 52  1  0
 15 53  1  0
 16 54  1  0
 17 55  1  0
 18 56  1  0
 22 57  1  0
 22 58  1  0
 24 59  1  0
 25 60  1  0
 26 61  1  0
 27 62  1  0
 28 63  1  0
 31 64  1  0
 32 65  1  6
 33 66  1  0
 33 67  1  0
 33 68  1  0
M  CHG  2   9  -1  36  -1
M  END
>  <meeko>  (5) 
{"is_sidechain": [false], "free_energy": -8.584, "intermolecular_energy": -14.29, "internal_energy": -3.081}

$$$$
4tmn_ligand
     RDKit          3D

 68 69  0  0  0  0  0  0  0  0999 V2000
   51.3470   24.0480  -12.0530 C   0  0  0  0  0  0  0  0  0  0  0  0
   50.8200   22.6380  -12.3290 C   0  0  0  0  0  0  0  0  0  0  0  0
   51.4740   22.1080  -13.6110 C   0  0  0  0  0  0  0  0  0  0  0  0
   51.0940   21.6690  -11.1600 C   0  0  0  0  0  0  0  0  0  0  0  0
   49.9820   20.6320  -10.8790 C   0  0  2  0  0  0  0  0  0  0  0  0
   48.6800   21.1240  -11.4250 N   0  0  0  0  0  0  0  0  0  0  0  0
   48.0990   20.3050  -12.8720 P   0  0  2  0  0  5  0  0  0  0  0  0
   49.2450   19.4220  -13.2860 O   0  0  0  0  0  0  0  0  0  0  0  0
   47.4480   21.3330  -13.7540 O   0  0  0  0  0  0  0  0  0  0  0  0
   46.7750   19.1970  -12.1180 C   0  0  2  0  0  0  0  0  0  0  0  0
   46.7040   19.3810  -10.6010 C   0  0  0  0  0  0  0  0  0  0  0  0
   45.6100   18.5600   -9.9490 C   0  0  0  0  0  0  0  0  0  0  0  0
   44.2950   18.6270  -10.4300 C   0  0  0  0  0  0  0  0  0  0  0  0
   43.2850   17.8660   -9.8410 C   0  0  0  0  0  0  0  0  0  0  0  0
   43.5800   17.0280   -8.7660 C   0  0  0  0  0  0  0  0  0  0  0  0
   44.8850   16.9510   -8.2840 C   0  0  0  0  0  0  0  0  0  0  0  0
   45.8960   17.7130   -8.8730 C   0  0  0  0  0  0  0  0  0  0  0  0
   46.9990   17.8480  -12.6490 N   0  0  0  0  0  0  0  0  0  0  0  0
   46.2350   17.3600  -13.6670 C   0  0  0  0  0  0  0  0  0  0  0  0
   45.8640   17.9570  -14.6680 O   0  0  0  0  0  0  0  0  0  0  0  0
   45.9890   16.0540  -13.4160 O   0  0  0  0  0  0  0  0  0  0  0  0
   44.6180   15.7750  -13.1510 C   0  0  0  0  0  0  0  0  0  0  0  0
   44.5690   14.9240  -11.9090 C   0  0  0  0  0  0  0  0  0  0  0  0
   45.7410   14.6210  -11.1980 C   0  0  0  0  0  0  0  0  0  0  0  0
   45.6790   13.8770  -10.0180 C   0  0  0  0  0  0  0  0  0  0  0  0
   44.4490   13.4370   -9.5340 C   0  0  0  0  0  0  0  0  0  0  0  0
   43.2790   13.7430  -10.2260 C   0  0  0  0  0  0  0  0  0  0  0  0
   43.3380   14.4820  -11.4080 C   0  0  0  0  0  0  0  0  0  0  0  0
   49.9100   20.4640   -9.3420 C   0  0  0  0  0  0  0  0  0  0  0  0
   50.0520   21.4110   -8.5640 O   0  0  0  0  0  0  0  0  0  0  0  0
   49.8180   19.1560   -8.9200 N   0  0  0  0  0  0  0  0  0  0  0  0
   49.9430   18.7220   -7.5170 C   0  0  1  0  0  0  0  0  0  0  0  0
   49.0190   17.5440   -7.2410 C   0  0  0  0  0  0  0  0  0  0  0  0
   51.4050   18.3050   -7.1380 C   0  0  0  0  0  0  0  0  0  0  0  0
   52.2820   19.2150   -7.1940 O   0  0  0  0  0  0  0  0  0  0  0  0
   51.5470   17.0790   -6.8340 O   0  0  0  0  0  0  0  0  0  0  0  0
   51.4078   24.2106  -10.9668 H   0  0  0  0  0  0  0  0  0  0  0  0
   52.3473   24.1590  -12.4969 H   0  0  0  0  0  0  0  0  0  0  0  0
   50.6647   24.7879  -12.4969 H   0  0  0  0  0  0  0  0  0  0  0  0
   49.7280   22.6982  -12.4466 H   0  0  0  0  0  0  0  0  0  0  0  0
   52.3039   21.4355  -13.3483 H   0  0  0  0  0  0  0  0  0  0  0  0
   50.7281   21.5564  -14.2021 H   0  0  0  0  0  0  0  0  0  0  0  0
   51.8591   22.9520  -14.2021 H   0  0  0  0  0  0  0  0  0  0  0  0
   52.0201   21.1199  -11.3852 H   0  0  0  0  0  0  0  0  0  0  0  0
   51.1573   22.2952  -10.2578 H   0  0  0  0  0  0  0  0  0  0  0  0
   50.1965   19.6672  -11.3619 H   0  0  0  0  0  0  0  0  0  0  0  0
   47.9190   20.9260  -10.7590 H   0  0  0  0  0  0  0  0  0  0  0  0
   45.7486   19.4649  -12.4091 H   0  0  0  0  0  0  0  0  0  0  0  0
   47.6700   19.0828  -10.1674 H   0  0  0  0  0  0  0  0  0  0  0  0
   46.4741   20.4399  -10.4113 H   0  0  0  0  0  0  0  0  0  0  0  0
   44.0576   19.2851  -11.2789 H   0  0  0  0  0  0  0  0  0  0  0  0
   42.2558   17.9269  -10.2245 H   0  0  0  0  0  0  0  0  0  0  0  0
   42.7840   16.4290   -8.2996 H   0  0  0  0  0  0  0  0  0  0  0  0
   45.1193   16.2885   -7.4377 H   0  0  0  0  0  0  0  0  0  0  0  0
   46.9244   17.6468   -8.4883 H   0  0  0  0  0  0  0  0  0  0  0  0
   46.9700   17.1840  -11.8850 H   0  0  0  0  0  0  0  0  0  0  0  0
   44.0673   16.7130  -12.9872 H   0  0  0  0  0  0  0  0  0  0  0  0
   44.1543   15.2528  -14.0009 H   0  0  0  0  0  0  0  0  0  0  0  0
   46.7139   14.9718  -11.5727 H   0  0  0  0  0  0  0  0  0  0  0  0
   46.6024   13.6381   -9.4700 H   0  0  0  0  0  0  0  0  0  0  0  0
   44.4015   12.8483   -8.6060 H   0  0  0  0  0  0  0  0  0  0  0  0
   42.3073   13.4014   -9.8398 H   0  0  0  0  0  0  0  0  0  0  0  0
   42.4109   14.7192  -11.9504 H   0  0  0  0  0  0  0  0  0  0  0  0
   49.8790   18.3860   -9.5810 H   0  0  0  0  0  0  0  0  0  0  0  0
   49.6622   19.5895   -6.9017 H   0  0  0  0  0  0  0  0  0  0  0  0
   48.9125   17.4082   -6.1546 H   0  0  0  0  0  0  0  0  0  0  0  0
   48.0317   17.7406   -7.6845 H   0  0  0  0  0  0  0  0  0  0  0  0
   49.4451   16.6320   -7.6845 H   0  0  0  0  0  0  0  0  0  0  0  0
  1  2  1  0
  2  3  1  0
  2  4  1  0
  4  5  1  0
  5  6  1  0
  6  7  1  0
  7  8  2  0
  7  9  1  6
  7 10  1  0
 10 11  1  0
 11 12  1  0
 12 13  2  0
 13 14  1  0
 14 15  2  0
 15 16  1  0
 16 17  2  0
 10 18  1  0
 18 19  1  0
 19 20  2  0
 19 21  1  0
 21 22  1  0
 22 23  1  0
 23 24  2  0
 24 25  1  0
 25 26  2  0
 26 27  1  0
 27 28  2  0
  5 29  1  0
 29 30  2  0
 29 31  1  0
 31 32  1  0
 32 33  1  0
 32 34  1  0
 34 35  2  0
 34 36  1  0
 17 12  1  0
 28 23  1  0
  1 37  1  0
  1 38  1  0
  1 39  1  0
  2 40  1  0
  3 41  1  0
  3 42  1  0
  3 43  1  0
  4 44  1  0
  4 45  1  0
  5 46  1  6
  6 47  1  0
 10 48  1  6
 11 49  1  0
 11 50  1  0
 13 51  1  0
 14 52  1  0
 15 53  1  0
 16 54  1  0
 17 55  1  0
 18 56  1  0
 22 57  1  0
 22 58  1  0
 24 59  1  0
 25 60  1  0
 26 61  1  0
 27 62  1  0
 28 63  1  0
 31 64  1  0
 32 65  1  1
 33 66  1  0
 33 67  1  0
 33 68  1  0
M  CHG  2   9  -1  36  -1
M  END
>  <meeko>  (6) 
{"is_sidechain": [false], "free_energy": -8.565, "intermolecular_energy": -13.692, "internal_energy": -3.645}

$$$$
4tmn_ligand
     RDKit          3D

 68 69  0  0  0  0  0  0  0  0999 V2000
   45.1800   15.6580   -9.8770 C   0  0  0  0  0  0  0  0  0  0  0  0
   45.8320   16.8760   -9.2190 C   0  0  0  0  0  0  0  0  0  0  0  0
   44.9020   18.0830   -9.3840 C   0  0  0  0  0  0  0  0  0  0  0  0
   46.1330   16.6450   -7.7240 C   0  0  0  0  0  0  0  0  0  0  0  0
   47.4910   15.9750   -7.4120 C   0  0  2  0  0  0  0  0  0  0  0  0
   48.4340   16.1850   -8.5520 N   0  0  0  0  0  0  0  0  0  0  0  0
   49.7410   17.3300   -8.2630 P   0  0  2  0  0  5  0  0  0  0  0  0
   50.9830   16.5880   -8.6750 O   0  0  0  0  0  0  0  0  0  0  0  0
   49.5210   17.9500   -6.9120 O   0  0  0  0  0  0  0  0  0  0  0  0
   49.3710   18.6020   -9.6040 C   0  0  2  0  0  0  0  0  0  0  0  0
   48.8580   17.9250  -10.8760 C   0  0  0  0  0  0  0  0  0  0  0  0
   47.8700   18.7730  -11.6480 C   0  0  0  0  0  0  0  0  0  0  0  0
   47.4870   18.4060  -12.9470 C   0  0  0  0  0  0  0  0  0  0  0  0
   46.5680   19.1780  -13.6600 C   0  0  0  0  0  0  0  0  0  0  0  0
   46.0220   20.3230  -13.0820 C   0  0  0  0  0  0  0  0  0  0  0  0
   46.3930   20.6940  -11.7900 C   0  0  0  0  0  0  0  0  0  0  0  0
   47.3120   19.9220  -11.0770 C   0  0  0  0  0  0  0  0  0  0  0  0
   50.5500   19.4700   -9.7000 N   0  0  0  0  0  0  0  0  0  0  0  0
   50.5010   20.7660   -9.2830 C   0  0  0  0  0  0  0  0  0  0  0  0
   49.9610   21.2010   -8.2760 O   0  0  0  0  0  0  0  0  0  0  0  0
   51.2140   21.5140  -10.1560 O   0  0  0  0  0  0  0  0  0  0  0  0
   50.4960   22.6350  -10.6630 C   0  0  0  0  0  0  0  0  0  0  0  0
   50.0980   22.3060  -12.0780 C   0  0  0  0  0  0  0  0  0  0  0  0
   50.5310   21.1190  -12.6890 C   0  0  0  0  0  0  0  0  0  0  0  0
   50.1130   20.7960  -13.9810 C   0  0  0  0  0  0  0  0  0  0  0  0
   49.2530   21.6500  -14.6700 C   0  0  0  0  0  0  0  0  0  0  0  0
   48.8080   22.8250  -14.0670 C   0  0  0  0  0  0  0  0  0  0  0  0
   49.2270   23.1520  -12.7780 C   0  0  0  0  0  0  0  0  0  0  0  0
   47.2050   14.4680   -7.2020 C   0  0  0  0  0  0  0  0  0  0  0  0
   46.1610   14.0560   -6.6900 O   0  0  0  0  0  0  0  0  0  0  0  0
   48.2680   13.6430   -7.5020 N   0  0  0  0  0  0  0  0  0  0  0  0
   48.3190   12.2040   -7.1920 C   0  0  1  0  0  0  0  0  0  0  0  0
   48.1270   11.3810   -8.4580 C   0  0  0  0  0  0  0  0  0  0  0  0
   49.6670   11.7740   -6.5200 C   0  0  0  0  0  0  0  0  0  0  0  0
   49.8070   10.5400   -6.2750 O   0  0  0  0  0  0  0  0  0  0  0  0
   50.4670   12.7300   -6.2740 O   0  0  0  0  0  0  0  0  0  0  0  0
   44.8133   14.9730   -9.0984 H   0  0  0  0  0  0  0  0  0  0  0  0
   44.3372   15.9866  -10.5028 H   0  0  0  0  0  0  0  0  0  0  0  0
   45.9208   15.1389  -10.5028 H   0  0  0  0  0  0  0  0  0  0  0  0
   46.7964   17.0581   -9.7159 H   0  0  0  0  0  0  0  0  0  0  0  0
   44.6114   18.4602   -8.3924 H   0  0  0  0  0  0  0  0  0  0  0  0
   45.4250   18.8757   -9.9390 H   0  0  0  0  0  0  0  0  0  0  0  0
   44.0021   17.7794   -9.9390 H   0  0  0  0  0  0  0  0  0  0  0  0
   46.1141   17.6225   -7.2199 H   0  0  0  0  0  0  0  0  0  0  0  0
   45.3630   15.9455   -7.3665 H   0  0  0  0  0  0  0  0  0  0  0  0
   47.9584   16.4073   -6.5150 H   0  0  0  0  0  0  0  0  0  0  0  0
   48.9600   15.3200   -8.7430 H   0  0  0  0  0  0  0  0  0  0  0  0
   48.5284   19.2688   -9.3686 H   0  0  0  0  0  0  0  0  0  0  0  0
   49.7174   17.7094  -11.5279 H   0  0  0  0  0  0  0  0  0  0  0  0
   48.3315   17.0094  -10.5685 H   0  0  0  0  0  0  0  0  0  0  0  0
   47.9142   17.5028  -13.4072 H   0  0  0  0  0  0  0  0  0  0  0  0
   46.2746   18.8827  -14.6782 H   0  0  0  0  0  0  0  0  0  0  0  0
   45.2996   20.9329  -13.6442 H   0  0  0  0  0  0  0  0  0  0  0  0
   45.9610   21.5960  -11.3321 H   0  0  0  0  0  0  0  0  0  0  0  0
   47.5998   20.2195  -10.0579 H   0  0  0  0  0  0  0  0  0  0  0  0
   50.8920   19.4570  -10.6530 H   0  0  0  0  0  0  0  0  0  0  0  0
   49.5996   22.8162  -10.0518 H   0  0  0  0  0  0  0  0  0  0  0  0
   51.1169   23.5425  -10.6329 H   0  0  0  0  0  0  0  0  0  0  0  0
   51.2040   20.4389  -12.1463 H   0  0  0  0  0  0  0  0  0  0  0  0
   50.4623   19.8672  -14.4558 H   0  0  0  0  0  0  0  0  0  0  0  0
   48.9258   21.3965  -15.6892 H   0  0  0  0  0  0  0  0  0  0  0  0
   48.1250   23.4956  -14.6090 H   0  0  0  0  0  0  0  0  0  0  0  0
   48.8715   24.0804  -12.3072 H   0  0  0  0  0  0  0  0  0  0  0  0
   49.1730   14.0270   -7.7560 H   0  0  0  0  0  0  0  0  0  0  0  0
   47.5039   12.0156   -6.4778 H   0  0  0  0  0  0  0  0  0  0  0  0
   47.8848   10.3427   -8.1872 H   0  0  0  0  0  0  0  0  0  0  0  0
   47.3041   11.8068   -9.0509 H   0  0  0  0  0  0  0  0  0  0  0  0
   49.0534   11.3987   -9.0509 H   0  0  0  0  0  0  0  0  0  0  0  0
  1  2  1  0
  2  3  1  0
  2  4  1  0
  4  5  1  0
  5  6  1  0
  6  7  1  0
  7  8  2  0
  7  9  1  1
  7 10  1  0
 10 11  1  0
 11 12  1  0
 12 13  2  0
 13 14  1  0
 14 15  2  0
 15 16  1  0
 16 17  2  0
 10 18  1  0
 18 19  1  0
 19 20  2  0
 19 21  1  0
 21 22  1  0
 22 23  1  0
 23 24  2  0
 24 25  1  0
 25 26  2  0
 26 27  1  0
 27 28  2  0
  5 29  1  0
 29 30  2  0
 29 31  1  0
 31 32  1  0
 32 33  1  0
 32 34  1  0
 34 35  2  0
 34 36  1  0
 17 12  1  0
 28 23  1  0
  1 37  1  0
  1 38  1  0
  1 39  1  0
  2 40  1  0
  3 41  1  0
  3 42  1  0
  3 43  1  0
  4 44  1  0
  4 45  1  0
  5 46  1  1
  6 47  1  0
 10 48  1  1
 11 49  1  0
 11 50  1  0
 13 51  1  0
 14 52  1  0
 15 53  1  0
 16 54  1  0
 17 55  1  0
 18 56  1  0
 22 57  1  0
 22 58  1  0
 24 59  1  0
 25 60  1  0
 26 61  1  0
 27 62  1  0
 28 63  1  0
 31 64  1  0
 32 65  1  1
 33 66  1  0
 33 67  1  0
 33 68  1  0
M  CHG  2   9  -1  36  -1
M  END
>  <meeko>  (7) 
{"is_sidechain": [false], "free_energy": -8.545, "intermolecular_energy": -13.105, "internal_energy": -4.194}

$$$$
4tmn_ligand
     RDKit          3D

 68 69  0  0  0  0  0  0  0  0999 V2000
   43.5900   16.2960   -8.0100 C   0  0  0  0  0  0  0  0  0  0  0  0
   44.9720   16.4070   -8.6580 C   0  0  0  0  0  0  0  0  0  0  0  0
   45.0980   17.7850   -9.3190 C   0  0  0  0  0  0  0  0  0  0  0  0
   46.1150   16.2040   -7.6430 C   0  0  0  0  0  0  0  0  0  0  0  0
   47.5450   16.3360   -8.2130 C   0  0  2  0  0  0  0  0  0  0  0  0
   48.0670   14.9880   -8.5910 N   0  0  0  0  0  0  0  0  0  0  0  0
   49.0900   14.9370  -10.0240 P   0  0  2  0  0  5  0  0  0  0  0  0
   48.7980   13.5960  -10.6430 O   0  0  0  0  0  0  0  0  0  0  0  0
   50.4580   15.4190   -9.6330 O   0  0  0  0  0  0  0  0  0  0  0  0
   48.2440   16.2440  -11.0840 C   0  0  2  0  0  0  0  0  0  0  0  0
   47.6280   15.6210  -12.3380 C   0  0  0  0  0  0  0  0  0  0  0  0
   46.1510   15.9210  -12.4920 C   0  0  0  0  0  0  0  0  0  0  0  0
   45.7320   17.0890  -13.1440 C   0  0  0  0  0  0  0  0  0  0  0  0
   44.3730   17.3660  -13.2980 C   0  0  0  0  0  0  0  0  0  0  0  0
   43.4200   16.4770  -12.8030 C   0  0  0  0  0  0  0  0  0  0  0  0
   43.8270   15.3110  -12.1570 C   0  0  0  0  0  0  0  0  0  0  0  0
   45.1860   15.0340  -12.0020 C   0  0  0  0  0  0  0  0  0  0  0  0
   49.2030   17.3420  -11.2470 N   0  0  0  0  0  0  0  0  0  0  0  0
   48.8440   18.6310  -10.9880 C   0  0  0  0  0  0  0  0  0  0  0  0
   48.1650   19.0380  -10.0560 O   0  0  0  0  0  0  0  0  0  0  0  0
   49.4200   19.4220  -11.9220 O   0  0  0  0  0  0  0  0  0  0  0  0
   50.2820   20.4140  -11.3720 C   0  0  0  0  0  0  0  0  0  0  0  0
   50.6960   21.3190  -12.5030 C   0  0  0  0  0  0  0  0  0  0  0  0
   51.6670   22.3140  -12.3090 C   0  0  0  0  0  0  0  0  0  0  0  0
   52.0840   23.1120  -13.3760 C   0  0  0  0  0  0  0  0  0  0  0  0
   51.5430   22.9170  -14.6460 C   0  0  0  0  0  0  0  0  0  0  0  0
   50.5880   21.9240  -14.8510 C   0  0  0  0  0  0  0  0  0  0  0  0
   50.1660   21.1290  -13.7860 C   0  0  0  0  0  0  0  0  0  0  0  0
   48.4110   16.9720   -7.0990 C   0  0  0  0  0  0  0  0  0  0  0  0
   48.0570   16.9990   -5.9180 O   0  0  0  0  0  0  0  0  0  0  0  0
   49.5340   17.6270   -7.5590 N   0  0  0  0  0  0  0  0  0  0  0  0
   50.4000   18.4820   -6.7280 C   0  0  1  0  0  0  0  0  0  0  0  0
   51.5050   17.6550   -6.0880 C   0  0  0  0  0  0  0  0  0  0  0  0
   51.0580   19.6500   -7.5380 C   0  0  0  0  0  0  0  0  0  0  0  0
   50.2940   20.5980   -7.8810 O   0  0  0  0  0  0  0  0  0  0  0  0
   52.2970   19.4970   -7.7800 O   0  0  0  0  0  0  0  0  0  0  0  0
   43.6966   16.3046   -6.9152 H   0  0  0  0  0  0  0  0  0  0  0  0
   42.9681   17.1471   -8.3245 H   0  0  0  0  0  0  0  0  0  0  0  0
   43.1119   15.3566   -8.3245 H   0  0  0  0  0  0  0  0  0  0  0  0
   45.0637   15.6071   -9.4075 H   0  0  0  0  0  0  0  0  0  0  0  0
   45.1688   18.5596   -8.5412 H   0  0  0  0  0  0  0  0  0  0  0  0
   46.0022   17.8101   -9.9449 H   0  0  0  0  0  0  0  0  0  0  0  0
   44.2134   17.9737   -9.9449 H   0  0  0  0  0  0  0  0  0  0  0  0
   45.9976   16.9536   -6.8466 H   0  0  0  0  0  0  0  0  0  0  0  0
   46.0254   15.1652   -7.2925 H   0  0  0  0  0  0  0  0  0  0  0  0
   47.5630   16.9607   -9.1182 H   0  0  0  0  0  0  0  0  0  0  0  0
   48.7130   14.6410   -7.8670 H   0  0  0  0  0  0  0  0  0  0  0  0
   47.3547   16.6919  -10.6165 H   0  0  0  0  0  0  0  0  0  0  0  0
   48.1576   16.0129  -13.2189 H   0  0  0  0  0  0  0  0  0  0  0  0
   47.7310   14.5299  -12.2442 H   0  0  0  0  0  0  0  0  0  0  0  0
   46.4803   17.7928  -13.5373 H   0  0  0  0  0  0  0  0  0  0  0  0
   44.0537   18.2858  -13.8099 H   0  0  0  0  0  0  0  0  0  0  0  0
   42.3485   16.6955  -12.9221 H   0  0  0  0  0  0  0  0  0  0  0  0
   43.0756   14.6077  -11.7686 H   0  0  0  0  0  0  0  0  0  0  0  0
   45.5007   14.1121  -11.4911 H   0  0  0  0  0  0  0  0  0  0  0  0
   49.5910   17.3040  -12.1820 H   0  0  0  0  0  0  0  0  0  0  0  0
   49.7493   20.9918  -10.6023 H   0  0  0  0  0  0  0  0  0  0  0  0
   51.1610   19.9504  -10.9003 H   0  0  0  0  0  0  0  0  0  0  0  0
   52.1020   22.4659  -11.3102 H   0  0  0  0  0  0  0  0  0  0  0  0
   52.8397   23.8949  -13.2146 H   0  0  0  0  0  0  0  0  0  0  0  0
   51.8703   23.5473  -15.4860 H   0  0  0  0  0  0  0  0  0  0  0  0
   50.1661   21.7667  -15.8546 H   0  0  0  0  0  0  0  0  0  0  0  0
   49.4112   20.3467  -13.9544 H   0  0  0  0  0  0  0  0  0  0  0  0
   49.7050   17.7360   -8.5550 H   0  0  0  0  0  0  0  0  0  0  0  0
   49.7490   18.9225   -5.9585 H   0  0  0  0  0  0  0  0  0  0  0  0
   51.4220   17.7171   -4.9929 H   0  0  0  0  0  0  0  0  0  0  0  0
   51.4078   16.6059   -6.4042 H   0  0  0  0  0  0  0  0  0  0  0  0
   52.4841   18.0440   -6.4042 H   0  0  0  0  0  0  0  0  0  0  0  0
  1  2  1  0
  2  3  1  0
  2  4  1  0
  4  5  1  0
  5  6  1  0
  6  7  1  0
  7  8  2  0
  7  9  1  1
  7 10  1  0
 10 11  1  0
 11 12  1  0
 12 13  2  0
 13 14  1  0
 14 15  2  0
 15 16  1  0
 16 17  2  0
 10 18  1  0
 18 19  1  0
 19 20  2  0
 19 21  1  0
 21 22  1  0
 22 23  1  0
 23 24  2  0
 24 25  1  0
 25 26  2  0
 26 27  1  0
 27 28  2  0
  5 29  1  0
 29 30  2  0
 29 31  1  0
 31 32  1  0
 32 33  1  0
 32 34  1  0
 34 35  2  0
 34 36  1  0
 17 12  1  0
 28 23  1  0
  1 37  1  0
  1 38  1  0
  1 39  1  0
  2 40  1  0
  3 41  1  0
  3 42  1  0
  3 43  1  0
  4 44  1  0
  4 45  1  0
  5 46  1  6
  6 47  1  0
 10 48  1  1
 11 49  1  0
 11 50  1  0
 13 51  1  0
 14 52  1  0
 15 53  1  0
 16 54  1  0
 17 55  1  0
 18 56  1  0
 22 57  1  0
 22 58  1  0
 24 59  1  0
 25 60  1  0
 26 61  1  0
 27 62  1  0
 28 63  1  0
 31 64  1  0
 32 65  1  1
 33 66  1  0
 33 67  1  0
 33 68  1  0
M  CHG  2   9  -1  36  -1
M  END
>  <meeko>  (8) 
{"is_sidechain": [false], "free_energy": -8.476, "intermolecular_energy": -13.741, "internal_energy": -3.435}

$$$$
4tmn_ligand
     RDKit          3D

 68 69  0  0  0  0  0  0  0  0999 V2000
   44.2940   17.8040   -9.8120 C   0  0  0  0  0  0  0  0  0  0  0  0
   44.9350   17.0420   -8.6490 C   0  0  0  0  0  0  0  0  0  0  0  0
   43.8250   16.5090   -7.7360 C   0  0  0  0  0  0  0  0  0  0  0  0
   45.8250   15.8770   -9.1300 C   0  0  0  0  0  0  0  0  0  0  0  0
   46.9090   15.4090   -8.1310 C   0  0  2  0  0  0  0  0  0  0  0  0
   48.2640   15.5740   -8.7400 N   0  0  0  0  0  0  0  0  0  0  0  0
   49.2620   16.8510   -8.0510 P   0  0  2  0  0  5  0  0  0  0  0  0
   50.6610   16.3000   -8.1060 O   0  0  0  0  0  0  0  0  0  0  0  0
   48.5840   17.3460   -6.8050 O   0  0  0  0  0  0  0  0  0  0  0  0
   49.1160   18.1540   -9.4050 C   0  0  2  0  0  0  0  0  0  0  0  0
   48.4620   17.5720  -10.6590 C   0  0  0  0  0  0  0  0  0  0  0  0
   47.5050   18.5320  -11.3350 C   0  0  0  0  0  0  0  0  0  0  0  0
   47.1490   19.7340  -10.7070 C   0  0  0  0  0  0  0  0  0  0  0  0
   46.2760   20.6280  -11.3290 C   0  0  0  0  0  0  0  0  0  0  0  0
   45.7510   20.3290  -12.5850 C   0  0  0  0  0  0  0  0  0  0  0  0
   46.1020   19.1390  -13.2200 C   0  0  0  0  0  0  0  0  0  0  0  0
   46.9750   18.2450  -12.5980 C   0  0  0  0  0  0  0  0  0  0  0  0
   50.4350   18.7830   -9.5310 N   0  0  0  0  0  0  0  0  0  0  0  0
   50.7050   19.9730   -8.9260 C   0  0  0  0  0  0  0  0  0  0  0  0
   50.3760   20.3260   -7.8020 O   0  0  0  0  0  0  0  0  0  0  0  0
   51.4670   20.7080   -9.7680 O   0  0  0  0  0  0  0  0  0  0  0  0
   50.8240   21.8930  -10.2290 C   0  0  0  0  0  0  0  0  0  0  0  0
   50.8690   21.8670  -11.7350 C   0  0  0  0  0  0  0  0  0  0  0  0
   50.0530   20.9890  -12.4630 C   0  0  0  0  0  0  0  0  0  0  0  0
   50.0620   21.0100  -13.8590 C   0  0  0  0  0  0  0  0  0  0  0  0
   50.8770   21.9130  -14.5380 C   0  0  0  0  0  0  0  0  0  0  0  0
   51.6830   22.7980  -13.8230 C   0  0  0  0  0  0  0  0  0  0  0  0
   51.6790   22.7760  -12.4280 C   0  0  0  0  0  0  0  0  0  0  0  0
   46.6180   13.9210   -7.8240 C   0  0  0  0  0  0  0  0  0  0  0  0
   46.8370   13.0200   -8.6380 O   0  0  0  0  0  0  0  0  0  0  0  0
   45.9640   13.7060   -6.6300 N   0  0  0  0  0  0  0  0  0  0  0  0
   45.3960   12.4130   -6.2100 C   0  0  1  0  0  0  0  0  0  0  0  0
   45.8530   12.0640   -4.8020 C   0  0  0  0  0  0  0  0  0  0  0  0
   43.8300   12.3990   -6.2430 C   0  0  0  0  0  0  0  0  0  0  0  0
   43.2790   13.0730   -7.1610 O   0  0  0  0  0  0  0  0  0  0  0  0
   43.2850   11.7200   -5.3160 O   0  0  0  0  0  0  0  0  0  0  0  0
   43.6334   18.5893   -9.4160 H   0  0  0  0  0  0  0  0  0  0  0  0
   45.0814   18.2632  -10.4278 H   0  0  0  0  0  0  0  0  0  0  0  0
   43.7067   17.1069  -10.4278 H   0  0  0  0  0  0  0  0  0  0  0  0
   45.5866   17.7386   -8.1012 H   0  0  0  0  0  0  0  0  0  0  0  0
   44.1163   16.6489   -6.6845 H   0  0  0  0  0  0  0  0  0  0  0  0
   42.8923   17.0575   -7.9341 H   0  0  0  0  0  0  0  0  0  0  0  0
   43.6698   15.4382   -7.9341 H   0  0  0  0  0  0  0  0  0  0  0  0
   45.1717   15.0191   -9.3473 H   0  0  0  0  0  0  0  0  0  0  0  0
   46.3681   16.2554  -10.0086 H   0  0  0  0  0  0  0  0  0  0  0  0
   46.8900   16.0032   -7.2055 H   0  0  0  0  0  0  0  0  0  0  0  0
   48.8400   14.7410   -8.5540 H   0  0  0  0  0  0  0  0  0  0  0  0
   48.4186   18.9707   -9.1669 H   0  0  0  0  0  0  0  0  0  0  0  0
   49.2539   17.3063  -11.3747 H   0  0  0  0  0  0  0  0  0  0  0  0
   47.8768   16.6952  -10.3447 H   0  0  0  0  0  0  0  0  0  0  0  0
   47.5611   19.9745   -9.7159 H   0  0  0  0  0  0  0  0  0  0  0  0
   46.0024   21.5683  -10.8280 H   0  0  0  0  0  0  0  0  0  0  0  0
   45.0604   21.0314  -13.0746 H   0  0  0  0  0  0  0  0  0  0  0  0
   45.6905   18.9040  -14.2127 H   0  0  0  0  0  0  0  0  0  0  0  0
   47.2485   17.3076  -13.1045 H   0  0  0  0  0  0  0  0  0  0  0  0
   50.6670   18.8680  -10.5140 H   0  0  0  0  0  0  0  0  0  0  0  0
   49.7799   21.9141   -9.8834 H   0  0  0  0  0  0  0  0  0  0  0  0
   51.3293   22.7887   -9.8385 H   0  0  0  0  0  0  0  0  0  0  0  0
   49.4020   20.2796  -11.9310 H   0  0  0  0  0  0  0  0  0  0  0  0
   49.4250   20.3129  -14.4232 H   0  0  0  0  0  0  0  0  0  0  0  0
   50.8847   21.9278  -15.6379 H   0  0  0  0  0  0  0  0  0  0  0  0
   52.3227   23.5143  -14.3594 H   0  0  0  0  0  0  0  0  0  0  0  0
   52.3160   23.4770  -11.8686 H   0  0  0  0  0  0  0  0  0  0  0  0
   45.6410   14.4850   -6.0620 H   0  0  0  0  0  0  0  0  0  0  0  0
   45.7616   11.6681   -6.9321 H   0  0  0  0  0  0  0  0  0  0  0  0
   45.2001   12.5626   -4.0704 H   0  0  0  0  0  0  0  0  0  0  0  0
   45.7996   10.9747   -4.6586 H   0  0  0  0  0  0  0  0  0  0  0  0
   46.8898   12.4023   -4.6586 H   0  0  0  0  0  0  0  0  0  0  0  0
  1  2  1  0
  2  3  1  0
  2  4  1  0
  4  5  1  0
  5  6  1  0
  6  7  1  0
  7  8  2  0
  7  9  1  1
  7 10  1  0
 10 11  1  0
 11 12  1  0
 12 13  2  0
 13 14  1  0
 14 15  2  0
 15 16  1  0
 16 17  2  0
 10 18  1  0
 18 19  1  0
 19 20  2  0
 19 21  1  0
 21 22  1  0
 22 23  1  0
 23 24  2  0
 24 25  1  0
 25 26  2  0
 26 27  1  0
 27 28  2  0
  5 29  1  0
 29 30  2  0
 29 31  1  0
 31 32  1  0
 32 33  1  0
 32 34  1  0
 34 35  2  0
 34 36  1  0
 17 12  1  0
 28 23  1  0
  1 37  1  0
  1 38  1  0
  1 39  1  0
  2 40  1  0
  3 41  1  0
  3 42  1  0
  3 43  1  0
  4 44  1  0
  4 45  1  0
  5 46  1  1
  6 47  1  0
 10 48  1  1
 11 49  1  0
 11 50  1  0
 13 51  1  0
 14 52  1  0
 15 53  1  0
 16 54  1  0
 17 55  1  0
 18 56  1  0
 22 57  1  0
 22 58  1  0
 24 59  1  0
 25 60  1  0
 26 61  1  0
 27 62  1  0
 28 63  1  0
 31 64  1  0
 32 65  1  6
 33 66  1  0
 33 67  1  0
 33 68  1  0
M  CHG  2   9  -1  36  -1
M  END
>  <meeko>  (9) 
{"is_sidechain": [false], "free_energy": -8.382, "intermolecular_energy": -13.717, "internal_energy": -3.286}

$$$$
