5aba_ligand
     RDKit          3D

 48 50  0  0  0  0  0  0  0  0999 V2000
   90.9510   95.8320  -42.4330 O   0  0  0  0  0  0  0  0  0  0  0  0
   90.9700   94.8850  -43.4240 C   0  0  0  0  0  0  0  0  0  0  0  0
   91.4840   93.6050  -43.1830 C   0  0  0  0  0  0  0  0  0  0  0  0
   92.1840   93.1480  -41.4810 Br  0  0  0  0  0  0  0  0  0  0  0  0
   91.4930   92.6460  -44.1930 C   0  0  0  0  0  0  0  0  0  0  0  0
   90.9830   92.9750  -45.4450 C   0  0  0  0  0  0  0  0  0  0  0  0
   90.9970   91.8050  -46.7070 Cl  0  0  0  0  0  0  0  0  0  0  0  0
   90.4660   94.2480  -45.6930 C   0  0  0  0  0  0  0  0  0  0  0  0
   90.4570   95.2260  -44.6830 C   0  0  0  0  0  0  0  0  0  0  0  0
   89.9070   96.6040  -44.9750 C   0  0  0  0  0  0  0  0  0  0  0  0
   90.5460   97.6670  -44.1710 N   0  0  0  0  0  0  0  0  0  0  0  0
   91.6950   98.2730  -44.8540 C   0  0  0  0  0  0  0  0  0  0  0  0
   92.1490   99.5800  -44.1850 C   0  0  0  0  0  0  0  0  0  0  0  0
   91.6990   99.5890  -42.7280 C   0  0  0  0  0  0  0  0  0  0  0  0
   92.2280  100.7950  -41.9440 N   0  0  1  0  0  0  0  0  0  0  0  0
   91.9440  102.1060  -42.6510 C   0  0  0  0  0  0  0  0  0  0  0  0
   92.7100  103.2270  -41.9710 C   0  0  0  0  0  0  0  0  0  0  0  0
   92.3910  103.3060  -40.4840 C   0  0  2  0  0  0  0  0  0  0  0  0
   93.2530  104.2500  -39.8670 O   0  0  0  0  0  0  0  0  0  0  0  0
   92.6080  101.9620  -39.7990 C   0  0  0  0  0  0  0  0  0  0  0  0
   91.8270  100.8580  -40.4860 C   0  0  0  0  0  0  0  0  0  0  0  0
   90.1690   99.5140  -42.6170 C   0  0  0  0  0  0  0  0  0  0  0  0
   89.5680   98.6650  -43.7450 C   0  0  0  0  0  0  0  0  0  0  0  0
   90.2170   95.6110  -41.8300 H   0  0  0  0  0  0  0  0  0  0  0  0
   91.8982   91.6411  -44.0032 H   0  0  0  0  0  0  0  0  0  0  0  0
   90.0621   94.4879  -46.6876 H   0  0  0  0  0  0  0  0  0  0  0  0
   90.0680   96.8264  -46.0402 H   0  0  0  0  0  0  0  0  0  0  0  0
   88.8388   96.5925  -44.7128 H   0  0  0  0  0  0  0  0  0  0  0  0
   92.5318   97.5591  -44.8396 H   0  0  0  0  0  0  0  0  0  0  0  0
   91.3874   98.5111  -45.8829 H   0  0  0  0  0  0  0  0  0  0  0  0
   93.2456   99.6533  -44.2304 H   0  0  0  0  0  0  0  0  0  0  0  0
   91.7019  100.4358  -44.7119 H   0  0  0  0  0  0  0  0  0  0  0  0
   92.1365   98.6890  -42.2712 H   0  0  0  0  0  0  0  0  0  0  0  0
   93.2540  100.6870  -41.9630 H   0  0  0  0  0  0  0  0  0  0  0  0
   92.2602  102.0313  -43.7019 H   0  0  0  0  0  0  0  0  0  0  0  0
   90.8659  102.3198  -42.6055 H   0  0  0  0  0  0  0  0  0  0  0  0
   93.7883  103.0484  -42.0953 H   0  0  0  0  0  0  0  0  0  0  0  0
   92.4116  104.1778  -42.4367 H   0  0  0  0  0  0  0  0  0  0  0  0
   91.3363  103.6015  -40.3825 H   0  0  0  0  0  0  0  0  0  0  0  0
   93.0070  105.1480  -40.1570 H   0  0  0  0  0  0  0  0  0  0  0  0
   93.6793  101.7141  -39.8285 H   0  0  0  0  0  0  0  0  0  0  0  0
   92.2541  102.0417  -38.7605 H   0  0  0  0  0  0  0  0  0  0  0  0
   92.0483   99.8953  -40.0020 H   0  0  0  0  0  0  0  0  0  0  0  0
   90.7495  101.0655  -40.4086 H   0  0  0  0  0  0  0  0  0  0  0  0
   89.9018   99.0646  -41.6492 H   0  0  0  0  0  0  0  0  0  0  0  0
   89.7651  100.5340  -42.6979 H   0  0  0  0  0  0  0  0  0  0  0  0
   88.6614   98.1593  -43.3813 H   0  0  0  0  0  0  0  0  0  0  0  0
   89.3077   99.3126  -44.5953 H   0  0  0  0  0  0  0  0  0  0  0  0
  1  2  1  0
  2  3  2  0
  3  4  1  0
  3  5  1  0
  5  6  2  0
  6  7  1  0
  6  8  1  0
  8  9  2  0
  9 10  1  0
 10 11  1  0
 11 12  1  0
 12 13  1  0
 13 14  1  0
 14 15  1  0
 15 16  1  0
 16 17  1  0
 17 18  1  0
 18 19  1  0
 18 20  1  0
 20 21  1  0
 14 22  1  0
 22 23  1  0
  9  2  1  0
 23 11  1  0
 21 15  1  0
  1 24  1  0
  5 25  1  0
  8 26  1  0
 10 27  1  0
 10 28  1  0
 12 29  1  0
 12 30  1  0
 13 31  1  0
 13 32  1  0
 14 33  1  0
 15 34  1  1
 16 35  1  0
 16 36  1  0
 17 37  1  0
 17 38  1  0
 18 39  1  6
 19 40  1  0
 20 41  1  0
 20 42  1  0
 21 43  1  0
 21 44  1  0
 22 45  1  0
 22 46  1  0
 23 47  1  0
 23 48  1  0
M  CHG  1  15   1
M  END
>  <meeko>  (1) 
{"is_sidechain": [false], "free_energy": -6.335, "intermolecular_energy": -7.817, "internal_energy": -0.539}

$$$$
5aba_ligand
     RDKit          3D

 48 50  0  0  0  0  0  0  0  0999 V2000
   89.9100   94.6340  -46.6430 O   0  0  0  0  0  0  0  0  0  0  0  0
   90.4530   94.4280  -45.4010 C   0  0  0  0  0  0  0  0  0  0  0  0
   91.0100   93.1900  -45.0580 C   0  0  0  0  0  0  0  0  0  0  0  0
   91.0150   91.7550  -46.2980 Br  0  0  0  0  0  0  0  0  0  0  0  0
   91.5660   92.9900  -43.7970 C   0  0  0  0  0  0  0  0  0  0  0  0
   91.5630   94.0380  -42.8810 C   0  0  0  0  0  0  0  0  0  0  0  0
   92.2360   93.8050  -41.3150 Cl  0  0  0  0  0  0  0  0  0  0  0  0
   91.0130   95.2770  -43.2160 C   0  0  0  0  0  0  0  0  0  0  0  0
   90.4440   95.4880  -44.4840 C   0  0  0  0  0  0  0  0  0  0  0  0
   89.8390   96.8320  -44.8230 C   0  0  0  0  0  0  0  0  0  0  0  0
   90.2280   97.9010  -43.8790 N   0  0  0  0  0  0  0  0  0  0  0  0
   91.3410   98.7150  -44.3810 C   0  0  0  0  0  0  0  0  0  0  0  0
   91.5260  100.0100  -43.5750 C   0  0  0  0  0  0  0  0  0  0  0  0
   90.9300   99.8320  -42.1820 C   0  0  0  0  0  0  0  0  0  0  0  0
   91.1930  101.0290  -41.2600 N   0  0  1  0  0  0  0  0  0  0  0  0
   89.9070  101.6520  -40.7520 C   0  0  0  0  0  0  0  0  0  0  0  0
   90.2180  102.9720  -40.0690 C   0  0  0  0  0  0  0  0  0  0  0  0
   91.2430  102.8020  -38.9550 C   0  0  2  0  0  0  0  0  0  0  0  0
   91.6230  104.0790  -38.4660 O   0  0  0  0  0  0  0  0  0  0  0  0
   92.5000  102.1050  -39.4610 C   0  0  0  0  0  0  0  0  0  0  0  0
   92.1700  100.7850  -40.1310 C   0  0  0  0  0  0  0  0  0  0  0  0
   89.4250   99.5390  -42.2550 C   0  0  0  0  0  0  0  0  0  0  0  0
   89.0760   98.7150  -43.5010 C   0  0  0  0  0  0  0  0  0  0  0  0
   89.4850   95.5120  -46.6350 H   0  0  0  0  0  0  0  0  0  0  0  0
   92.0019   92.0164  -43.5283 H   0  0  0  0  0  0  0  0  0  0  0  0
   91.0251   96.0953  -42.4810 H   0  0  0  0  0  0  0  0  0  0  0  0
   90.1694   97.1195  -45.8321 H   0  0  0  0  0  0  0  0  0  0  0  0
   88.7461   96.7233  -44.7611 H   0  0  0  0  0  0  0  0  0  0  0  0
   92.2671   98.1246  -44.3193 H   0  0  0  0  0  0  0  0  0  0  0  0
   91.1116   98.9949  -45.4198 H   0  0  0  0  0  0  0  0  0  0  0  0
   92.5987  100.2378  -43.4884 H   0  0  0  0  0  0  0  0  0  0  0  0
   91.0155  100.8377  -44.0890 H   0  0  0  0  0  0  0  0  0  0  0  0
   91.4435   98.9650  -41.7407 H   0  0  0  0  0  0  0  0  0  0  0  0
   91.6220  101.7390  -41.8730 H   0  0  0  0  0  0  0  0  0  0  0  0
   89.2262  101.8285  -41.5978 H   0  0  0  0  0  0  0  0  0  0  0  0
   89.4295  100.9709  -40.0322 H   0  0  0  0  0  0  0  0  0  0  0  0
   90.6163  103.6747  -40.8158 H   0  0  0  0  0  0  0  0  0  0  0  0
   89.2880  103.3553  -39.6238 H   0  0  0  0  0  0  0  0  0  0  0  0
   90.7812  102.1926  -38.1642 H   0  0  0  0  0  0  0  0  0  0  0  0
   92.3340  104.4400  -39.0260 H   0  0  0  0  0  0  0  0  0  0  0  0
   93.0038  102.7591  -40.1879 H   0  0  0  0  0  0  0  0  0  0  0  0
   93.1534  101.9019  -38.5997 H   0  0  0  0  0  0  0  0  0  0  0  0
   93.0906  100.3360  -40.5321 H   0  0  0  0  0  0  0  0  0  0  0  0
   91.7212  100.1004  -39.3962 H   0  0  0  0  0  0  0  0  0  0  0  0
   89.1258   98.9765  -41.3583 H   0  0  0  0  0  0  0  0  0  0  0  0
   88.8877  100.4972  -42.3114 H   0  0  0  0  0  0  0  0  0  0  0  0
   88.2198   98.0604  -43.2808 H   0  0  0  0  0  0  0  0  0  0  0  0
   88.8146   99.3908  -44.3286 H   0  0  0  0  0  0  0  0  0  0  0  0
  1  2  1  0
  2  3  2  0
  3  4  1  0
  3  5  1  0
  5  6  2  0
  6  7  1  0
  6  8  1  0
  8  9  2  0
  9 10  1  0
 10 11  1  0
 11 12  1  0
 12 13  1  0
 13 14  1  0
 14 15  1  0
 15 16  1  0
 16 17  1  0
 17 18  1  0
 18 19  1  0
 18 20  1  0
 20 21  1  0
 14 22  1  0
 22 23  1  0
  9  2  1  0
 23 11  1  0
 21 15  1  0
  1 24  1  0
  5 25  1  0
  8 26  1  0
 10 27  1  0
 10 28  1  0
 12 29  1  0
 12 30  1  0
 13 31  1  0
 13 32  1  0
 14 33  1  0
 15 34  1  6
 16 35  1  0
 16 36  1  0
 17 37  1  0
 17 38  1  0
 18 39  1  1
 19 40  1  0
 20 41  1  0
 20 42  1  0
 21 43  1  0
 21 44  1  0
 22 45  1  0
 22 46  1  0
 23 47  1  0
 23 48  1  0
M  CHG  1  15   1
M  END
>  <meeko>  (2) 
{"is_sidechain": [false], "free_energy": -6.128, "intermolecular_energy": -7.485, "internal_energy": -0.616}

$$$$
5aba_ligand
     RDKit          3D

 48 50  0  0  0  0  0  0  0  0999 V2000
   91.1350  101.8880  -39.7270 O   0  0  0  0  0  0  0  0  0  0  0  0
   92.1960  102.3510  -40.4640 C   0  0  0  0  0  0  0  0  0  0  0  0
   93.3580  102.8130  -39.8340 C   0  0  0  0  0  0  0  0  0  0  0  0
   93.4940  102.8280  -37.9430 Br  0  0  0  0  0  0  0  0  0  0  0  0
   94.4340  103.2750  -40.5900 C   0  0  0  0  0  0  0  0  0  0  0  0
   94.3400  103.2690  -41.9780 C   0  0  0  0  0  0  0  0  0  0  0  0
   95.6560  103.8450  -42.9250 Cl  0  0  0  0  0  0  0  0  0  0  0  0
   93.1860  102.8070  -42.6130 C   0  0  0  0  0  0  0  0  0  0  0  0
   92.0920  102.3430  -41.8610 C   0  0  0  0  0  0  0  0  0  0  0  0
   90.8440  101.8610  -42.5670 C   0  0  0  0  0  0  0  0  0  0  0  0
   90.8040  100.3940  -42.7410 N   0  0  0  0  0  0  0  0  0  0  0  0
   89.4670   99.8360  -42.4990 C   0  0  0  0  0  0  0  0  0  0  0  0
   89.3420   98.3880  -42.9960 C   0  0  0  0  0  0  0  0  0  0  0  0
   90.7250   97.7490  -43.0590 C   0  0  0  0  0  0  0  0  0  0  0  0
   90.6820   96.2580  -43.4130 N   0  0  1  0  0  0  0  0  0  0  0  0
   91.1780   95.9900  -44.8210 C   0  0  0  0  0  0  0  0  0  0  0  0
   90.8690   94.5530  -45.2040 C   0  0  0  0  0  0  0  0  0  0  0  0
   91.4510   93.5650  -44.2010 C   0  0  2  0  0  0  0  0  0  0  0  0
   90.9930   92.2580  -44.5090 O   0  0  0  0  0  0  0  0  0  0  0  0
   91.0060   93.8920  -42.7810 C   0  0  0  0  0  0  0  0  0  0  0  0
   91.3330   95.3270  -42.4130 C   0  0  0  0  0  0  0  0  0  0  0  0
   91.6410   98.5000  -44.0360 C   0  0  0  0  0  0  0  0  0  0  0  0
   91.3370  100.0040  -44.0430 C   0  0  0  0  0  0  0  0  0  0  0  0
   90.3920  102.5030  -39.8670 H   0  0  0  0  0  0  0  0  0  0  0  0
   95.3462  103.6398  -40.0953 H   0  0  0  0  0  0  0  0  0  0  0  0
   93.1318  102.8059  -43.7117 H   0  0  0  0  0  0  0  0  0  0  0  0
   89.9679  102.1671  -41.9765 H   0  0  0  0  0  0  0  0  0  0  0  0
   90.8424  102.3097  -43.5713 H   0  0  0  0  0  0  0  0  0  0  0  0
   89.2647   99.8578  -41.4180 H   0  0  0  0  0  0  0  0  0  0  0  0
   88.7411  100.4471  -43.0555 H   0  0  0  0  0  0  0  0  0  0  0  0
   88.7057   97.8168  -42.3040 H   0  0  0  0  0  0  0  0  0  0  0  0
   88.8907   98.3832  -43.9992 H   0  0  0  0  0  0  0  0  0  0  0  0
   91.1411   97.8281  -42.0438 H   0  0  0  0  0  0  0  0  0  0  0  0
   89.6770   96.0230  -43.4250 H   0  0  0  0  0  0  0  0  0  0  0  0
   90.6754   96.6722  -45.5224 H   0  0  0  0  0  0  0  0  0  0  0  0
   92.2648   96.1542  -44.8634 H   0  0  0  0  0  0  0  0  0  0  0  0
   89.7776   94.4210  -45.2422 H   0  0  0  0  0  0  0  0  0  0  0  0
   91.3247   94.3541  -46.1852 H   0  0  0  0  0  0  0  0  0  0  0  0
   92.5474   93.6289  -44.2632 H   0  0  0  0  0  0  0  0  0  0  0  0
   90.5780   92.2610  -45.3900 H   0  0  0  0  0  0  0  0  0  0  0  0
   89.9191   93.7418  -42.7034 H   0  0  0  0  0  0  0  0  0  0  0  0
   91.5433   93.2269  -42.0889 H   0  0  0  0  0  0  0  0  0  0  0  0
   90.9506   95.5445  -41.4048 H   0  0  0  0  0  0  0  0  0  0  0  0
   92.4232   95.4730  -42.4275 H   0  0  0  0  0  0  0  0  0  0  0  0
   92.6878   98.3476  -43.7344 H   0  0  0  0  0  0  0  0  0  0  0  0
   91.4656   98.1061  -45.0480 H   0  0  0  0  0  0  0  0  0  0  0  0
   92.2615  100.5649  -44.2447 H   0  0  0  0  0  0  0  0  0  0  0  0
   90.5974  100.2271  -44.8261 H   0  0  0  0  0  0  0  0  0  0  0  0
  1  2  1  0
  2  3  2  0
  3  4  1  0
  3  5  1  0
  5  6  2  0
  6  7  1  0
  6  8  1  0
  8  9  2  0
  9 10  1  0
 10 11  1  0
 11 12  1  0
 12 13  1  0
 13 14  1  0
 14 15  1  0
 15 16  1  0
 16 17  1  0
 17 18  1  0
 18 19  1  0
 18 20  1  0
 20 21  1  0
 14 22  1  0
 22 23  1  0
  9  2  1  0
 23 11  1  0
 21 15  1  0
  1 24  1  0
  5 25  1  0
  8 26  1  0
 10 27  1  0
 10 28  1  0
 12 29  1  0
 12 30  1  0
 13 31  1  0
 13 32  1  0
 14 33  1  0
 15 34  1  6
 16 35  1  0
 16 36  1  0
 17 37  1  0
 17 38  1  0
 18 39  1  1
 19 40  1  0
 20 41  1  0
 20 42  1  0
 21 43  1  0
 21 44  1  0
 22 45  1  0
 22 46  1  0
 23 47  1  0
 23 48  1  0
M  CHG  1  15   1
M  END
>  <meeko>  (3) 
{"is_sidechain": [false], "free_energy": -5.593, "intermolecular_energy": -6.709, "internal_energy": -0.731}

$$$$
5aba_ligand
     RDKit          3D

 48 50  0  0  0  0  0  0  0  0999 V2000
   89.8400   95.2620  -45.9920 O   0  0  0  0  0  0  0  0  0  0  0  0
   90.4890   94.7830  -44.8840 C   0  0  0  0  0  0  0  0  0  0  0  0
   91.0510   93.5000  -44.8790 C   0  0  0  0  0  0  0  0  0  0  0  0
   90.9150   92.3800  -46.4020 Br  0  0  0  0  0  0  0  0  0  0  0  0
   91.7150   93.0240  -43.7510 C   0  0  0  0  0  0  0  0  0  0  0  0
   91.8160   93.8400  -42.6290 C   0  0  0  0  0  0  0  0  0  0  0  0
   92.6240   93.2630  -41.2230 Cl  0  0  0  0  0  0  0  0  0  0  0  0
   91.2620   95.1220  -42.6260 C   0  0  0  0  0  0  0  0  0  0  0  0
   90.5850   95.6110  -43.7560 C   0  0  0  0  0  0  0  0  0  0  0  0
   89.9770   96.9960  -43.7290 C   0  0  0  0  0  0  0  0  0  0  0  0
   90.7190   97.9730  -44.5530 N   0  0  0  0  0  0  0  0  0  0  0  0
   89.8550   98.6680  -45.5150 C   0  0  0  0  0  0  0  0  0  0  0  0
   90.5380   99.8990  -46.1290 C   0  0  0  0  0  0  0  0  0  0  0  0
   92.0520   99.7400  -46.0380 C   0  0  0  0  0  0  0  0  0  0  0  0
   92.8170  100.8610  -46.7520 N   0  0  1  0  0  0  0  0  0  0  0  0
   92.9070  100.6280  -48.2480 C   0  0  0  0  0  0  0  0  0  0  0  0
   93.8860  101.6170  -48.8570 C   0  0  0  0  0  0  0  0  0  0  0  0
   93.5110  103.0560  -48.5300 C   0  0  2  0  0  0  0  0  0  0  0  0
   94.5420  103.9240  -48.9740 O   0  0  0  0  0  0  0  0  0  0  0  0
   93.3490  103.2580  -47.0280 C   0  0  0  0  0  0  0  0  0  0  0  0
   92.3600  102.2690  -46.4400 C   0  0  0  0  0  0  0  0  0  0  0  0
   92.5130   99.6310  -44.5770 C   0  0  0  0  0  0  0  0  0  0  0  0
   91.4720   98.9030  -43.7160 C   0  0  0  0  0  0  0  0  0  0  0  0
   89.1480   95.8750  -45.6840 H   0  0  0  0  0  0  0  0  0  0  0  0
   92.1540   92.0154  -43.7474 H   0  0  0  0  0  0  0  0  0  0  0  0
   91.3565   95.7546  -41.7310 H   0  0  0  0  0  0  0  0  0  0  0  0
   88.9455   96.9325  -44.1058 H   0  0  0  0  0  0  0  0  0  0  0  0
   90.0152   97.3499  -42.6882 H   0  0  0  0  0  0  0  0  0  0  0  0
   89.5920   97.9696  -46.3231 H   0  0  0  0  0  0  0  0  0  0  0  0
   88.9608   99.0135  -44.9756 H   0  0  0  0  0  0  0  0  0  0  0  0
   90.2423   99.9940  -47.1842 H   0  0  0  0  0  0  0  0  0  0  0  0
   90.2308  100.8007  -45.5790 H   0  0  0  0  0  0  0  0  0  0  0  0
   92.2898   98.8019  -46.5609 H   0  0  0  0  0  0  0  0  0  0  0  0
   93.7840  100.7800  -46.4000 H   0  0  0  0  0  0  0  0  0  0  0  0
   93.2556   99.6023  -48.4389 H   0  0  0  0  0  0  0  0  0  0  0  0
   91.9146  100.7685  -48.7011 H   0  0  0  0  0  0  0  0  0  0  0  0
   94.8918  101.4122  -48.4614 H   0  0  0  0  0  0  0  0  0  0  0  0
   93.8596  101.4961  -49.9500 H   0  0  0  0  0  0  0  0  0  0  0  0
   92.5582  103.2768  -49.0334 H   0  0  0  0  0  0  0  0  0  0  0  0
   94.4180  104.8040  -48.5720 H   0  0  0  0  0  0  0  0  0  0  0  0
   94.3256  103.1201  -46.5409 H   0  0  0  0  0  0  0  0  0  0  0  0
   92.9665  104.2747  -46.8546 H   0  0  0  0  0  0  0  0  0  0  0  0
   92.3078  102.4055  -45.3497 H   0  0  0  0  0  0  0  0  0  0  0  0
   91.3647  102.4390  -46.8763 H   0  0  0  0  0  0  0  0  0  0  0  0
   93.4606   99.0736  -44.5410 H   0  0  0  0  0  0  0  0  0  0  0  0
   92.6437  100.6476  -44.1777 H   0  0  0  0  0  0  0  0  0  0  0  0
   91.9815   98.3469  -42.9153 H   0  0  0  0  0  0  0  0  0  0  0  0
   90.7846   99.6367  -43.2698 H   0  0  0  0  0  0  0  0  0  0  0  0
  1  2  1  0
  2  3  2  0
  3  4  1  0
  3  5  1  0
  5  6  2  0
  6  7  1  0
  6  8  1  0
  8  9  2  0
  9 10  1  0
 10 11  1  0
 11 12  1  0
 12 13  1  0
 13 14  1  0
 14 15  1  0
 15 16  1  0
 16 17  1  0
 17 18  1  0
 18 19  1  0
 18 20  1  0
 20 21  1  0
 14 22  1  0
 22 23  1  0
  9  2  1  0
 23 11  1  0
 21 15  1  0
  1 24  1  0
  5 25  1  0
  8 26  1  0
 10 27  1  0
 10 28  1  0
 12 29  1  0
 12 30  1  0
 13 31  1  0
 13 32  1  0
 14 33  1  0
 15 34  1  1
 16 35  1  0
 16 36  1  0
 17 37  1  0
 17 38  1  0
 18 39  1  6
 19 40  1  0
 20 41  1  0
 20 42  1  0
 21 43  1  0
 21 44  1  0
 22 45  1  0
 22 46  1  0
 23 47  1  0
 23 48  1  0
M  CHG  1  15   1
M  END
>  <meeko>  (4) 
{"is_sidechain": [false], "free_energy": -5.459, "intermolecular_energy": -6.49, "internal_energy": -0.785}

$$$$
5aba_ligand
     RDKit          3D

 48 50  0  0  0  0  0  0  0  0999 V2000
   93.3050  102.1210  -42.4060 O   0  0  0  0  0  0  0  0  0  0  0  0
   92.5680  102.4390  -41.2950 C   0  0  0  0  0  0  0  0  0  0  0  0
   93.1930  102.8750  -40.1200 C   0  0  0  0  0  0  0  0  0  0  0  0
   95.0810  103.0230  -40.0270 Br  0  0  0  0  0  0  0  0  0  0  0  0
   92.4370  103.2030  -38.9970 C   0  0  0  0  0  0  0  0  0  0  0  0
   91.0510  103.0950  -39.0570 C   0  0  0  0  0  0  0  0  0  0  0  0
   90.1030  103.4850  -37.6760 Cl  0  0  0  0  0  0  0  0  0  0  0  0
   90.4190  102.6640  -40.2260 C   0  0  0  0  0  0  0  0  0  0  0  0
   91.1720  102.3250  -41.3640 C   0  0  0  0  0  0  0  0  0  0  0  0
   90.4710  101.8460  -42.6150 C   0  0  0  0  0  0  0  0  0  0  0  0
   90.5190  100.3780  -42.7830 N   0  0  0  0  0  0  0  0  0  0  0  0
   89.2690   99.7260  -42.3720 C   0  0  0  0  0  0  0  0  0  0  0  0
   89.1890   98.2670  -42.8480 C   0  0  0  0  0  0  0  0  0  0  0  0
   90.5970   97.7310  -43.0870 C   0  0  0  0  0  0  0  0  0  0  0  0
   90.6200   96.2380  -43.4320 N   0  0  1  0  0  0  0  0  0  0  0  0
   91.1730   95.9800  -44.8210 C   0  0  0  0  0  0  0  0  0  0  0  0
   90.9290   94.5310  -45.2040 C   0  0  0  0  0  0  0  0  0  0  0  0
   91.5130   93.5700  -44.1750 C   0  0  2  0  0  0  0  0  0  0  0  0
   91.1130   92.2450  -44.4890 O   0  0  0  0  0  0  0  0  0  0  0  0
   91.0080   93.8880  -42.7730 C   0  0  0  0  0  0  0  0  0  0  0  0
   91.2700   95.3360  -42.4050 C   0  0  0  0  0  0  0  0  0  0  0  0
   91.3230   98.5380  -44.1730 C   0  0  0  0  0  0  0  0  0  0  0  0
   90.9100  100.0150  -44.1420 C   0  0  0  0  0  0  0  0  0  0  0  0
   94.1990  102.4890  -42.2800 H   0  0  0  0  0  0  0  0  0  0  0  0
   92.9295  103.5432  -38.0741 H   0  0  0  0  0  0  0  0  0  0  0  0
   89.3220  102.5892  -40.2564 H   0  0  0  0  0  0  0  0  0  0  0  0
   89.4173  102.1582  -42.5668 H   0  0  0  0  0  0  0  0  0  0  0  0
   90.9946  102.2909  -43.4741 H   0  0  0  0  0  0  0  0  0  0  0  0
   89.2049   99.7440  -41.2740 H   0  0  0  0  0  0  0  0  0  0  0  0
   88.4350  100.2765  -42.8319 H   0  0  0  0  0  0  0  0  0  0  0  0
   88.6904   97.6577  -42.0798 H   0  0  0  0  0  0  0  0  0  0  0  0
   88.6148   98.2185  -43.7850 H   0  0  0  0  0  0  0  0  0  0  0  0
   91.1320   97.8506  -42.1334 H   0  0  0  0  0  0  0  0  0  0  0  0
   89.6260   95.9660  -43.4760 H   0  0  0  0  0  0  0  0  0  0  0  0
   90.6703   96.6396  -45.5437 H   0  0  0  0  0  0  0  0  0  0  0  0
   92.2540   96.1832  -44.8279 H   0  0  0  0  0  0  0  0  0  0  0  0
   89.8450   94.3593  -45.2772 H   0  0  0  0  0  0  0  0  0  0  0  0
   91.4238   94.3432  -46.1683 H   0  0  0  0  0  0  0  0  0  0  0  0
   92.6078   93.6738  -44.2011 H   0  0  0  0  0  0  0  0  0  0  0  0
   90.6380   92.2450  -45.3400 H   0  0  0  0  0  0  0  0  0  0  0  0
   89.9253   93.6985  -42.7312 H   0  0  0  0  0  0  0  0  0  0  0  0
   91.5447   93.2468  -42.0583 H   0  0  0  0  0  0  0  0  0  0  0  0
   90.8465   95.5452  -41.4116 H   0  0  0  0  0  0  0  0  0  0  0  0
   92.3541   95.5211  -42.3852 H   0  0  0  0  0  0  0  0  0  0  0  0
   92.4081   98.4661  -44.0072 H   0  0  0  0  0  0  0  0  0  0  0  0
   91.0500   98.1224  -45.1542 H   0  0  0  0  0  0  0  0  0  0  0  0
   91.7573  100.6403  -44.4600 H   0  0  0  0  0  0  0  0  0  0  0  0
   90.0624  100.1751  -44.8246 H   0  0  0  0  0  0  0  0  0  0  0  0
  1  2  1  0
  2  3  2  0
  3  4  1  0
  3  5  1  0
  5  6  2  0
  6  7  1  0
  6  8  1  0
  8  9  2  0
  9 10  1  0
 10 11  1  0
 11 12  1  0
 12 13  1  0
 13 14  1  0
 14 15  1  0
 15 16  1  0
 16 17  1  0
 17 18  1  0
 18 19  1  0
 18 20  1  0
 20 21  1  0
 14 22  1  0
 22 23  1  0
  9  2  1  0
 23 11  1  0
 21 15  1  0
  1 24  1  0
  5 25  1  0
  8 26  1  0
 10 27  1  0
 10 28  1  0
 12 29  1  0
 12 30  1  0
 13 31  1  0
 13 32  1  0
 14 33  1  0
 15 34  1  6
 16 35  1  0
 16 36  1  0
 17 37  1  0
 17 38  1  0
 18 39  1  1
 19 40  1  0
 20 41  1  0
 20 42  1  0
 21 43  1  0
 21 44  1  0
 22 45  1  0
 22 46  1  0
 23 47  1  0
 23 48  1  0
M  CHG  1  15   1
M  END
>  <meeko>  (5) 
{"is_sidechain": [false], "free_energy": -5.432, "intermolecular_energy": -6.468, "internal_energy": -0.775}

$$$$
5aba_ligand
     RDKit          3D

 48 50  0  0  0  0  0  0  0  0999 V2000
   91.8460  101.4570  -43.8550 O   0  0  0  0  0  0  0  0  0  0  0  0
   91.5830  101.7830  -42.5490 C   0  0  0  0  0  0  0  0  0  0  0  0
   92.5270  102.4720  -41.7780 C   0  0  0  0  0  0  0  0  0  0  0  0
   94.2050  102.9610  -42.5110 Br  0  0  0  0  0  0  0  0  0  0  0  0
   92.2490  102.8050  -40.4540 C   0  0  0  0  0  0  0  0  0  0  0  0
   91.0200  102.4470  -39.9080 C   0  0  0  0  0  0  0  0  0  0  0  0
   90.6650  102.8420  -38.2720 Cl  0  0  0  0  0  0  0  0  0  0  0  0
   90.0720  101.7630  -40.6720 C   0  0  0  0  0  0  0  0  0  0  0  0
   90.3430  101.4170  -42.0070 C   0  0  0  0  0  0  0  0  0  0  0  0
   89.3100  100.6620  -42.8140 C   0  0  0  0  0  0  0  0  0  0  0  0
   89.7920   99.3490  -43.2920 N   0  0  0  0  0  0  0  0  0  0  0  0
   90.4340   98.5650  -42.2290 C   0  0  0  0  0  0  0  0  0  0  0  0
   90.6320   97.0950  -42.6280 C   0  0  0  0  0  0  0  0  0  0  0  0
   90.6580   96.9780  -44.1480 C   0  0  0  0  0  0  0  0  0  0  0  0
   90.9890   95.5620  -44.6350 N   0  0  1  0  0  0  0  0  0  0  0  0
   91.2840   94.6170  -43.4870 C   0  0  0  0  0  0  0  0  0  0  0  0
   91.8540   93.3190  -44.0310 C   0  0  0  0  0  0  0  0  0  0  0  0
   90.9290   92.6850  -45.0620 C   0  0  2  0  0  0  0  0  0  0  0  0
   91.5800   91.5750  -45.6590 O   0  0  0  0  0  0  0  0  0  0  0  0
   90.5790   93.6700  -46.1700 C   0  0  0  0  0  0  0  0  0  0  0  0
   90.0010   94.9550  -45.6080 C   0  0  0  0  0  0  0  0  0  0  0  0
   89.3350   97.4550  -44.7650 C   0  0  0  0  0  0  0  0  0  0  0  0
   88.7240   98.6060  -43.9560 C   0  0  0  0  0  0  0  0  0  0  0  0
   92.4220  102.1540  -44.2200 H   0  0  0  0  0  0  0  0  0  0  0  0
   92.9918  103.3442  -39.8477 H   0  0  0  0  0  0  0  0  0  0  0  0
   89.1041  101.4925  -40.2248 H   0  0  0  0  0  0  0  0  0  0  0  0
   88.4231  100.5007  -42.1836 H   0  0  0  0  0  0  0  0  0  0  0  0
   89.0802  101.2694  -43.7018 H   0  0  0  0  0  0  0  0  0  0  0  0
   91.4167   99.0070  -42.0077 H   0  0  0  0  0  0  0  0  0  0  0  0
   89.7754   98.5891  -41.3483 H   0  0  0  0  0  0  0  0  0  0  0  0
   91.5839   96.7286  -42.2161 H   0  0  0  0  0  0  0  0  0  0  0  0
   89.8026   96.4927  -42.2288 H   0  0  0  0  0  0  0  0  0  0  0  0
   91.4712   97.6358  -44.4886 H   0  0  0  0  0  0  0  0  0  0  0  0
   91.8800   95.6650  -45.1450 H   0  0  0  0  0  0  0  0  0  0  0  0
   92.0143   95.0818  -42.8083 H   0  0  0  0  0  0  0  0  0  0  0  0
   90.3542   94.4066  -42.9382 H   0  0  0  0  0  0  0  0  0  0  0  0
   92.8253   93.5268  -44.5037 H   0  0  0  0  0  0  0  0  0  0  0  0
   91.9656   92.6158  -43.1925 H   0  0  0  0  0  0  0  0  0  0  0  0
   90.0092   92.3767  -44.5435 H   0  0  0  0  0  0  0  0  0  0  0  0
   91.9850   91.0260  -44.9630 H   0  0  0  0  0  0  0  0  0  0  0  0
   91.4901   93.9066  -46.7392 H   0  0  0  0  0  0  0  0  0  0  0  0
   89.8220   93.2054  -46.8190 H   0  0  0  0  0  0  0  0  0  0  0  0
   89.8108   95.6625  -46.4285 H   0  0  0  0  0  0  0  0  0  0  0  0
   89.0561   94.7386  -45.0881 H   0  0  0  0  0  0  0  0  0  0  0  0
   89.5229   97.7998  -45.7925 H   0  0  0  0  0  0  0  0  0  0  0  0
   88.6267   96.6134  -44.7595 H   0  0  0  0  0  0  0  0  0  0  0  0
   88.1735   99.2779  -44.6309 H   0  0  0  0  0  0  0  0  0  0  0  0
   88.0331   98.2006  -43.2021 H   0  0  0  0  0  0  0  0  0  0  0  0
  1  2  1  0
  2  3  2  0
  3  4  1  0
  3  5  1  0
  5  6  2  0
  6  7  1  0
  6  8  1  0
  8  9  2  0
  9 10  1  0
 10 11  1  0
 11 12  1  0
 12 13  1  0
 13 14  1  0
 14 15  1  0
 15 16  1  0
 16 17  1  0
 17 18  1  0
 18 19  1  0
 18 20  1  0
 20 21  1  0
 14 22  1  0
 22 23  1  0
  9  2  1  0
 23 11  1  0
 21 15  1  0
  1 24  1  0
  5 25  1  0
  8 26  1  0
 10 27  1  0
 10 28  1  0
 12 29  1  0
 12 30  1  0
 13 31  1  0
 13 32  1  0
 14 33  1  0
 15 34  1  6
 16 35  1  0
 16 36  1  0
 17 37  1  0
 17 38  1  0
 18 39  1  1
 19 40  1  0
 20 41  1  0
 20 42  1  0
 21 43  1  0
 21 44  1  0
 22 45  1  0
 22 46  1  0
 23 47  1  0
 23 48  1  0
M  CHG  1  15   1
M  END
>  <meeko>  (6) 
{"is_sidechain": [false], "free_energy": -5.402, "intermolecular_energy": -6.486, "internal_energy": -0.718}

$$$$
5aba_ligand
     RDKit          3D

 48 50  0  0  0  0  0  0  0  0999 V2000
   90.9430   99.7530  -47.6580 O   0  0  0  0  0  0  0  0  0  0  0  0
   91.5670  100.8890  -47.2070 C   0  0  0  0  0  0  0  0  0  0  0  0
   92.6640  101.4250  -47.8930 C   0  0  0  0  0  0  0  0  0  0  0  0
   93.3310  100.5860  -49.4570 Br  0  0  0  0  0  0  0  0  0  0  0  0
   93.2870  102.5820  -47.4330 C   0  0  0  0  0  0  0  0  0  0  0  0
   92.8040  103.2020  -46.2840 C   0  0  0  0  0  0  0  0  0  0  0  0
   93.5690  104.6260  -45.6960 Cl  0  0  0  0  0  0  0  0  0  0  0  0
   91.7090  102.6760  -45.5960 C   0  0  0  0  0  0  0  0  0  0  0  0
   91.0750  101.5050  -46.0480 C   0  0  0  0  0  0  0  0  0  0  0  0
   89.8990  100.9410  -45.2820 C   0  0  0  0  0  0  0  0  0  0  0  0
   90.1630   99.6020  -44.7140 N   0  0  0  0  0  0  0  0  0  0  0  0
   90.4850   99.6530  -43.2830 C   0  0  0  0  0  0  0  0  0  0  0  0
   90.4310   98.2660  -42.6240 C   0  0  0  0  0  0  0  0  0  0  0  0
   90.6340   97.1890  -43.6850 C   0  0  0  0  0  0  0  0  0  0  0  0
   90.7330   95.7770  -43.0960 N   0  0  1  0  0  0  0  0  0  0  0  0
   91.3320   94.7890  -44.0770 C   0  0  0  0  0  0  0  0  0  0  0  0
   91.1630   93.3770  -43.5430 C   0  0  0  0  0  0  0  0  0  0  0  0
   91.7640   93.2260  -42.1510 C   0  0  2  0  0  0  0  0  0  0  0  0
   91.4320   91.9480  -41.6310 O   0  0  0  0  0  0  0  0  0  0  0  0
   91.2100   94.2750  -41.1930 C   0  0  0  0  0  0  0  0  0  0  0  0
   91.3970   95.6780  -41.7390 C   0  0  0  0  0  0  0  0  0  0  0  0
   89.5310   97.2440  -44.7510 C   0  0  0  0  0  0  0  0  0  0  0  0
   89.0650   98.6830  -45.0000 C   0  0  0  0  0  0  0  0  0  0  0  0
   90.1100  100.0260  -48.0850 H   0  0  0  0  0  0  0  0  0  0  0  0
   94.1502  103.0010  -47.9708 H   0  0  0  0  0  0  0  0  0  0  0  0
   91.3388  103.1821  -44.6922 H   0  0  0  0  0  0  0  0  0  0  0  0
   89.6559  101.6285  -44.4585 H   0  0  0  0  0  0  0  0  0  0  0  0
   89.0656  100.8366  -45.9923 H   0  0  0  0  0  0  0  0  0  0  0  0
   91.4988  100.0627  -43.1628 H   0  0  0  0  0  0  0  0  0  0  0  0
   89.7342  100.2890  -42.7913 H   0  0  0  0  0  0  0  0  0  0  0  0
   91.2253   98.1889  -41.8670 H   0  0  0  0  0  0  0  0  0  0  0  0
   89.4511   98.1268  -42.1439 H   0  0  0  0  0  0  0  0  0  0  0  0
   91.6020   97.4093  -44.1588 H   0  0  0  0  0  0  0  0  0  0  0  0
   89.7530   95.4810  -42.9670 H   0  0  0  0  0  0  0  0  0  0  0  0
   90.8190   94.8781  -45.0460 H   0  0  0  0  0  0  0  0  0  0  0  0
   92.4027   95.0055  -44.2067 H   0  0  0  0  0  0  0  0  0  0  0  0
   90.0900   93.1396  -43.4958 H   0  0  0  0  0  0  0  0  0  0  0  0
   91.6892   92.6885  -44.2206 H   0  0  0  0  0  0  0  0  0  0  0  0
   92.8533   93.3507  -42.2401 H   0  0  0  0  0  0  0  0  0  0  0  0
   90.5530   91.6860  -41.9580 H   0  0  0  0  0  0  0  0  0  0  0  0
   90.1362   94.0900  -41.0420 H   0  0  0  0  0  0  0  0  0  0  0  0
   91.7572   94.1982  -40.2419 H   0  0  0  0  0  0  0  0  0  0  0  0
   90.9390   96.4044  -41.0515 H   0  0  0  0  0  0  0  0  0  0  0  0
   92.4707   95.8965  -41.8362 H   0  0  0  0  0  0  0  0  0  0  0  0
   89.9206   96.8263  -45.6910 H   0  0  0  0  0  0  0  0  0  0  0  0
   88.6718   96.6594  -44.3906 H   0  0  0  0  0  0  0  0  0  0  0  0
   88.7577   98.7932  -46.0505 H   0  0  0  0  0  0  0  0  0  0  0  0
   88.2119   98.9127  -44.3446 H   0  0  0  0  0  0  0  0  0  0  0  0
  1  2  1  0
  2  3  2  0
  3  4  1  0
  3  5  1  0
  5  6  2  0
  6  7  1  0
  6  8  1  0
  8  9  2  0
  9 10  1  0
 10 11  1  0
 11 12  1  0
 12 13  1  0
 13 14  1  0
 14 15  1  0
 15 16  1  0
 16 17  1  0
 17 18  1  0
 18 19  1  0
 18 20  1  0
 20 21  1  0
 14 22  1  0
 22 23  1  0
  9  2  1  0
 23 11  1  0
 21 15  1  0
  1 24  1  0
  5 25  1  0
  8 26  1  0
 10 27  1  0
 10 28  1  0
 12 29  1  0
 12 30  1  0
 13 31  1  0
 13 32  1  0
 14 33  1  0
 15 34  1  1
 16 35  1  0
 16 36  1  0
 17 37  1  0
 17 38  1  0
 18 39  1  6
 19 40  1  0
 20 41  1  0
 20 42  1  0
 21 43  1  0
 21 44  1  0
 22 45  1  0
 22 46  1  0
 23 47  1  0
 23 48  1  0
M  CHG  1  15   1
M  END
>  <meeko>  (7) 
{"is_sidechain": [false], "free_energy": -5.264, "intermolecular_energy": -6.213, "internal_energy": -0.821}

$$$$
5aba_ligand
     RDKit          3D

 48 50  0  0  0  0  0  0  0  0999 V2000
   90.4690   97.1370  -43.3140 O   0  0  0  0  0  0  0  0  0  0  0  0
   89.6850   96.9530  -44.4240 C   0  0  0  0  0  0  0  0  0  0  0  0
   89.8820   95.8510  -45.2660 C   0  0  0  0  0  0  0  0  0  0  0  0
   91.2480   94.5880  -44.9040 Br  0  0  0  0  0  0  0  0  0  0  0  0
   89.0760   95.6670  -46.3880 C   0  0  0  0  0  0  0  0  0  0  0  0
   88.0730   96.5910  -46.6610 C   0  0  0  0  0  0  0  0  0  0  0  0
   87.0770   96.3860  -48.0480 Cl  0  0  0  0  0  0  0  0  0  0  0  0
   87.8690   97.6920  -45.8250 C   0  0  0  0  0  0  0  0  0  0  0  0
   88.6780   97.8900  -44.6930 C   0  0  0  0  0  0  0  0  0  0  0  0
   88.4520   99.0960  -43.8080 C   0  0  0  0  0  0  0  0  0  0  0  0
   89.7080   99.7530  -43.3890 N   0  0  0  0  0  0  0  0  0  0  0  0
   90.1510  100.7770  -44.3440 C   0  0  0  0  0  0  0  0  0  0  0  0
   91.2490  101.6800  -43.7620 C   0  0  0  0  0  0  0  0  0  0  0  0
   91.9700  100.9450  -42.6360 C   0  0  0  0  0  0  0  0  0  0  0  0
   93.1740  101.7210  -42.0890 N   0  0  1  0  0  0  0  0  0  0  0  0
   93.5050  102.9350  -42.9350 C   0  0  0  0  0  0  0  0  0  0  0  0
   94.8450  103.5040  -42.5030 C   0  0  0  0  0  0  0  0  0  0  0  0
   94.8670  103.8290  -41.0150 C   0  0  2  0  0  0  0  0  0  0  0  0
   96.1830  104.1950  -40.6320 O   0  0  0  0  0  0  0  0  0  0  0  0
   94.4580  102.6220  -40.1800 C   0  0  0  0  0  0  0  0  0  0  0  0
   93.1130  102.0740  -40.6180 C   0  0  0  0  0  0  0  0  0  0  0  0
   91.0040  100.5910  -41.4960 C   0  0  0  0  0  0  0  0  0  0  0  0
   89.6010  100.2760  -42.0300 C   0  0  0  0  0  0  0  0  0  0  0  0
   91.3880   96.9280  -43.5660 H   0  0  0  0  0  0  0  0  0  0  0  0
   89.2312   94.8018  -47.0493 H   0  0  0  0  0  0  0  0  0  0  0  0
   87.0681   98.4101  -46.0550 H   0  0  0  0  0  0  0  0  0  0  0  0
   87.8427   99.8263  -44.3607 H   0  0  0  0  0  0  0  0  0  0  0  0
   87.9472   98.7432  -42.8965 H   0  0  0  0  0  0  0  0  0  0  0  0
   90.5430  100.2773  -45.2421 H   0  0  0  0  0  0  0  0  0  0  0  0
   89.2849  101.4115  -44.5834 H   0  0  0  0  0  0  0  0  0  0  0  0
   91.9696  101.9366  -44.5525 H   0  0  0  0  0  0  0  0  0  0  0  0
   90.7946  102.6003  -43.3664 H   0  0  0  0  0  0  0  0  0  0  0  0
   92.3581  100.0160  -43.0790 H   0  0  0  0  0  0  0  0  0  0  0  0
   93.9710  101.0770  -42.2040 H   0  0  0  0  0  0  0  0  0  0  0  0
   93.5558  102.6411  -43.9938 H   0  0  0  0  0  0  0  0  0  0  0  0
   92.7234  103.6977  -42.8029 H   0  0  0  0  0  0  0  0  0  0  0  0
   95.6316  102.7657  -42.7181 H   0  0  0  0  0  0  0  0  0  0  0  0
   95.0164  104.4370  -43.0599 H   0  0  0  0  0  0  0  0  0  0  0  0
   94.1577  104.6514  -40.8403 H   0  0  0  0  0  0  0  0  0  0  0  0
   96.1390  104.8210  -39.8870 H   0  0  0  0  0  0  0  0  0  0  0  0
   95.2185  101.8352  -40.2924 H   0  0  0  0  0  0  0  0  0  0  0  0
   94.3762  102.9399  -39.1301 H   0  0  0  0  0  0  0  0  0  0  0  0
   92.8746  101.1734  -40.0332 H   0  0  0  0  0  0  0  0  0  0  0  0
   92.3334  102.8321  -40.4520 H   0  0  0  0  0  0  0  0  0  0  0  0
   91.3893   99.7108  -40.9605 H   0  0  0  0  0  0  0  0  0  0  0  0
   90.9318  101.4569  -40.8215 H   0  0  0  0  0  0  0  0  0  0  0  0
   89.1220   99.5254  -41.3841 H   0  0  0  0  0  0  0  0  0  0  0  0
   88.9941  101.1934  -42.0350 H   0  0  0  0  0  0  0  0  0  0  0  0
  1  2  1  0
  2  3  2  0
  3  4  1  0
  3  5  1  0
  5  6  2  0
  6  7  1  0
  6  8  1  0
  8  9  2  0
  9 10  1  0
 10 11  1  0
 11 12  1  0
 12 13  1  0
 13 14  1  0
 14 15  1  0
 15 16  1  0
 16 17  1  0
 17 18  1  0
 18 19  1  0
 18 20  1  0
 20 21  1  0
 14 22  1  0
 22 23  1  0
  9  2  1  0
 23 11  1  0
 21 15  1  0
  1 24  1  0
  5 25  1  0
  8 26  1  0
 10 27  1  0
 10 28  1  0
 12 29  1  0
 12 30  1  0
 13 31  1  0
 13 32  1  0
 14 33  1  0
 15 34  1  1
 16 35  1  0
 16 36  1  0
 17 37  1  0
 17 38  1  0
 18 39  1  6
 19 40  1  0
 20 41  1  0
 20 42  1  0
 21 43  1  0
 21 44  1  0
 22 45  1  0
 22 46  1  0
 23 47  1  0
 23 48  1  0
M  CHG  1  15   1
M  END
>  <meeko>  (8) 
{"is_sidechain": [false], "free_energy": -5.169, "intermolecular_energy": -6.12, "internal_energy": -0.797}

$$$$
5aba_ligand
     RDKit          3D

 48 50  0  0  0  0  0  0  0  0999 V2000
   87.5890  100.7310  -45.6400 O   0  0  0  0  0  0  0  0  0  0  0  0
   87.7440   99.4750  -46.1670 C   0  0  0  0  0  0  0  0  0  0  0  0
   87.7970   99.2810  -47.5530 C   0  0  0  0  0  0  0  0  0  0  0  0
   87.6390  100.7480  -48.7430 Br  0  0  0  0  0  0  0  0  0  0  0  0
   87.9620   98.0020  -48.0810 C   0  0  0  0  0  0  0  0  0  0  0  0
   88.0760   96.9200  -47.2140 C   0  0  0  0  0  0  0  0  0  0  0  0
   88.2700   95.3330  -47.8500 Cl  0  0  0  0  0  0  0  0  0  0  0  0
   88.0280   97.1050  -45.8310 C   0  0  0  0  0  0  0  0  0  0  0  0
   87.8570   98.3900  -45.2870 C   0  0  0  0  0  0  0  0  0  0  0  0
   87.7910   98.5690  -43.7860 C   0  0  0  0  0  0  0  0  0  0  0  0
   88.9820   99.2430  -43.2280 N   0  0  0  0  0  0  0  0  0  0  0  0
   88.6310  100.3370  -42.3130 C   0  0  0  0  0  0  0  0  0  0  0  0
   89.8350  100.8130  -41.4860 C   0  0  0  0  0  0  0  0  0  0  0  0
   91.1260  100.4590  -42.2150 C   0  0  0  0  0  0  0  0  0  0  0  0
   92.3760  101.0210  -41.5270 N   0  0  1  0  0  0  0  0  0  0  0  0
   92.8930  102.2710  -42.2120 C   0  0  0  0  0  0  0  0  0  0  0  0
   94.2620  102.6260  -41.6570 C   0  0  0  0  0  0  0  0  0  0  0  0
   94.2320  102.7820  -40.1420 C   0  0  2  0  0  0  0  0  0  0  0  0
   95.5560  102.9430  -39.6590 O   0  0  0  0  0  0  0  0  0  0  0  0
   93.6390  101.5490  -39.4700 C   0  0  0  0  0  0  0  0  0  0  0  0
   92.2690  101.2170  -40.0300 C   0  0  0  0  0  0  0  0  0  0  0  0
   91.2610   98.9410  -42.4040 C   0  0  0  0  0  0  0  0  0  0  0  0
   89.8920   98.2810  -42.6140 C   0  0  0  0  0  0  0  0  0  0  0  0
   86.6820  101.0240  -45.8430 H   0  0  0  0  0  0  0  0  0  0  0  0
   88.0016   97.8498  -49.1697 H   0  0  0  0  0  0  0  0  0  0  0  0
   88.1248   96.2378  -45.1612 H   0  0  0  0  0  0  0  0  0  0  0  0
   86.9029   99.1713  -43.5443 H   0  0  0  0  0  0  0  0  0  0  0  0
   87.7432   97.5653  -43.3385 H   0  0  0  0  0  0  0  0  0  0  0  0
   88.2501  101.1835  -42.9031 H   0  0  0  0  0  0  0  0  0  0  0  0
   87.8697   99.9604  -41.6139 H   0  0  0  0  0  0  0  0  0  0  0  0
   89.7781  101.9031  -41.3500 H   0  0  0  0  0  0  0  0  0  0  0  0
   89.8223  100.3190  -40.5033 H   0  0  0  0  0  0  0  0  0  0  0  0
   91.0571  100.9380  -43.2028 H   0  0  0  0  0  0  0  0  0  0  0  0
   93.1010  100.3020  -41.6790 H   0  0  0  0  0  0  0  0  0  0  0  0
   92.9723  102.0895  -43.2940 H   0  0  0  0  0  0  0  0  0  0  0  0
   92.1971  103.1029  -42.0286 H   0  0  0  0  0  0  0  0  0  0  0  0
   94.9712  101.8271  -41.9192 H   0  0  0  0  0  0  0  0  0  0  0  0
   94.5712  103.5866  -42.0948 H   0  0  0  0  0  0  0  0  0  0  0  0
   93.6116  103.6595  -39.9075 H   0  0  0  0  0  0  0  0  0  0  0  0
   95.6590  102.4430  -38.8290 H   0  0  0  0  0  0  0  0  0  0  0  0
   94.3102  100.6935  -39.6361 H   0  0  0  0  0  0  0  0  0  0  0  0
   93.5317  101.7589  -38.3956 H   0  0  0  0  0  0  0  0  0  0  0  0
   91.8953  100.2933  -39.5640 H   0  0  0  0  0  0  0  0  0  0  0  0
   91.5727  102.0409  -39.8145 H   0  0  0  0  0  0  0  0  0  0  0  0
   91.8922   98.7442  -43.2831 H   0  0  0  0  0  0  0  0  0  0  0  0
   91.7149   98.5173  -41.4960 H   0  0  0  0  0  0  0  0  0  0  0  0
   90.0025   97.4073  -43.2731 H   0  0  0  0  0  0  0  0  0  0  0  0
   89.4864   97.9570  -41.6442 H   0  0  0  0  0  0  0  0  0  0  0  0
  1  2  1  0
  2  3  2  0
  3  4  1  0
  3  5  1  0
  5  6  2  0
  6  7  1  0
  6  8  1  0
  8  9  2  0
  9 10  1  0
 10 11  1  0
 11 12  1  0
 12 13  1  0
 13 14  1  0
 14 15  1  0
 15 16  1  0
 16 17  1  0
 17 18  1  0
 18 19  1  0
 18 20  1  0
 20 21  1  0
 14 22  1  0
 22 23  1  0
  9  2  1  0
 23 11  1  0
 21 15  1  0
  1 24  1  0
  5 25  1  0
  8 26  1  0
 10 27  1  0
 10 28  1  0
 12 29  1  0
 12 30  1  0
 13 31  1  0
 13 32  1  0
 14 33  1  0
 15 34  1  1
 16 35  1  0
 16 36  1  0
 17 37  1  0
 17 38  1  0
 18 39  1  6
 19 40  1  0
 20 41  1  0
 20 42  1  0
 21 43  1  0
 21 44  1  0
 22 45  1  0
 22 46  1  0
 23 47  1  0
 23 48  1  0
M  CHG  1  15   1
M  END
>  <meeko>  (9) 
{"is_sidechain": [false], "free_energy": -5.114, "intermolecular_energy": -6.031, "internal_energy": -0.818}

$$$$
