2vw5_ligand
     RDKit          3D

 78 79  0  0  0  0  0  0  0  0999 V2000
   41.2090  -12.8970   31.3160 C   0  0  0  0  0  0  0  0  0  0  0  0
   41.8800  -11.9090   32.0870 O   0  0  0  0  0  0  0  0  0  0  0  0
   40.9850  -11.0210   32.7640 C   0  0  1  0  0  0  0  0  0  0  0  0
   39.9880  -11.8140   33.6530 C   0  0  0  0  0  0  0  0  0  0  0  0
   38.4860  -11.4250   33.7010 C   0  0  2  0  0  0  0  0  0  0  0  0
   38.2600   -9.9150   33.7870 C   0  0  0  0  0  0  0  0  0  0  0  0
   37.6720  -12.2880   34.7070 C   0  0  0  0  0  0  0  0  0  0  0  0
   37.1110  -11.5610   35.9050 C   0  0  0  0  0  0  0  0  0  0  0  0
   35.7360  -11.3510   36.0580 C   0  0  0  0  0  0  0  0  0  0  0  0
   35.2770  -10.5490   37.1010 C   0  0  0  0  0  0  0  0  0  0  0  0
   33.9450  -10.3050   37.2710 O   0  0  0  0  0  0  0  0  0  0  0  0
   36.1630   -9.9400   37.9880 C   0  0  0  0  0  0  0  0  0  0  0  0
   37.5330  -10.1690   37.8650 C   0  0  0  0  0  0  0  0  0  0  0  0
   37.9970  -10.9970   36.8370 C   0  0  0  0  0  0  0  0  0  0  0  0
   38.4170   -9.4450   38.6920 N   0  0  0  0  0  0  0  0  0  0  0  0
   39.2840  -10.0230   39.5910 C   0  0  0  0  0  0  0  0  0  0  0  0
   39.0660  -11.0270   40.2610 O   0  0  0  0  0  0  0  0  0  0  0  0
   40.6020   -9.3240   39.7160 C   0  0  0  0  0  0  0  0  0  0  0  0
   41.7310   -9.9490   38.9630 C   0  0  0  0  0  0  0  0  0  0  0  0
   40.5830   -8.1030   40.2910 C   0  0  0  0  0  0  0  0  0  0  0  0
   41.6360   -7.0330   40.1640 C   0  0  0  0  0  0  0  0  0  0  0  0
   41.0680   -5.9380   39.2460 C   0  0  0  0  0  0  0  0  0  0  0  0
   41.6930   -5.8790   37.8390 C   0  0  2  0  0  0  0  0  0  0  0  0
   41.8730   -4.4260   37.3790 C   0  0  0  0  0  0  0  0  0  0  0  0
   40.8310   -6.6770   36.8110 C   0  0  1  0  0  0  0  0  0  0  0  0
   40.2700   -5.7440   35.8670 O   0  0  0  0  0  0  0  0  0  0  0  0
   38.9350   -5.5630   35.9410 C   0  0  0  0  0  0  0  0  0  0  0  0
   38.3090   -6.7600   35.8930 N   0  0  0  0  0  0  0  0  0  0  0  0
   38.3390   -4.5020   36.0380 O   0  0  0  0  0  0  0  0  0  0  0  0
   41.6360   -7.7170   36.0250 C   0  0  0  0  0  0  0  0  0  0  0  0
   43.0590   -7.3430   35.6930 C   0  0  0  0  0  0  0  0  0  0  0  0
   41.0730   -8.9010   35.6920 C   0  0  0  0  0  0  0  0  0  0  0  0
   41.7670  -10.1040   35.0660 C   0  0  2  0  0  0  0  0  0  0  0  0
   43.1450  -10.2880   35.7080 C   0  0  0  0  0  0  0  0  0  0  0  0
   41.8390   -9.9500   33.5100 C   0  0  1  0  0  0  0  0  0  0  0  0
   43.1960  -10.0120   33.0570 O   0  0  0  0  0  0  0  0  0  0  0  0
   40.7199  -13.6171   31.9884 H   0  0  0  0  0  0  0  0  0  0  0  0
   40.4509  -12.4146   30.6815 H   0  0  0  0  0  0  0  0  0  0  0  0
   41.9369  -13.4238   30.6815 H   0  0  0  0  0  0  0  0  0  0  0  0
   40.3371  -10.4789   32.0595 H   0  0  0  0  0  0  0  0  0  0  0  0
   40.0309  -12.8604   33.3165 H   0  0  0  0  0  0  0  0  0  0  0  0
   40.3330  -11.5852   34.6721 H   0  0  0  0  0  0  0  0  0  0  0  0
   38.0550  -11.6895   32.7241 H   0  0  0  0  0  0  0  0  0  0  0  0
   38.2144   -9.6106   34.8431 H   0  0  0  0  0  0  0  0  0  0  0  0
   39.0897   -9.3912   33.2899 H   0  0  0  0  0  0  0  0  0  0  0  0
   37.3132   -9.6570   33.2899 H   0  0  0  0  0  0  0  0  0  0  0  0
   36.8287  -12.7353   34.1603 H   0  0  0  0  0  0  0  0  0  0  0  0
   38.3860  -13.0194   35.1135 H   0  0  0  0  0  0  0  0  0  0  0  0
   35.0232  -11.8153   35.3606 H   0  0  0  0  0  0  0  0  0  0  0  0
   33.5210  -11.1200   37.5850 H   0  0  0  0  0  0  0  0  0  0  0  0
   35.7828   -9.2809   38.7824 H   0  0  0  0  0  0  0  0  0  0  0  0
   39.0733  -11.2096   36.7576 H   0  0  0  0  0  0  0  0  0  0  0  0
   38.5400   -8.4650   38.4770 H   0  0  0  0  0  0  0  0  0  0  0  0
   42.4654  -10.3555   39.6740 H   0  0  0  0  0  0  0  0  0  0  0  0
   41.3444  -10.7616   38.3303 H   0  0  0  0  0  0  0  0  0  0  0  0
   42.2144   -9.1900   38.3303 H   0  0  0  0  0  0  0  0  0  0  0  0
   39.7097   -7.8649   40.9160 H   0  0  0  0  0  0  0  0  0  0  0  0
   41.8661   -6.6121   41.1539 H   0  0  0  0  0  0  0  0  0  0  0  0
   42.5645   -7.4486   39.7455 H   0  0  0  0  0  0  0  0  0  0  0  0
   39.9881   -6.1141   39.1326 H   0  0  0  0  0  0  0  0  0  0  0  0
   41.3058   -4.9785   39.7285 H   0  0  0  0  0  0  0  0  0  0  0  0
   42.6864   -6.3485   37.8923 H   0  0  0  0  0  0  0  0  0  0  0  0
   41.9542   -3.7704   38.2585 H   0  0  0  0  0  0  0  0  0  0  0  0
   42.7882   -4.3435   36.7744 H   0  0  0  0  0  0  0  0  0  0  0  0
   41.0056   -4.1227   36.7744 H   0  0  0  0  0  0  0  0  0  0  0  0
   40.0598   -7.2147   37.3820 H   0  0  0  0  0  0  0  0  0  0  0  0
   37.3140   -6.7870   36.0480 H   0  0  0  0  0  0  0  0  0  0  0  0
   38.8580   -7.6040   35.9420 H   0  0  0  0  0  0  0  0  0  0  0  0
   43.6257   -7.1941   36.6239 H   0  0  0  0  0  0  0  0  0  0  0  0
   43.5228   -8.1497   35.1065 H   0  0  0  0  0  0  0  0  0  0  0  0
   43.0662   -6.4125   35.1065 H   0  0  0  0  0  0  0  0  0  0  0  0
   39.9971   -9.0067   35.8953 H   0  0  0  0  0  0  0  0  0  0  0  0
   41.1844  -11.0165   35.2608 H   0  0  0  0  0  0  0  0  0  0  0  0
   43.0440  -10.2745   36.8033 H   0  0  0  0  0  0  0  0  0  0  0  0
   43.5716  -11.2511   35.3910 H   0  0  0  0  0  0  0  0  0  0  0  0
   43.8093   -9.4706   35.3910 H   0  0  0  0  0  0  0  0  0  0  0  0
   41.4168   -8.9625   33.2722 H   0  0  0  0  0  0  0  0  0  0  0  0
   43.7330  -10.3560   33.7910 H   0  0  0  0  0  0  0  0  0  0  0  0
  1  2  1  0
  2  3  1  0
  3  4  1  0
  4  5  1  0
  5  6  1  0
  5  7  1  0
  7  8  1  0
  8  9  2  0
  9 10  1  0
 10 11  1  0
 10 12  2  0
 12 13  1  0
 13 14  2  0
 13 15  1  0
 15 16  1  0
 16 17  2  0
 16 18  1  0
 18 19  1  0
 18 20  2  0
 20 21  1  0
 21 22  1  0
 22 23  1  0
 23 24  1  0
 23 25  1  0
 25 26  1  0
 26 27  1  0
 27 28  1  0
 27 29  2  0
 25 30  1  0
 30 31  1  0
 30 32  2  0
 32 33  1  0
 33 34  1  0
 33 35  1  0
 35 36  1  0
 35  3  1  0
 14  8  1  0
  1 37  1  0
  1 38  1  0
  1 39  1  0
  3 40  1  6
  4 41  1  0
  4 42  1  0
  5 43  1  6
  6 44  1  0
  6 45  1  0
  6 46  1  0
  7 47  1  0
  7 48  1  0
  9 49  1  0
 11 50  1  0
 12 51  1  0
 14 52  1  0
 15 53  1  0
 19 54  1  0
 19 55  1  0
 19 56  1  0
 20 57  1  0
 21 58  1  0
 21 59  1  0
 22 60  1  0
 22 61  1  0
 23 62  1  1
 24 63  1  0
 24 64  1  0
 24 65  1  0
 25 66  1  1
 28 67  1  0
 28 68  1  0
 31 69  1  0
 31 70  1  0
 31 71  1  0
 32 72  1  0
 33 73  1  6
 34 74  1  0
 34 75  1  0
 34 76  1  0
 35 77  1  1
 36 78  1  0
M  END
>  <meeko>  (1) 
{"is_sidechain": [false], "free_energy": -6.22, "intermolecular_energy": -12.401, "internal_energy": -2.604}

$$$$
2vw5_ligand
     RDKit          3D

 78 79  0  0  0  0  0  0  0  0999 V2000
   42.0350  -12.2800   33.6580 C   0  0  0  0  0  0  0  0  0  0  0  0
   42.3680  -10.9140   33.4430 O   0  0  0  0  0  0  0  0  0  0  0  0
   41.3060  -10.0170   33.7810 C   0  0  1  0  0  0  0  0  0  0  0  0
   40.2400  -10.7300   34.6580 C   0  0  0  0  0  0  0  0  0  0  0  0
   38.7560  -10.7980   34.2030 C   0  0  2  0  0  0  0  0  0  0  0  0
   38.1410   -9.4190   33.9600 C   0  0  0  0  0  0  0  0  0  0  0  0
   37.9060  -11.7750   35.0650 C   0  0  0  0  0  0  0  0  0  0  0  0
   37.2090  -11.1720   36.2610 C   0  0  0  0  0  0  0  0  0  0  0  0
   35.8150  -11.0840   36.3300 C   0  0  0  0  0  0  0  0  0  0  0  0
   35.2230  -10.3890   37.3830 C   0  0  0  0  0  0  0  0  0  0  0  0
   33.8670  -10.2640   37.4740 O   0  0  0  0  0  0  0  0  0  0  0  0
   35.9950   -9.7690   38.3630 C   0  0  0  0  0  0  0  0  0  0  0  0
   37.3850   -9.8770   38.3220 C   0  0  0  0  0  0  0  0  0  0  0  0
   37.9830  -10.5990   37.2830 C   0  0  0  0  0  0  0  0  0  0  0  0
   38.1490   -9.1390   39.2500 N   0  0  0  0  0  0  0  0  0  0  0  0
   39.3140   -9.5890   39.8250 C   0  0  0  0  0  0  0  0  0  0  0  0
   39.5570  -10.7460   40.1540 O   0  0  0  0  0  0  0  0  0  0  0  0
   40.3490   -8.5280   40.0420 C   0  0  0  0  0  0  0  0  0  0  0  0
   41.7540   -9.0210   40.1570 C   0  0  0  0  0  0  0  0  0  0  0  0
   39.9430   -7.2520   39.8810 C   0  0  0  0  0  0  0  0  0  0  0  0
   40.8210   -6.0560   39.6190 C   0  0  0  0  0  0  0  0  0  0  0  0
   39.9500   -4.9890   38.9340 C   0  0  0  0  0  0  0  0  0  0  0  0
   40.6040   -4.2950   37.7230 C   0  0  2  0  0  0  0  0  0  0  0  0
   40.4240   -2.7740   37.8010 C   0  0  0  0  0  0  0  0  0  0  0  0
   40.0240   -4.8490   36.3830 C   0  0  1  0  0  0  0  0  0  0  0  0
   40.7980   -4.3060   35.2950 O   0  0  0  0  0  0  0  0  0  0  0  0
   40.1130   -3.5740   34.3920 C   0  0  0  0  0  0  0  0  0  0  0  0
   40.8630   -3.4020   33.2810 N   0  0  0  0  0  0  0  0  0  0  0  0
   38.9880   -3.1180   34.5160 O   0  0  0  0  0  0  0  0  0  0  0  0
   40.0800   -6.3760   36.2860 C   0  0  0  0  0  0  0  0  0  0  0  0
   38.7520   -7.0910   36.3030 C   0  0  0  0  0  0  0  0  0  0  0  0
   41.2700   -7.0060   36.1640 C   0  0  0  0  0  0  0  0  0  0  0  0
   41.5030   -8.4870   35.8910 C   0  0  2  0  0  0  0  0  0  0  0  0
   42.5330   -9.0320   36.8840 C   0  0  0  0  0  0  0  0  0  0  0  0
   41.9200   -8.7120   34.3990 C   0  0  1  0  0  0  0  0  0  0  0  0
   43.3460   -8.7440   34.2710 O   0  0  0  0  0  0  0  0  0  0  0  0
   41.9863  -12.4798   34.7386 H   0  0  0  0  0  0  0  0  0  0  0  0
   41.0580  -12.4956   33.2008 H   0  0  0  0  0  0  0  0  0  0  0  0
   42.8032  -12.9210   33.2008 H   0  0  0  0  0  0  0  0  0  0  0  0
   40.7508   -9.7017   32.8853 H   0  0  0  0  0  0  0  0  0  0  0  0
   40.5788  -11.7692   34.7817 H   0  0  0  0  0  0  0  0  0  0  0  0
   40.1932  -10.0932   35.5537 H   0  0  0  0  0  0  0  0  0  0  0  0
   38.7464  -11.2588   33.2042 H   0  0  0  0  0  0  0  0  0  0  0  0
   37.9264   -8.9379   34.9257 H   0  0  0  0  0  0  0  0  0  0  0  0
   38.8474   -8.7978   33.3898 H   0  0  0  0  0  0  0  0  0  0  0  0
   37.2068   -9.5294   33.3898 H   0  0  0  0  0  0  0  0  0  0  0  0
   37.1361  -12.2146   34.4138 H   0  0  0  0  0  0  0  0  0  0  0  0
   38.6201  -12.5038   35.4759 H   0  0  0  0  0  0  0  0  0  0  0  0
   35.1907  -11.5596   35.5592 H   0  0  0  0  0  0  0  0  0  0  0  0
   33.5070  -11.0890   37.8380 H   0  0  0  0  0  0  0  0  0  0  0  0
   35.5097   -9.1959   39.1668 H   0  0  0  0  0  0  0  0  0  0  0  0
   39.0763  -10.7195   37.2666 H   0  0  0  0  0  0  0  0  0  0  0  0
   37.9180   -8.1600   39.3510 H   0  0  0  0  0  0  0  0  0  0  0  0
   42.0236   -9.1156   41.2192 H   0  0  0  0  0  0  0  0  0  0  0  0
   41.8393  -10.0028   39.6682 H   0  0  0  0  0  0  0  0  0  0  0  0
   42.4340   -8.3078   39.6682 H   0  0  0  0  0  0  0  0  0  0  0  0
   38.8610   -7.0656   39.9478 H   0  0  0  0  0  0  0  0  0  0  0  0
   41.2178   -5.6655   40.5677 H   0  0  0  0  0  0  0  0  0  0  0  0
   41.6730   -6.3314   38.9801 H   0  0  0  0  0  0  0  0  0  0  0  0
   39.0237   -5.4731   38.5909 H   0  0  0  0  0  0  0  0  0  0  0  0
   39.7793   -4.2029   39.6842 H   0  0  0  0  0  0  0  0  0  0  0  0
   41.6814   -4.5154   37.7484 H   0  0  0  0  0  0  0  0  0  0  0  0
   40.3872   -2.4627   38.8554 H   0  0  0  0  0  0  0  0  0  0  0  0
   41.2698   -2.2786   37.3018 H   0  0  0  0  0  0  0  0  0  0  0  0
   39.4859   -2.4897   37.3018 H   0  0  0  0  0  0  0  0  0  0  0  0
   38.9660   -4.5513   36.3384 H   0  0  0  0  0  0  0  0  0  0  0  0
   40.4370   -2.9660   32.4790 H   0  0  0  0  0  0  0  0  0  0  0  0
   41.7290   -3.9090   33.1890 H   0  0  0  0  0  0  0  0  0  0  0  0
   38.4395   -7.2593   37.3442 H   0  0  0  0  0  0  0  0  0  0  0  0
   37.9982   -6.4768   35.7886 H   0  0  0  0  0  0  0  0  0  0  0  0
   38.8498   -8.0584   35.7886 H   0  0  0  0  0  0  0  0  0  0  0  0
   42.1685   -6.3810   36.2739 H   0  0  0  0  0  0  0  0  0  0  0  0
   40.5687   -9.0481   36.0400 H   0  0  0  0  0  0  0  0  0  0  0  0
   42.1851   -8.8479   37.9112 H   0  0  0  0  0  0  0  0  0  0  0  0
   42.6569  -10.1137   36.7271 H   0  0  0  0  0  0  0  0  0  0  0  0
   43.4970   -8.5260   36.7271 H   0  0  0  0  0  0  0  0  0  0  0  0
   41.5142   -7.8593   33.8350 H   0  0  0  0  0  0  0  0  0  0  0  0
   43.6630   -9.5370   34.7370 H   0  0  0  0  0  0  0  0  0  0  0  0
  1  2  1  0
  2  3  1  0
  3  4  1  0
  4  5  1  0
  5  6  1  0
  5  7  1  0
  7  8  1  0
  8  9  2  0
  9 10  1  0
 10 11  1  0
 10 12  2  0
 12 13  1  0
 13 14  2  0
 13 15  1  0
 15 16  1  0
 16 17  2  0
 16 18  1  0
 18 19  1  0
 18 20  2  0
 20 21  1  0
 21 22  1  0
 22 23  1  0
 23 24  1  0
 23 25  1  0
 25 26  1  0
 26 27  1  0
 27 28  1  0
 27 29  2  0
 25 30  1  0
 30 31  1  0
 30 32  2  0
 32 33  1  0
 33 34  1  0
 33 35  1  0
 35 36  1  0
 35  3  1  0
 14  8  1  0
  1 37  1  0
  1 38  1  0
  1 39  1  0
  3 40  1  6
  4 41  1  0
  4 42  1  0
  5 43  1  6
  6 44  1  0
  6 45  1  0
  6 46  1  0
  7 47  1  0
  7 48  1  0
  9 49  1  0
 11 50  1  0
 12 51  1  0
 14 52  1  0
 15 53  1  0
 19 54  1  0
 19 55  1  0
 19 56  1  0
 20 57  1  0
 21 58  1  0
 21 59  1  0
 22 60  1  0
 22 61  1  0
 23 62  1  6
 24 63  1  0
 24 64  1  0
 24 65  1  0
 25 66  1  6
 28 67  1  0
 28 68  1  0
 31 69  1  0
 31 70  1  0
 31 71  1  0
 32 72  1  0
 33 73  1  1
 34 74  1  0
 34 75  1  0
 34 76  1  0
 35 77  1  6
 36 78  1  0
M  END
>  <meeko>  (2) 
{"is_sidechain": [false], "free_energy": -6.143, "intermolecular_energy": -11.81, "internal_energy": -3.042}

$$$$
2vw5_ligand
     RDKit          3D

 78 79  0  0  0  0  0  0  0  0999 V2000
   40.0790   -4.6280   40.0300 C   0  0  0  0  0  0  0  0  0  0  0  0
   40.8950   -4.7550   38.8730 O   0  0  0  0  0  0  0  0  0  0  0  0
   41.5270   -6.0340   38.7690 C   0  0  1  0  0  0  0  0  0  0  0  0
   40.5920   -7.1570   39.2980 C   0  0  0  0  0  0  0  0  0  0  0  0
   41.1190   -8.2210   40.2980 C   0  0  2  0  0  0  0  0  0  0  0  0
   42.6190   -8.0980   40.5690 C   0  0  0  0  0  0  0  0  0  0  0  0
   40.6060   -9.6550   39.9780 C   0  0  0  0  0  0  0  0  0  0  0  0
   39.2730   -9.7420   39.2750 C   0  0  0  0  0  0  0  0  0  0  0  0
   38.0670   -9.6190   39.9730 C   0  0  0  0  0  0  0  0  0  0  0  0
   36.8640   -9.8530   39.3090 C   0  0  0  0  0  0  0  0  0  0  0  0
   35.6680   -9.7640   39.9610 O   0  0  0  0  0  0  0  0  0  0  0  0
   36.8400  -10.2180   37.9650 C   0  0  0  0  0  0  0  0  0  0  0  0
   38.0340  -10.3110   37.2510 C   0  0  0  0  0  0  0  0  0  0  0  0
   39.2430  -10.0490   37.9050 C   0  0  0  0  0  0  0  0  0  0  0  0
   37.9950  -10.8030   35.9290 N   0  0  0  0  0  0  0  0  0  0  0  0
   38.1870  -10.0270   34.8090 C   0  0  0  0  0  0  0  0  0  0  0  0
   37.8200   -8.8660   34.6630 O   0  0  0  0  0  0  0  0  0  0  0  0
   38.9230  -10.7130   33.7000 C   0  0  0  0  0  0  0  0  0  0  0  0
   38.9060  -10.0010   32.3860 C   0  0  0  0  0  0  0  0  0  0  0  0
   39.7020  -11.7570   34.0500 C   0  0  0  0  0  0  0  0  0  0  0  0
   40.8420  -12.3360   33.2540 C   0  0  0  0  0  0  0  0  0  0  0  0
   42.1380  -11.6890   33.7700 C   0  0  0  0  0  0  0  0  0  0  0  0
   42.3960  -10.2560   33.2640 C   0  0  2  0  0  0  0  0  0  0  0  0
   43.0590  -10.2740   31.8810 C   0  0  0  0  0  0  0  0  0  0  0  0
   43.2690   -9.4540   34.2810 C   0  0  1  0  0  0  0  0  0  0  0  0
   43.8510   -8.3300   33.5920 O   0  0  0  0  0  0  0  0  0  0  0  0
   45.1190   -8.0220   33.9340 C   0  0  0  0  0  0  0  0  0  0  0  0
   45.8630   -9.1490   33.9830 N   0  0  0  0  0  0  0  0  0  0  0  0
   45.5700   -6.9130   34.1690 O   0  0  0  0  0  0  0  0  0  0  0  0
   42.4690   -8.9160   35.4720 C   0  0  0  0  0  0  0  0  0  0  0  0
   42.6130   -9.6770   36.7660 C   0  0  0  0  0  0  0  0  0  0  0  0
   41.7130   -7.8030   35.3340 C   0  0  0  0  0  0  0  0  0  0  0  0
   40.9930   -7.0400   36.4390 C   0  0  2  0  0  0  0  0  0  0  0  0
   39.9070   -6.1560   35.8210 C   0  0  0  0  0  0  0  0  0  0  0  0
   42.0160   -6.2290   37.3040 C   0  0  1  0  0  0  0  0  0  0  0  0
   42.2780   -4.9520   36.7140 O   0  0  0  0  0  0  0  0  0  0  0  0
   40.7026   -4.7251   40.9309 H   0  0  0  0  0  0  0  0  0  0  0  0
   39.5896   -3.6429   40.0272 H   0  0  0  0  0  0  0  0  0  0  0  0
   39.3134   -5.4178   40.0272 H   0  0  0  0  0  0  0  0  0  0  0  0
   42.4169   -6.0905   39.4132 H   0  0  0  0  0  0  0  0  0  0  0  0
   39.7456   -6.6554   39.7899 H   0  0  0  0  0  0  0  0  0  0  0  0
   40.3856   -7.7501   38.3949 H   0  0  0  0  0  0  0  0  0  0  0  0
   40.6663   -7.9950   41.2747 H   0  0  0  0  0  0  0  0  0  0  0  0
   42.7955   -8.0835   41.6547 H   0  0  0  0  0  0  0  0  0  0  0  0
   43.1436   -8.9561   40.1236 H   0  0  0  0  0  0  0  0  0  0  0  0
   42.9968   -7.1659   40.1236 H   0  0  0  0  0  0  0  0  0  0  0  0
   41.3554  -10.1453   39.3393 H   0  0  0  0  0  0  0  0  0  0  0  0
   40.4576  -10.1403   40.9539 H   0  0  0  0  0  0  0  0  0  0  0  0
   38.0680   -9.3399   41.0370 H   0  0  0  0  0  0  0  0  0  0  0  0
   35.0200  -10.3140   39.4900 H   0  0  0  0  0  0  0  0  0  0  0  0
   35.8821  -10.4322   37.4685 H   0  0  0  0  0  0  0  0  0  0  0  0
   40.1845  -10.0841   37.3372 H   0  0  0  0  0  0  0  0  0  0  0  0
   38.0080  -11.8070   35.8180 H   0  0  0  0  0  0  0  0  0  0  0  0
   38.8801   -8.9148   32.5578 H   0  0  0  0  0  0  0  0  0  0  0  0
   39.8106  -10.2606   31.8165 H   0  0  0  0  0  0  0  0  0  0  0  0
   38.0148  -10.3035   31.8165 H   0  0  0  0  0  0  0  0  0  0  0  0
   39.4821  -12.2347   35.0162 H   0  0  0  0  0  0  0  0  0  0  0  0
   40.8838  -13.4261   33.3953 H   0  0  0  0  0  0  0  0  0  0  0  0
   40.7080  -12.1351   32.1808 H   0  0  0  0  0  0  0  0  0  0  0  0
   42.0911  -11.6599   34.8686 H   0  0  0  0  0  0  0  0  0  0  0  0
   42.9640  -12.3048   33.3847 H   0  0  0  0  0  0  0  0  0  0  0  0
   41.4232   -9.7507   33.1722 H   0  0  0  0  0  0  0  0  0  0  0  0
   44.1523  -10.3037   31.9988 H   0  0  0  0  0  0  0  0  0  0  0  0
   42.7257  -11.1634   31.3262 H   0  0  0  0  0  0  0  0  0  0  0  0
   42.7745   -9.3678   31.3262 H   0  0  0  0  0  0  0  0  0  0  0  0
   44.0277  -10.1460   34.6753 H   0  0  0  0  0  0  0  0  0  0  0  0
   46.8580   -9.0600   34.1200 H   0  0  0  0  0  0  0  0  0  0  0  0
   45.4670  -10.0150   33.6550 H   0  0  0  0  0  0  0  0  0  0  0  0
   42.4826   -8.9877   37.6132 H   0  0  0  0  0  0  0  0  0  0  0  0
   41.8482  -10.4662   36.8143 H   0  0  0  0  0  0  0  0  0  0  0  0
   43.6132  -10.1322   36.8143 H   0  0  0  0  0  0  0  0  0  0  0  0
   41.6064   -7.4057   34.3138 H   0  0  0  0  0  0  0  0  0  0  0  0
   40.4991   -7.7456   37.1232 H   0  0  0  0  0  0  0  0  0  0  0  0
   39.3221   -5.6799   36.6218 H   0  0  0  0  0  0  0  0  0  0  0  0
   40.3762   -5.3799   35.1986 H   0  0  0  0  0  0  0  0  0  0  0  0
   39.2422   -6.7730   35.1986 H   0  0  0  0  0  0  0  0  0  0  0  0
   42.9433   -6.8200   37.3319 H   0  0  0  0  0  0  0  0  0  0  0  0
   41.6250   -4.3260   37.0700 H   0  0  0  0  0  0  0  0  0  0  0  0
  1  2  1  0
  2  3  1  0
  3  4  1  0
  4  5  1  0
  5  6  1  0
  5  7  1  0
  7  8  1  0
  8  9  2  0
  9 10  1  0
 10 11  1  0
 10 12  2  0
 12 13  1  0
 13 14  2  0
 13 15  1  0
 15 16  1  0
 16 17  2  0
 16 18  1  0
 18 19  1  0
 18 20  2  0
 20 21  1  0
 21 22  1  0
 22 23  1  0
 23 24  1  0
 23 25  1  0
 25 26  1  0
 26 27  1  0
 27 28  1  0
 27 29  2  0
 25 30  1  0
 30 31  1  0
 30 32  2  0
 32 33  1  0
 33 34  1  0
 33 35  1  0
 35 36  1  0
 35  3  1  0
 14  8  1  0
  1 37  1  0
  1 38  1  0
  1 39  1  0
  3 40  1  1
  4 41  1  0
  4 42  1  0
  5 43  1  1
  6 44  1  0
  6 45  1  0
  6 46  1  0
  7 47  1  0
  7 48  1  0
  9 49  1  0
 11 50  1  0
 12 51  1  0
 14 52  1  0
 15 53  1  0
 19 54  1  0
 19 55  1  0
 19 56  1  0
 20 57  1  0
 21 58  1  0
 21 59  1  0
 22 60  1  0
 22 61  1  0
 23 62  1  6
 24 63  1  0
 24 64  1  0
 24 65  1  0
 25 66  1  1
 28 67  1  0
 28 68  1  0
 31 69  1  0
 31 70  1  0
 31 71  1  0
 32 72  1  0
 33 73  1  1
 34 74  1  0
 34 75  1  0
 34 76  1  0
 35 77  1  1
 36 78  1  0
M  END
>  <meeko>  (3) 
{"is_sidechain": [false], "free_energy": -5.737, "intermolecular_energy": -10.566, "internal_energy": -3.476}

$$$$
2vw5_ligand
     RDKit          3D

 78 79  0  0  0  0  0  0  0  0999 V2000
   41.9260  -10.8470   37.8680 C   0  0  0  0  0  0  0  0  0  0  0  0
   42.3520   -9.8490   38.7870 O   0  0  0  0  0  0  0  0  0  0  0  0
   41.3810   -8.8170   38.9860 C   0  0  1  0  0  0  0  0  0  0  0  0
   40.5020   -9.1190   40.2320 C   0  0  0  0  0  0  0  0  0  0  0  0
   39.0290   -9.5810   40.0690 C   0  0  2  0  0  0  0  0  0  0  0  0
   38.8780  -11.1020   40.0300 C   0  0  0  0  0  0  0  0  0  0  0  0
   38.2710   -8.7980   38.9590 C   0  0  0  0  0  0  0  0  0  0  0  0
   37.5870   -9.6350   37.9040 C   0  0  0  0  0  0  0  0  0  0  0  0
   36.2680  -10.0720   38.0580 C   0  0  0  0  0  0  0  0  0  0  0  0
   35.7290  -10.9620   37.1300 C   0  0  0  0  0  0  0  0  0  0  0  0
   34.4520  -11.4280   37.2570 O   0  0  0  0  0  0  0  0  0  0  0  0
   36.4840  -11.4340   36.0590 C   0  0  0  0  0  0  0  0  0  0  0  0
   37.7890  -10.9790   35.8780 C   0  0  0  0  0  0  0  0  0  0  0  0
   38.3260  -10.0630   36.7900 C   0  0  0  0  0  0  0  0  0  0  0  0
   38.5750  -11.5640   34.8630 N   0  0  0  0  0  0  0  0  0  0  0  0
   39.1800  -10.8570   33.8490 C   0  0  0  0  0  0  0  0  0  0  0  0
   38.7230   -9.8690   33.2840 O   0  0  0  0  0  0  0  0  0  0  0  0
   40.5220  -11.3840   33.4420 C   0  0  0  0  0  0  0  0  0  0  0  0
   40.7300  -11.5330   31.9700 C   0  0  0  0  0  0  0  0  0  0  0  0
   41.4610  -11.4470   34.4080 C   0  0  0  0  0  0  0  0  0  0  0  0
   42.9520  -11.5200   34.2090 C   0  0  0  0  0  0  0  0  0  0  0  0
   43.5370  -10.1580   34.6220 C   0  0  0  0  0  0  0  0  0  0  0  0
   43.2230   -8.9970   33.6590 C   0  0  2  0  0  0  0  0  0  0  0  0
   44.1290   -9.0500   32.4220 C   0  0  0  0  0  0  0  0  0  0  0  0
   43.3610   -7.6190   34.3810 C   0  0  1  0  0  0  0  0  0  0  0  0
   43.2760   -6.5760   33.3910 O   0  0  0  0  0  0  0  0  0  0  0  0
   44.3030   -5.7010   33.3680 C   0  0  0  0  0  0  0  0  0  0  0  0
   43.8920   -4.5030   33.8390 N   0  0  0  0  0  0  0  0  0  0  0  0
   45.4440   -5.9140   32.9900 O   0  0  0  0  0  0  0  0  0  0  0  0
   42.2660   -7.3710   35.4240 C   0  0  0  0  0  0  0  0  0  0  0  0
   40.8960   -7.9020   35.0870 C   0  0  0  0  0  0  0  0  0  0  0  0
   42.5620   -6.7320   36.5790 C   0  0  0  0  0  0  0  0  0  0  0  0
   41.6500   -6.5480   37.7850 C   0  0  2  0  0  0  0  0  0  0  0  0
   41.5860   -5.0630   38.1530 C   0  0  0  0  0  0  0  0  0  0  0  0
   42.1250   -7.4470   38.9770 C   0  0  1  0  0  0  0  0  0  0  0  0
   41.9390   -6.7730   40.2250 O   0  0  0  0  0  0  0  0  0  0  0  0
   41.5530  -11.7208   38.4224 H   0  0  0  0  0  0  0  0  0  0  0  0
   41.1217  -10.4435   37.2353 H   0  0  0  0  0  0  0  0  0  0  0  0
   42.7738  -11.1487   37.2353 H   0  0  0  0  0  0  0  0  0  0  0  0
   40.6463   -8.7713   38.1687 H   0  0  0  0  0  0  0  0  0  0  0  0
   41.0185   -9.9090   40.7970 H   0  0  0  0  0  0  0  0  0  0  0  0
   40.3985   -8.1311   40.7046 H   0  0  0  0  0  0  0  0  0  0  0  0
   38.5009   -9.2989   40.9918 H   0  0  0  0  0  0  0  0  0  0  0  0
   38.8392  -11.4931   41.0574 H   0  0  0  0  0  0  0  0  0  0  0  0
   37.9493  -11.3649   39.5023 H   0  0  0  0  0  0  0  0  0  0  0  0
   39.7368  -11.5423   39.5023 H   0  0  0  0  0  0  0  0  0  0  0  0
   37.5032   -8.1805   39.4480 H   0  0  0  0  0  0  0  0  0  0  0  0
   39.0414   -8.2220   38.4254 H   0  0  0  0  0  0  0  0  0  0  0  0
   35.6609   -9.7168   38.9037 H   0  0  0  0  0  0  0  0  0  0  0  0
   33.9900  -10.8820   37.9150 H   0  0  0  0  0  0  0  0  0  0  0  0
   36.0518  -12.1635   35.3583 H   0  0  0  0  0  0  0  0  0  0  0  0
   39.3422   -9.6728   36.6314 H   0  0  0  0  0  0  0  0  0  0  0  0
   38.8510  -12.5260   35.0000 H   0  0  0  0  0  0  0  0  0  0  0  0
   41.6117  -12.1646   31.7864 H   0  0  0  0  0  0  0  0  0  0  0  0
   39.8427  -12.0022   31.5199 H   0  0  0  0  0  0  0  0  0  0  0  0
   40.8888  -10.5419   31.5199 H   0  0  0  0  0  0  0  0  0  0  0  0
   41.1011  -11.4448   35.4474 H   0  0  0  0  0  0  0  0  0  0  0  0
   43.3767  -12.3177   34.8362 H   0  0  0  0  0  0  0  0  0  0  0  0
   43.1939  -11.7453   33.1598 H   0  0  0  0  0  0  0  0  0  0  0  0
   43.1335   -9.8991   35.6120 H   0  0  0  0  0  0  0  0  0  0  0  0
   44.6305  -10.2774   34.6144 H   0  0  0  0  0  0  0  0  0  0  0  0
   42.1802   -9.1083   33.3270 H   0  0  0  0  0  0  0  0  0  0  0  0
   45.1803   -9.1115   32.7399 H   0  0  0  0  0  0  0  0  0  0  0  0
   43.8757   -9.9349   31.8196 H   0  0  0  0  0  0  0  0  0  0  0  0
   43.9806   -8.1416   31.8196 H   0  0  0  0  0  0  0  0  0  0  0  0
   44.3273   -7.6230   34.9067 H   0  0  0  0  0  0  0  0  0  0  0  0
   44.5820   -3.7820   33.9810 H   0  0  0  0  0  0  0  0  0  0  0  0
   42.9770   -4.4250   34.2540 H   0  0  0  0  0  0  0  0  0  0  0  0
   40.3466   -8.1149   36.0159 H   0  0  0  0  0  0  0  0  0  0  0  0
   40.3463   -7.1518   34.4996 H   0  0  0  0  0  0  0  0  0  0  0  0
   40.9954   -8.8267   34.4996 H   0  0  0  0  0  0  0  0  0  0  0  0
   43.5701   -6.2985   36.6555 H   0  0  0  0  0  0  0  0  0  0  0  0
   40.6294   -6.8745   37.5366 H   0  0  0  0  0  0  0  0  0  0  0  0
   41.5814   -4.9564   39.2478 H   0  0  0  0  0  0  0  0  0  0  0  0
   42.4626   -4.5442   37.7378 H   0  0  0  0  0  0  0  0  0  0  0  0
   40.6680   -4.6216   37.7378 H   0  0  0  0  0  0  0  0  0  0  0  0
   43.1985   -7.6430   38.8386 H   0  0  0  0  0  0  0  0  0  0  0  0
   41.2940   -7.2860   40.7420 H   0  0  0  0  0  0  0  0  0  0  0  0
  1  2  1  0
  2  3  1  0
  3  4  1  0
  4  5  1  0
  5  6  1  0
  5  7  1  0
  7  8  1  0
  8  9  2  0
  9 10  1  0
 10 11  1  0
 10 12  2  0
 12 13  1  0
 13 14  2  0
 13 15  1  0
 15 16  1  0
 16 17  2  0
 16 18  1  0
 18 19  1  0
 18 20  2  0
 20 21  1  0
 21 22  1  0
 22 23  1  0
 23 24  1  0
 23 25  1  0
 25 26  1  0
 26 27  1  0
 27 28  1  0
 27 29  2  0
 25 30  1  0
 30 31  1  0
 30 32  2  0
 32 33  1  0
 33 34  1  0
 33 35  1  0
 35 36  1  0
 35  3  1  0
 14  8  1  0
  1 37  1  0
  1 38  1  0
  1 39  1  0
  3 40  1  6
  4 41  1  0
  4 42  1  0
  5 43  1  1
  6 44  1  0
  6 45  1  0
  6 46  1  0
  7 47  1  0
  7 48  1  0
  9 49  1  0
 11 50  1  0
 12 51  1  0
 14 52  1  0
 15 53  1  0
 19 54  1  0
 19 55  1  0
 19 56  1  0
 20 57  1  0
 21 58  1  0
 21 59  1  0
 22 60  1  0
 22 61  1  0
 23 62  1  6
 24 63  1  0
 24 64  1  0
 24 65  1  0
 25 66  1  1
 28 67  1  0
 28 68  1  0
 31 69  1  0
 31 70  1  0
 31 71  1  0
 32 72  1  0
 33 73  1  6
 34 74  1  0
 34 75  1  0
 34 76  1  0
 35 77  1  6
 36 78  1  0
M  END
>  <meeko>  (4) 
{"is_sidechain": [false], "free_energy": -5.662, "intermolecular_energy": -10.839, "internal_energy": -3.054}

$$$$
2vw5_ligand
     RDKit          3D

 78 79  0  0  0  0  0  0  0  0999 V2000
   45.6270   -5.6210   34.0310 C   0  0  0  0  0  0  0  0  0  0  0  0
   44.2340   -5.4360   34.2500 O   0  0  0  0  0  0  0  0  0  0  0  0
   43.5040   -6.6660   34.2930 C   0  0  1  0  0  0  0  0  0  0  0  0
   44.3790   -7.8060   34.8860 C   0  0  0  0  0  0  0  0  0  0  0  0
   44.5670   -9.1420   34.1170 C   0  0  2  0  0  0  0  0  0  0  0  0
   46.0230   -9.4120   33.7340 C   0  0  0  0  0  0  0  0  0  0  0  0
   43.5220   -9.3360   32.9810 C   0  0  0  0  0  0  0  0  0  0  0  0
   42.4070  -10.3140   33.2650 C   0  0  0  0  0  0  0  0  0  0  0  0
   42.3280  -11.5460   32.6090 C   0  0  0  0  0  0  0  0  0  0  0  0
   41.2040  -12.3500   32.7930 C   0  0  0  0  0  0  0  0  0  0  0  0
   41.0810  -13.5500   32.1540 O   0  0  0  0  0  0  0  0  0  0  0  0
   40.1510  -11.9430   33.6100 C   0  0  0  0  0  0  0  0  0  0  0  0
   40.2340  -10.7310   34.2950 C   0  0  0  0  0  0  0  0  0  0  0  0
   41.3730   -9.9340   34.1360 C   0  0  0  0  0  0  0  0  0  0  0  0
   39.1070  -10.2820   35.0140 N   0  0  0  0  0  0  0  0  0  0  0  0
   38.1460  -11.1130   35.5440 C   0  0  0  0  0  0  0  0  0  0  0  0
   37.7340  -12.1530   35.0410 O   0  0  0  0  0  0  0  0  0  0  0  0
   37.5910  -10.6590   36.8580 C   0  0  0  0  0  0  0  0  0  0  0  0
   36.1060  -10.7570   36.9930 C   0  0  0  0  0  0  0  0  0  0  0  0
   38.4860  -10.4340   37.8430 C   0  0  0  0  0  0  0  0  0  0  0  0
   38.2040  -10.3930   39.3220 C   0  0  0  0  0  0  0  0  0  0  0  0
   39.4910   -9.9260   40.0220 C   0  0  0  0  0  0  0  0  0  0  0  0
   40.6380   -9.5240   39.0730 C   0  0  2  0  0  0  0  0  0  0  0  0
   41.8630  -10.4220   39.2820 C   0  0  0  0  0  0  0  0  0  0  0  0
   41.0190   -8.0220   39.2660 C   0  0  1  0  0  0  0  0  0  0  0  0
   42.3390   -7.9580   39.8410 O   0  0  0  0  0  0  0  0  0  0  0  0
   42.4040   -7.5370   41.1210 C   0  0  0  0  0  0  0  0  0  0  0  0
   42.6580   -6.2100   41.1520 N   0  0  0  0  0  0  0  0  0  0  0  0
   42.2600   -8.2130   42.1270 O   0  0  0  0  0  0  0  0  0  0  0  0
   41.0370   -7.2300   37.9550 C   0  0  0  0  0  0  0  0  0  0  0  0
   39.7380   -7.1810   37.1910 C   0  0  0  0  0  0  0  0  0  0  0  0
   42.1670   -6.6020   37.5570 C   0  0  0  0  0  0  0  0  0  0  0  0
   42.3190   -5.6430   36.3820 C   0  0  2  0  0  0  0  0  0  0  0  0
   41.3400   -4.4780   36.5450 C   0  0  0  0  0  0  0  0  0  0  0  0
   42.1370   -6.4030   35.0250 C   0  0  1  0  0  0  0  0  0  0  0  0
   41.2550   -5.6840   34.1570 O   0  0  0  0  0  0  0  0  0  0  0  0
   46.1444   -5.6897   34.9993 H   0  0  0  0  0  0  0  0  0  0  0  0
   45.7887   -6.5485   33.4622 H   0  0  0  0  0  0  0  0  0  0  0  0
   46.0252   -4.7679   33.4622 H   0  0  0  0  0  0  0  0  0  0  0  0
   43.2525   -7.0281   33.2852 H   0  0  0  0  0  0  0  0  0  0  0  0
   45.3843   -7.3853   35.0355 H   0  0  0  0  0  0  0  0  0  0  0  0
   43.8113   -8.1132   35.7767 H   0  0  0  0  0  0  0  0  0  0  0  0
   44.3359   -9.9541   34.8221 H   0  0  0  0  0  0  0  0  0  0  0  0
   46.6274   -9.5241   34.6462 H   0  0  0  0  0  0  0  0  0  0  0  0
   46.0806  -10.3361   33.1402 H   0  0  0  0  0  0  0  0  0  0  0  0
   46.4081   -8.5700   33.1402 H   0  0  0  0  0  0  0  0  0  0  0  0
   43.0657   -8.3569   32.7731 H   0  0  0  0  0  0  0  0  0  0  0  0
   44.0807   -9.7620   32.1346 H   0  0  0  0  0  0  0  0  0  0  0  0
   43.1460  -11.8783   31.9530 H   0  0  0  0  0  0  0  0  0  0  0  0
   41.7230  -13.5770   31.4260 H   0  0  0  0  0  0  0  0  0  0  0  0
   39.2572  -12.5756   33.7143 H   0  0  0  0  0  0  0  0  0  0  0  0
   41.4599   -8.9949   34.7022 H   0  0  0  0  0  0  0  0  0  0  0  0
   39.1100   -9.3150   35.3060 H   0  0  0  0  0  0  0  0  0  0  0  0
   35.8351  -10.7749   38.0590 H   0  0  0  0  0  0  0  0  0  0  0  0
   35.6357   -9.8879   36.5097 H   0  0  0  0  0  0  0  0  0  0  0  0
   35.7540  -11.6803   36.5097 H   0  0  0  0  0  0  0  0  0  0  0  0
   39.5278  -10.2631   37.5340 H   0  0  0  0  0  0  0  0  0  0  0  0
   37.3858   -9.6876   39.5295 H   0  0  0  0  0  0  0  0  0  0  0  0
   37.9008  -11.3852   39.6875 H   0  0  0  0  0  0  0  0  0  0  0  0
   39.2433   -9.0550   40.6466 H   0  0  0  0  0  0  0  0  0  0  0  0
   39.8571  -10.7871   40.6003 H   0  0  0  0  0  0  0  0  0  0  0  0
   40.2850   -9.6603   38.0401 H   0  0  0  0  0  0  0  0  0  0  0  0
   42.0419  -10.5532   40.3594 H   0  0  0  0  0  0  0  0  0  0  0  0
   41.6820  -11.4029   38.8183 H   0  0  0  0  0  0  0  0  0  0  0  0
   42.7440   -9.9542   38.8183 H   0  0  0  0  0  0  0  0  0  0  0  0
   40.2533   -7.5736   39.9161 H   0  0  0  0  0  0  0  0  0  0  0  0
   42.6260   -5.7360   42.0410 H   0  0  0  0  0  0  0  0  0  0  0  0
   42.6390   -5.6850   40.2910 H   0  0  0  0  0  0  0  0  0  0  0  0
   38.8970   -7.1493   37.8993 H   0  0  0  0  0  0  0  0  0  0  0  0
   39.7185   -6.2815   36.5582 H   0  0  0  0  0  0  0  0  0  0  0  0
   39.6508   -8.0765   36.5582 H   0  0  0  0  0  0  0  0  0  0  0  0
   43.0743   -6.8053   38.1448 H   0  0  0  0  0  0  0  0  0  0  0  0
   43.3357   -5.2232   36.3692 H   0  0  0  0  0  0  0  0  0  0  0  0
   41.1765   -4.2835   37.6152 H   0  0  0  0  0  0  0  0  0  0  0  0
   41.7575   -3.5788   36.0685 H   0  0  0  0  0  0  0  0  0  0  0  0
   40.3823   -4.7344   36.0685 H   0  0  0  0  0  0  0  0  0  0  0  0
   41.6970   -7.3810   35.2698 H   0  0  0  0  0  0  0  0  0  0  0  0
   41.2800   -6.1200   33.2880 H   0  0  0  0  0  0  0  0  0  0  0  0
  1  2  1  0
  2  3  1  0
  3  4  1  0
  4  5  1  0
  5  6  1  0
  5  7  1  0
  7  8  1  0
  8  9  2  0
  9 10  1  0
 10 11  1  0
 10 12  2  0
 12 13  1  0
 13 14  2  0
 13 15  1  0
 15 16  1  0
 16 17  2  0
 16 18  1  0
 18 19  1  0
 18 20  2  0
 20 21  1  0
 21 22  1  0
 22 23  1  0
 23 24  1  0
 23 25  1  0
 25 26  1  0
 26 27  1  0
 27 28  1  0
 27 29  2  0
 25 30  1  0
 30 31  1  0
 30 32  2  0
 32 33  1  0
 33 34  1  0
 33 35  1  0
 35 36  1  0
 35  3  1  0
 14  8  1  0
  1 37  1  0
  1 38  1  0
  1 39  1  0
  3 40  1  6
  4 41  1  0
  4 42  1  0
  5 43  1  1
  6 44  1  0
  6 45  1  0
  6 46  1  0
  7 47  1  0
  7 48  1  0
  9 49  1  0
 11 50  1  0
 12 51  1  0
 14 52  1  0
 15 53  1  0
 19 54  1  0
 19 55  1  0
 19 56  1  0
 20 57  1  0
 21 58  1  0
 21 59  1  0
 22 60  1  0
 22 61  1  0
 23 62  1  6
 24 63  1  0
 24 64  1  0
 24 65  1  0
 25 66  1  1
 28 67  1  0
 28 68  1  0
 31 69  1  0
 31 70  1  0
 31 71  1  0
 32 72  1  0
 33 73  1  6
 34 74  1  0
 34 75  1  0
 34 76  1  0
 35 77  1  1
 36 78  1  0
M  END
>  <meeko>  (5) 
{"is_sidechain": [false], "free_energy": -5.463, "intermolecular_energy": -11.418, "internal_energy": -2.078}

$$$$
2vw5_ligand
     RDKit          3D

 78 79  0  0  0  0  0  0  0  0999 V2000
   42.5800   -7.3900   41.4530 C   0  0  0  0  0  0  0  0  0  0  0  0
   41.5410   -8.2530   41.0070 O   0  0  0  0  0  0  0  0  0  0  0  0
   40.7250   -7.6690   39.9860 C   0  0  1  0  0  0  0  0  0  0  0  0
   41.5710   -6.7490   39.0630 C   0  0  0  0  0  0  0  0  0  0  0  0
   41.0640   -5.3330   38.6760 C   0  0  2  0  0  0  0  0  0  0  0  0
   40.0850   -4.7480   39.6940 C   0  0  0  0  0  0  0  0  0  0  0  0
   40.6260   -5.2370   37.1860 C   0  0  0  0  0  0  0  0  0  0  0  0
   41.6970   -5.5160   36.1590 C   0  0  0  0  0  0  0  0  0  0  0  0
   42.4290   -4.4840   35.5640 C   0  0  0  0  0  0  0  0  0  0  0  0
   43.3020   -4.7770   34.5170 C   0  0  0  0  0  0  0  0  0  0  0  0
   44.0180   -3.7940   33.8970 O   0  0  0  0  0  0  0  0  0  0  0  0
   43.4500   -6.0790   34.0440 C   0  0  0  0  0  0  0  0  0  0  0  0
   42.7510   -7.1210   34.6520 C   0  0  0  0  0  0  0  0  0  0  0  0
   41.8950   -6.8360   35.7220 C   0  0  0  0  0  0  0  0  0  0  0  0
   42.8200   -8.4080   34.0780 N   0  0  0  0  0  0  0  0  0  0  0  0
   43.2410   -9.5330   34.7490 C   0  0  0  0  0  0  0  0  0  0  0  0
   44.1290   -9.5790   35.5950 O   0  0  0  0  0  0  0  0  0  0  0  0
   42.5100  -10.7860   34.3780 C   0  0  0  0  0  0  0  0  0  0  0  0
   42.7740  -11.9640   35.2580 C   0  0  0  0  0  0  0  0  0  0  0  0
   41.5360  -10.6620   33.4530 C   0  0  0  0  0  0  0  0  0  0  0  0
   40.3970  -11.6170   33.2130 C   0  0  0  0  0  0  0  0  0  0  0  0
   39.4730  -11.5470   34.4400 C   0  0  0  0  0  0  0  0  0  0  0  0
   38.1480  -10.7920   34.2150 C   0  0  2  0  0  0  0  0  0  0  0  0
   38.3150   -9.6950   33.1550 C   0  0  0  0  0  0  0  0  0  0  0  0
   37.6160  -10.1860   35.5520 C   0  0  1  0  0  0  0  0  0  0  0  0
   37.2110  -11.2700   36.4120 O   0  0  0  0  0  0  0  0  0  0  0  0
   36.0710  -11.0750   37.1080 C   0  0  0  0  0  0  0  0  0  0  0  0
   35.1460  -10.4930   36.3130 N   0  0  0  0  0  0  0  0  0  0  0  0
   35.8620  -11.3650   38.2750 O   0  0  0  0  0  0  0  0  0  0  0  0
   38.6640   -9.3570   36.3000 C   0  0  0  0  0  0  0  0  0  0  0  0
   38.5340   -7.8590   36.1820 C   0  0  0  0  0  0  0  0  0  0  0  0
   39.6180   -9.9730   37.0360 C   0  0  0  0  0  0  0  0  0  0  0  0
   40.6270   -9.3140   37.9680 C   0  0  2  0  0  0  0  0  0  0  0  0
   41.7750  -10.2880   38.2450 C   0  0  0  0  0  0  0  0  0  0  0  0
   39.9250   -8.8160   39.2760 C   0  0  1  0  0  0  0  0  0  0  0  0
   39.7180   -9.9030   40.1840 O   0  0  0  0  0  0  0  0  0  0  0  0
   42.5977   -7.3753   42.5528 H   0  0  0  0  0  0  0  0  0  0  0  0
   43.5468   -7.7545   41.0756 H   0  0  0  0  0  0  0  0  0  0  0  0
   42.3990   -6.3727   41.0756 H   0  0  0  0  0  0  0  0  0  0  0  0
   39.9702   -6.9857   40.4025 H   0  0  0  0  0  0  0  0  0  0  0  0
   42.5414   -6.6099   39.5620 H   0  0  0  0  0  0  0  0  0  0  0  0
   41.5575   -7.2855   38.1028 H   0  0  0  0  0  0  0  0  0  0  0  0
   41.9279   -4.6549   38.7376 H   0  0  0  0  0  0  0  0  0  0  0  0
   40.4430   -4.9619   40.7119 H   0  0  0  0  0  0  0  0  0  0  0  0
   40.0145   -3.6596   39.5513 H   0  0  0  0  0  0  0  0  0  0  0  0
   39.0931   -5.2015   39.5513 H   0  0  0  0  0  0  0  0  0  0  0  0
   39.8123   -5.9600   37.0278 H   0  0  0  0  0  0  0  0  0  0  0  0
   40.3345   -4.1877   37.0310 H   0  0  0  0  0  0  0  0  0  0  0  0
   42.3171   -3.4489   35.9191 H   0  0  0  0  0  0  0  0  0  0  0  0
   44.1230   -3.0540   34.5170 H   0  0  0  0  0  0  0  0  0  0  0  0
   44.1164   -6.2844   33.1933 H   0  0  0  0  0  0  0  0  0  0  0  0
   41.3691   -7.6587   36.2286 H   0  0  0  0  0  0  0  0  0  0  0  0
   42.3620   -8.5320   33.1860 H   0  0  0  0  0  0  0  0  0  0  0  0
   42.7052  -11.6570   36.3120 H   0  0  0  0  0  0  0  0  0  0  0  0
   42.0292  -12.7476   35.0550 H   0  0  0  0  0  0  0  0  0  0  0  0
   43.7820  -12.3548   35.0550 H   0  0  0  0  0  0  0  0  0  0  0  0
   41.5782   -9.7720   32.8080 H   0  0  0  0  0  0  0  0  0  0  0  0
   39.8441  -11.3233   32.3086 H   0  0  0  0  0  0  0  0  0  0  0  0
   40.7722  -12.6406   33.0669 H   0  0  0  0  0  0  0  0  0  0  0  0
   39.2319  -12.5760   34.7449 H   0  0  0  0  0  0  0  0  0  0  0  0
   40.0226  -10.9818   35.2071 H   0  0  0  0  0  0  0  0  0  0  0  0
   37.4065  -11.5164   33.8470 H   0  0  0  0  0  0  0  0  0  0  0  0
   38.4627   -8.7247   33.6516 H   0  0  0  0  0  0  0  0  0  0  0  0
   39.1889   -9.9222   32.5268 H   0  0  0  0  0  0  0  0  0  0  0  0
   37.4131   -9.6518   32.5268 H   0  0  0  0  0  0  0  0  0  0  0  0
   36.7824   -9.5155   35.2959 H   0  0  0  0  0  0  0  0  0  0  0  0
   34.2080  -10.3870   36.6670 H   0  0  0  0  0  0  0  0  0  0  0  0
   35.3340  -10.3960   35.3270 H   0  0  0  0  0  0  0  0  0  0  0  0
   38.4954   -7.4140   37.1872 H   0  0  0  0  0  0  0  0  0  0  0  0
   39.4007   -7.4576   35.6364 H   0  0  0  0  0  0  0  0  0  0  0  0
   37.6111   -7.6129   35.6364 H   0  0  0  0  0  0  0  0  0  0  0  0
   39.6707  -11.0685   36.9522 H   0  0  0  0  0  0  0  0  0  0  0  0
   41.0555   -8.4221   37.4874 H   0  0  0  0  0  0  0  0  0  0  0  0
   41.9069  -10.3999   39.3313 H   0  0  0  0  0  0  0  0  0  0  0  0
   41.5405  -11.2669   37.8014 H   0  0  0  0  0  0  0  0  0  0  0  0
   42.7026   -9.8971   37.8014 H   0  0  0  0  0  0  0  0  0  0  0  0
   38.9514   -8.4019   38.9749 H   0  0  0  0  0  0  0  0  0  0  0  0
   39.1870  -10.5740   39.7210 H   0  0  0  0  0  0  0  0  0  0  0  0
  1  2  1  0
  2  3  1  0
  3  4  1  0
  4  5  1  0
  5  6  1  0
  5  7  1  0
  7  8  1  0
  8  9  2  0
  9 10  1  0
 10 11  1  0
 10 12  2  0
 12 13  1  0
 13 14  2  0
 13 15  1  0
 15 16  1  0
 16 17  2  0
 16 18  1  0
 18 19  1  0
 18 20  2  0
 20 21  1  0
 21 22  1  0
 22 23  1  0
 23 24  1  0
 23 25  1  0
 25 26  1  0
 26 27  1  0
 27 28  1  0
 27 29  2  0
 25 30  1  0
 30 31  1  0
 30 32  2  0
 32 33  1  0
 33 34  1  0
 33 35  1  0
 35 36  1  0
 35  3  1  0
 14  8  1  0
  1 37  1  0
  1 38  1  0
  1 39  1  0
  3 40  1  1
  4 41  1  0
  4 42  1  0
  5 43  1  6
  6 44  1  0
  6 45  1  0
  6 46  1  0
  7 47  1  0
  7 48  1  0
  9 49  1  0
 11 50  1  0
 12 51  1  0
 14 52  1  0
 15 53  1  0
 19 54  1  0
 19 55  1  0
 19 56  1  0
 20 57  1  0
 21 58  1  0
 21 59  1  0
 22 60  1  0
 22 61  1  0
 23 62  1  6
 24 63  1  0
 24 64  1  0
 24 65  1  0
 25 66  1  6
 28 67  1  0
 28 68  1  0
 31 69  1  0
 31 70  1  0
 31 71  1  0
 32 72  1  0
 33 73  1  6
 34 74  1  0
 34 75  1  0
 34 76  1  0
 35 77  1  6
 36 78  1  0
M  END
>  <meeko>  (6) 
{"is_sidechain": [false], "free_energy": -5.323, "intermolecular_energy": -10.616, "internal_energy": -2.6}

$$$$
2vw5_ligand
     RDKit          3D

 78 79  0  0  0  0  0  0  0  0999 V2000
   41.7610  -10.9930   39.1170 C   0  0  0  0  0  0  0  0  0  0  0  0
   42.0290   -9.6280   38.8260 O   0  0  0  0  0  0  0  0  0  0  0  0
   40.9110   -8.7700   39.0750 C   0  0  1  0  0  0  0  0  0  0  0  0
   40.0230   -9.3400   40.2160 C   0  0  0  0  0  0  0  0  0  0  0  0
   38.5840   -9.8450   39.9230 C   0  0  2  0  0  0  0  0  0  0  0  0
   38.4500  -11.3650   40.0240 C   0  0  0  0  0  0  0  0  0  0  0  0
   37.9640   -9.1950   38.6530 C   0  0  0  0  0  0  0  0  0  0  0  0
   38.0420  -10.0090   37.3840 C   0  0  0  0  0  0  0  0  0  0  0  0
   36.9890  -10.8350   36.9770 C   0  0  0  0  0  0  0  0  0  0  0  0
   37.1640  -11.6770   35.8800 C   0  0  0  0  0  0  0  0  0  0  0  0
   36.1680  -12.5130   35.4650 O   0  0  0  0  0  0  0  0  0  0  0  0
   38.3730  -11.7220   35.1890 C   0  0  0  0  0  0  0  0  0  0  0  0
   39.4180  -10.8790   35.5660 C   0  0  0  0  0  0  0  0  0  0  0  0
   39.2380  -10.0100   36.6480 C   0  0  0  0  0  0  0  0  0  0  0  0
   40.6700  -11.0300   34.9350 N   0  0  0  0  0  0  0  0  0  0  0  0
   41.1750  -10.1580   33.9980 C   0  0  0  0  0  0  0  0  0  0  0  0
   40.5260   -9.5590   33.1450 O   0  0  0  0  0  0  0  0  0  0  0  0
   42.6560   -9.9530   34.0760 C   0  0  0  0  0  0  0  0  0  0  0  0
   43.4100  -10.2610   32.8230 C   0  0  0  0  0  0  0  0  0  0  0  0
   43.1170   -9.3050   35.1660 C   0  0  0  0  0  0  0  0  0  0  0  0
   44.4440   -8.6060   35.3020 C   0  0  0  0  0  0  0  0  0  0  0  0
   44.1580   -7.0980   35.4090 C   0  0  0  0  0  0  0  0  0  0  0  0
   43.1330   -6.5570   34.3930 C   0  0  2  0  0  0  0  0  0  0  0  0
   43.8350   -6.0010   33.1480 C   0  0  0  0  0  0  0  0  0  0  0  0
   42.2250   -5.4660   35.0450 C   0  0  1  0  0  0  0  0  0  0  0  0
   41.4490   -4.8400   34.0040 O   0  0  0  0  0  0  0  0  0  0  0  0
   41.3250   -3.4990   34.0880 C   0  0  0  0  0  0  0  0  0  0  0  0
   42.3150   -2.9970   34.8580 N   0  0  0  0  0  0  0  0  0  0  0  0
   40.4690   -2.8040   33.5640 O   0  0  0  0  0  0  0  0  0  0  0  0
   41.2520   -6.0300   36.0850 C   0  0  0  0  0  0  0  0  0  0  0  0
   40.2310   -7.0150   35.5730 C   0  0  0  0  0  0  0  0  0  0  0  0
   41.3570   -5.6620   37.3820 C   0  0  0  0  0  0  0  0  0  0  0  0
   40.5930   -6.2410   38.5660 C   0  0  2  0  0  0  0  0  0  0  0  0
   40.1460   -5.1040   39.4890 C   0  0  0  0  0  0  0  0  0  0  0  0
   41.4580   -7.3180   39.3050 C   0  0  1  0  0  0  0  0  0  0  0  0
   41.5140   -7.0450   40.7090 O   0  0  0  0  0  0  0  0  0  0  0  0
   41.7328  -11.1368   40.2072 H   0  0  0  0  0  0  0  0  0  0  0  0
   40.7901  -11.2763   38.6845 H   0  0  0  0  0  0  0  0  0  0  0  0
   42.5527  -11.6224   38.6845 H   0  0  0  0  0  0  0  0  0  0  0  0
   40.2297   -8.7205   38.2128 H   0  0  0  0  0  0  0  0  0  0  0  0
   40.5725  -10.1897   40.6473 H   0  0  0  0  0  0  0  0  0  0  0  0
   39.8494   -8.4611   40.8543 H   0  0  0  0  0  0  0  0  0  0  0  0
   37.9437   -9.4802   40.7396 H   0  0  0  0  0  0  0  0  0  0  0  0
   38.4239  -11.6612   41.0830 H   0  0  0  0  0  0  0  0  0  0  0  0
   37.5202  -11.6847   39.5308 H   0  0  0  0  0  0  0  0  0  0  0  0
   39.3095  -11.8424   39.5308 H   0  0  0  0  0  0  0  0  0  0  0  0
   36.9020   -8.9978   38.8609 H   0  0  0  0  0  0  0  0  0  0  0  0
   38.5622   -8.2919   38.4616 H   0  0  0  0  0  0  0  0  0  0  0  0
   36.0313  -10.8202   37.5179 H   0  0  0  0  0  0  0  0  0  0  0  0
   35.4210  -12.4290   36.0800 H   0  0  0  0  0  0  0  0  0  0  0  0
   38.5028  -12.4201   34.3489 H   0  0  0  0  0  0  0  0  0  0  0  0
   40.0457   -9.3171   36.9263 H   0  0  0  0  0  0  0  0  0  0  0  0
   41.2990  -11.7150   35.3300 H   0  0  0  0  0  0  0  0  0  0  0  0
   44.4000  -10.6654   33.0808 H   0  0  0  0  0  0  0  0  0  0  0  0
   42.8529  -11.0036   32.2330 H   0  0  0  0  0  0  0  0  0  0  0  0
   43.5322   -9.3407   32.2330 H   0  0  0  0  0  0  0  0  0  0  0  0
   42.4561   -9.2853   36.0451 H   0  0  0  0  0  0  0  0  0  0  0  0
   44.9628   -8.9559   36.2067 H   0  0  0  0  0  0  0  0  0  0  0  0
   45.0874   -8.8198   34.4358 H   0  0  0  0  0  0  0  0  0  0  0  0
   43.7768   -6.8937   36.4204 H   0  0  0  0  0  0  0  0  0  0  0  0
   45.1077   -6.5881   35.1896 H   0  0  0  0  0  0  0  0  0  0  0  0
   42.4935   -7.3956   34.0803 H   0  0  0  0  0  0  0  0  0  0  0  0
   44.6628   -5.3453   33.4559 H   0  0  0  0  0  0  0  0  0  0  0  0
   44.2305   -6.8335   32.5475 H   0  0  0  0  0  0  0  0  0  0  0  0
   43.1152   -5.4254   32.5475 H   0  0  0  0  0  0  0  0  0  0  0  0
   42.8889   -4.7571   35.5614 H   0  0  0  0  0  0  0  0  0  0  0  0
   42.4130   -1.9960   34.9200 H   0  0  0  0  0  0  0  0  0  0  0  0
   43.0630   -3.6040   35.1550 H   0  0  0  0  0  0  0  0  0  0  0  0
   39.7294   -7.4989   36.4240 H   0  0  0  0  0  0  0  0  0  0  0  0
   39.4859   -6.4859   34.9608 H   0  0  0  0  0  0  0  0  0  0  0  0
   40.7331   -7.7786   34.9608 H   0  0  0  0  0  0  0  0  0  0  0  0
   42.0720   -4.8568   37.6066 H   0  0  0  0  0  0  0  0  0  0  0  0
   39.6884   -6.7578   38.2129 H   0  0  0  0  0  0  0  0  0  0  0  0
   40.2677   -5.4135   40.5375 H   0  0  0  0  0  0  0  0  0  0  0  0
   40.7605   -4.2122   39.2963 H   0  0  0  0  0  0  0  0  0  0  0  0
   39.0887   -4.8694   39.2963 H   0  0  0  0  0  0  0  0  0  0  0  0
   42.4706   -7.2622   38.8790 H   0  0  0  0  0  0  0  0  0  0  0  0
   40.6500   -6.6840   40.9720 H   0  0  0  0  0  0  0  0  0  0  0  0
  1  2  1  0
  2  3  1  0
  3  4  1  0
  4  5  1  0
  5  6  1  0
  5  7  1  0
  7  8  1  0
  8  9  2  0
  9 10  1  0
 10 11  1  0
 10 12  2  0
 12 13  1  0
 13 14  2  0
 13 15  1  0
 15 16  1  0
 16 17  2  0
 16 18  1  0
 18 19  1  0
 18 20  2  0
 20 21  1  0
 21 22  1  0
 22 23  1  0
 23 24  1  0
 23 25  1  0
 25 26  1  0
 26 27  1  0
 27 28  1  0
 27 29  2  0
 25 30  1  0
 30 31  1  0
 30 32  2  0
 32 33  1  0
 33 34  1  0
 33 35  1  0
 35 36  1  0
 35  3  1  0
 14  8  1  0
  1 37  1  0
  1 38  1  0
  1 39  1  0
  3 40  1  6
  4 41  1  0
  4 42  1  0
  5 43  1  1
  6 44  1  0
  6 45  1  0
  6 46  1  0
  7 47  1  0
  7 48  1  0
  9 49  1  0
 11 50  1  0
 12 51  1  0
 14 52  1  0
 15 53  1  0
 19 54  1  0
 19 55  1  0
 19 56  1  0
 20 57  1  0
 21 58  1  0
 21 59  1  0
 22 60  1  0
 22 61  1  0
 23 62  1  6
 24 63  1  0
 24 64  1  0
 24 65  1  0
 25 66  1  1
 28 67  1  0
 28 68  1  0
 31 69  1  0
 31 70  1  0
 31 71  1  0
 32 72  1  0
 33 73  1  6
 34 74  1  0
 34 75  1  0
 34 76  1  0
 35 77  1  6
 36 78  1  0
M  END
>  <meeko>  (7) 
{"is_sidechain": [false], "free_energy": -5.267, "intermolecular_energy": -10.238, "internal_energy": -2.867}

$$$$
2vw5_ligand
     RDKit          3D

 78 79  0  0  0  0  0  0  0  0999 V2000
   38.2000  -11.8040   40.1940 C   0  0  0  0  0  0  0  0  0  0  0  0
   38.6570  -10.5250   39.7720 O   0  0  0  0  0  0  0  0  0  0  0  0
   39.3730  -10.5650   38.5340 C   0  0  1  0  0  0  0  0  0  0  0  0
   38.4100  -10.3600   37.3320 C   0  0  0  0  0  0  0  0  0  0  0  0
   38.9320   -9.7850   35.9870 C   0  0  2  0  0  0  0  0  0  0  0  0
   37.9180   -8.8770   35.2900 C   0  0  0  0  0  0  0  0  0  0  0  0
   39.6020  -10.8650   35.0900 C   0  0  0  0  0  0  0  0  0  0  0  0
   41.0720  -10.6740   34.8050 C   0  0  0  0  0  0  0  0  0  0  0  0
   41.9400  -11.7620   34.6710 C   0  0  0  0  0  0  0  0  0  0  0  0
   43.3100  -11.5360   34.5560 C   0  0  0  0  0  0  0  0  0  0  0  0
   44.1910  -12.5720   34.4440 O   0  0  0  0  0  0  0  0  0  0  0  0
   43.8340  -10.2450   34.5840 C   0  0  0  0  0  0  0  0  0  0  0  0
   42.9750   -9.1510   34.6830 C   0  0  0  0  0  0  0  0  0  0  0  0
   41.5960   -9.3720   34.7700 C   0  0  0  0  0  0  0  0  0  0  0  0
   43.5330   -7.8650   34.8360 N   0  0  0  0  0  0  0  0  0  0  0  0
   43.7270   -6.9780   33.8020 C   0  0  0  0  0  0  0  0  0  0  0  0
   44.0530   -7.2670   32.6550 O   0  0  0  0  0  0  0  0  0  0  0  0
   43.5000   -5.5430   34.1650 C   0  0  0  0  0  0  0  0  0  0  0  0
   44.6790   -4.6440   33.9820 C   0  0  0  0  0  0  0  0  0  0  0  0
   42.2220   -5.1750   34.3920 C   0  0  0  0  0  0  0  0  0  0  0  0
   41.6680   -3.7750   34.3500 C   0  0  0  0  0  0  0  0  0  0  0  0
   40.6760   -3.6390   35.5170 C   0  0  0  0  0  0  0  0  0  0  0  0
   40.2650   -4.9690   36.1800 C   0  0  2  0  0  0  0  0  0  0  0  0
   38.7700   -5.2440   35.9770 C   0  0  0  0  0  0  0  0  0  0  0  0
   40.6210   -4.9670   37.7010 C   0  0  1  0  0  0  0  0  0  0  0  0
   39.4760   -4.4910   38.4350 O   0  0  0  0  0  0  0  0  0  0  0  0
   39.7400   -3.8990   39.6180 C   0  0  0  0  0  0  0  0  0  0  0  0
   39.6370   -2.5570   39.4880 N   0  0  0  0  0  0  0  0  0  0  0  0
   40.0300   -4.4480   40.6690 O   0  0  0  0  0  0  0  0  0  0  0  0
   40.9830   -6.3550   38.2380 C   0  0  0  0  0  0  0  0  0  0  0  0
   42.4050   -6.8040   38.0140 C   0  0  0  0  0  0  0  0  0  0  0  0
   40.0580   -7.0910   38.8950 C   0  0  0  0  0  0  0  0  0  0  0  0
   40.2840   -8.4040   39.6340 C   0  0  2  0  0  0  0  0  0  0  0  0
   41.4080   -8.2250   40.6570 C   0  0  0  0  0  0  0  0  0  0  0  0
   40.5660   -9.5650   38.6200 C   0  0  1  0  0  0  0  0  0  0  0  0
   41.7680  -10.2590   38.9680 O   0  0  0  0  0  0  0  0  0  0  0  0
   38.1857  -11.8440   41.2932 H   0  0  0  0  0  0  0  0  0  0  0  0
   37.1846  -11.9764   39.8076 H   0  0  0  0  0  0  0  0  0  0  0  0
   38.8762  -12.5808   39.8076 H   0  0  0  0  0  0  0  0  0  0  0  0
   39.8125  -11.5569   38.3522 H   0  0  0  0  0  0  0  0  0  0  0  0
   37.9763  -11.3451   37.1053 H   0  0  0  0  0  0  0  0  0  0  0  0
   37.7346   -9.5695   37.6910 H   0  0  0  0  0  0  0  0  0  0  0  0
   39.7585   -9.1006   36.2289 H   0  0  0  0  0  0  0  0  0  0  0  0
   37.3227   -8.3440   36.0460 H   0  0  0  0  0  0  0  0  0  0  0  0
   38.4501   -8.1479   34.6613 H   0  0  0  0  0  0  0  0  0  0  0  0
   37.2518   -9.4860   34.6613 H   0  0  0  0  0  0  0  0  0  0  0  0
   39.4801  -11.8382   35.5881 H   0  0  0  0  0  0  0  0  0  0  0  0
   39.1001  -10.7908   34.1140 H   0  0  0  0  0  0  0  0  0  0  0  0
   41.5443  -12.7883   34.6565 H   0  0  0  0  0  0  0  0  0  0  0  0
   44.9330  -12.2860   33.8870 H   0  0  0  0  0  0  0  0  0  0  0  0
   44.9215  -10.0895   34.5282 H   0  0  0  0  0  0  0  0  0  0  0  0
   40.9116   -8.5119   34.8116 H   0  0  0  0  0  0  0  0  0  0  0  0
   43.6220   -7.5170   35.7810 H   0  0  0  0  0  0  0  0  0  0  0  0
   45.0694   -4.3463   34.9664 H   0  0  0  0  0  0  0  0  0  0  0  0
   45.4625   -5.1761   33.4224 H   0  0  0  0  0  0  0  0  0  0  0  0
   44.3733   -3.7477   33.4224 H   0  0  0  0  0  0  0  0  0  0  0  0
   41.5118   -5.9799   34.6324 H   0  0  0  0  0  0  0  0  0  0  0  0
   42.4828   -3.0445   34.4618 H   0  0  0  0  0  0  0  0  0  0  0  0
   41.1671   -3.5837   33.3895 H   0  0  0  0  0  0  0  0  0  0  0  0
   41.1386   -3.0028   36.2860 H   0  0  0  0  0  0  0  0  0  0  0  0
   39.7568   -3.2103   35.0913 H   0  0  0  0  0  0  0  0  0  0  0  0
   40.8320   -5.7770   35.6945 H   0  0  0  0  0  0  0  0  0  0  0  0
   38.2775   -5.3346   36.9564 H   0  0  0  0  0  0  0  0  0  0  0  0
   38.3176   -4.4140   35.4145 H   0  0  0  0  0  0  0  0  0  0  0  0
   38.6425   -6.1807   35.4145 H   0  0  0  0  0  0  0  0  0  0  0  0
   41.5017   -4.3204   37.8284 H   0  0  0  0  0  0  0  0  0  0  0  0
   39.7010   -1.9900   40.3190 H   0  0  0  0  0  0  0  0  0  0  0  0
   39.2710   -2.1720   38.6320 H   0  0  0  0  0  0  0  0  0  0  0  0
   42.8977   -6.9596   38.9851 H   0  0  0  0  0  0  0  0  0  0  0  0
   42.4069   -7.7465   37.4467 H   0  0  0  0  0  0  0  0  0  0  0  0
   42.9477   -6.0335   37.4467 H   0  0  0  0  0  0  0  0  0  0  0  0
   39.0303   -6.6988   38.8959 H   0  0  0  0  0  0  0  0  0  0  0  0
   39.3745   -8.6864   40.1845 H   0  0  0  0  0  0  0  0  0  0  0  0
   40.9927   -8.2911   41.6734 H   0  0  0  0  0  0  0  0  0  0  0  0
   42.1609   -9.0146   40.5165 H   0  0  0  0  0  0  0  0  0  0  0  0
   41.8784   -7.2406   40.5165 H   0  0  0  0  0  0  0  0  0  0  0  0
   40.6909   -9.1069   37.6277 H   0  0  0  0  0  0  0  0  0  0  0  0
   41.8030  -10.3150   39.9380 H   0  0  0  0  0  0  0  0  0  0  0  0
  1  2  1  0
  2  3  1  0
  3  4  1  0
  4  5  1  0
  5  6  1  0
  5  7  1  0
  7  8  1  0
  8  9  2  0
  9 10  1  0
 10 11  1  0
 10 12  2  0
 12 13  1  0
 13 14  2  0
 13 15  1  0
 15 16  1  0
 16 17  2  0
 16 18  1  0
 18 19  1  0
 18 20  2  0
 20 21  1  0
 21 22  1  0
 22 23  1  0
 23 24  1  0
 23 25  1  0
 25 26  1  0
 26 27  1  0
 27 28  1  0
 27 29  2  0
 25 30  1  0
 30 31  1  0
 30 32  2  0
 32 33  1  0
 33 34  1  0
 33 35  1  0
 35 36  1  0
 35  3  1  0
 14  8  1  0
  1 37  1  0
  1 38  1  0
  1 39  1  0
  3 40  1  6
  4 41  1  0
  4 42  1  0
  5 43  1  1
  6 44  1  0
  6 45  1  0
  6 46  1  0
  7 47  1  0
  7 48  1  0
  9 49  1  0
 11 50  1  0
 12 51  1  0
 14 52  1  0
 15 53  1  0
 19 54  1  0
 19 55  1  0
 19 56  1  0
 20 57  1  0
 21 58  1  0
 21 59  1  0
 22 60  1  0
 22 61  1  0
 23 62  1  6
 24 63  1  0
 24 64  1  0
 24 65  1  0
 25 66  1  6
 28 67  1  0
 28 68  1  0
 31 69  1  0
 31 70  1  0
 31 71  1  0
 32 72  1  0
 33 73  1  1
 34 74  1  0
 34 75  1  0
 34 76  1  0
 35 77  1  6
 36 78  1  0
M  END
>  <meeko>  (8) 
{"is_sidechain": [false], "free_energy": -5.262, "intermolecular_energy": -11.003, "internal_energy": -2.091}

$$$$
2vw5_ligand
     RDKit          3D

 78 79  0  0  0  0  0  0  0  0999 V2000
   39.9200   -2.7650   37.5570 C   0  0  0  0  0  0  0  0  0  0  0  0
   39.4410   -3.8730   38.3090 O   0  0  0  0  0  0  0  0  0  0  0  0
   40.1410   -5.0890   38.0260 C   0  0  1  0  0  0  0  0  0  0  0  0
   41.6700   -4.8330   37.9210 C   0  0  0  0  0  0  0  0  0  0  0  0
   42.5120   -5.5100   36.8060 C   0  0  2  0  0  0  0  0  0  0  0  0
   41.7640   -5.6260   35.4770 C   0  0  0  0  0  0  0  0  0  0  0  0
   43.2300   -6.8020   37.2920 C   0  0  0  0  0  0  0  0  0  0  0  0
   43.9740   -7.5850   36.2380 C   0  0  0  0  0  0  0  0  0  0  0  0
   45.3310   -7.3630   35.9800 C   0  0  0  0  0  0  0  0  0  0  0  0
   45.9370   -8.0040   34.9010 C   0  0  0  0  0  0  0  0  0  0  0  0
   47.2530   -7.7960   34.6040 O   0  0  0  0  0  0  0  0  0  0  0  0
   45.2140   -8.8530   34.0660 C   0  0  0  0  0  0  0  0  0  0  0  0
   43.8700   -9.1090   34.3340 C   0  0  0  0  0  0  0  0  0  0  0  0
   43.2630   -8.4910   35.4330 C   0  0  0  0  0  0  0  0  0  0  0  0
   43.1280   -9.8700   33.4070 N   0  0  0  0  0  0  0  0  0  0  0  0
   42.5790  -11.1020   33.6800 C   0  0  0  0  0  0  0  0  0  0  0  0
   43.0740  -11.9710   34.3920 O   0  0  0  0  0  0  0  0  0  0  0  0
   41.2540  -11.3480   33.0290 C   0  0  0  0  0  0  0  0  0  0  0  0
   40.9480  -12.7790   32.7250 C   0  0  0  0  0  0  0  0  0  0  0  0
   40.3970  -10.3070   32.9960 C   0  0  0  0  0  0  0  0  0  0  0  0
   38.9050  -10.3760   32.8060 C   0  0  0  0  0  0  0  0  0  0  0  0
   38.2530   -9.8900   34.1120 C   0  0  0  0  0  0  0  0  0  0  0  0
   38.3610  -10.8690   35.2970 C   0  0  2  0  0  0  0  0  0  0  0  0
   37.4640  -12.0950   35.0790 C   0  0  0  0  0  0  0  0  0  0  0  0
   38.0040  -10.1600   36.6410 C   0  0  1  0  0  0  0  0  0  0  0  0
   37.4100  -11.1320   37.5240 O   0  0  0  0  0  0  0  0  0  0  0  0
   36.2710  -10.7500   38.1390 C   0  0  0  0  0  0  0  0  0  0  0  0
   35.5470   -9.9650   37.3100 N   0  0  0  0  0  0  0  0  0  0  0  0
   35.9080  -11.0450   39.2660 O   0  0  0  0  0  0  0  0  0  0  0  0
   39.2220   -9.5600   37.3510 C   0  0  0  0  0  0  0  0  0  0  0  0
   40.5280  -10.2910   37.1600 C   0  0  0  0  0  0  0  0  0  0  0  0
   39.0960   -8.4240   38.0730 C   0  0  0  0  0  0  0  0  0  0  0  0
   40.2170   -7.6050   38.7000 C   0  0  2  0  0  0  0  0  0  0  0  0
   40.7860   -8.3600   39.9040 C   0  0  0  0  0  0  0  0  0  0  0  0
   39.7100   -6.1700   39.0680 C   0  0  1  0  0  0  0  0  0  0  0  0
   40.1700   -5.7890   40.3700 O   0  0  0  0  0  0  0  0  0  0  0  0
   40.2611   -1.9760   38.2434 H   0  0  0  0  0  0  0  0  0  0  0  0
   40.7591   -3.0874   36.9230 H   0  0  0  0  0  0  0  0  0  0  0  0
   39.1103   -2.3746   36.9230 H   0  0  0  0  0  0  0  0  0  0  0  0
   39.8694   -5.4885   37.0377 H   0  0  0  0  0  0  0  0  0  0  0  0
   41.7991   -3.7477   37.7971 H   0  0  0  0  0  0  0  0  0  0  0  0
   42.0600   -5.2971   38.8389 H   0  0  0  0  0  0  0  0  0  0  0  0
   43.3410   -4.8262   36.5710 H   0  0  0  0  0  0  0  0  0  0  0  0
   40.6941   -5.7919   35.6717 H   0  0  0  0  0  0  0  0  0  0  0  0
   41.8923   -4.6972   34.9018 H   0  0  0  0  0  0  0  0  0  0  0  0
   42.1676   -6.4723   34.9018 H   0  0  0  0  0  0  0  0  0  0  0  0
   43.9532   -6.5126   38.0686 H   0  0  0  0  0  0  0  0  0  0  0  0
   42.4301   -7.4691   37.6458 H   0  0  0  0  0  0  0  0  0  0  0  0
   45.9147   -6.6882   36.6234 H   0  0  0  0  0  0  0  0  0  0  0  0
   47.3320   -7.6520   33.6470 H   0  0  0  0  0  0  0  0  0  0  0  0
   45.7021   -9.3200   33.1978 H   0  0  0  0  0  0  0  0  0  0  0  0
   42.2132   -8.7179   35.6703 H   0  0  0  0  0  0  0  0  0  0  0  0
   42.8370   -9.3990   32.5620 H   0  0  0  0  0  0  0  0  0  0  0  0
   40.8288  -13.3363   33.6658 H   0  0  0  0  0  0  0  0  0  0  0  0
   40.0167  -12.8391   32.1427 H   0  0  0  0  0  0  0  0  0  0  0  0
   41.7733  -13.2147   32.1427 H   0  0  0  0  0  0  0  0  0  0  0  0
   40.8328   -9.3048   33.1207 H   0  0  0  0  0  0  0  0  0  0  0  0
   38.6018   -9.7280   31.9704 H   0  0  0  0  0  0  0  0  0  0  0  0
   38.5898  -11.4038   32.5731 H   0  0  0  0  0  0  0  0  0  0  0  0
   38.7363   -8.9460   34.4040 H   0  0  0  0  0  0  0  0  0  0  0  0
   37.1793   -9.7829   33.8984 H   0  0  0  0  0  0  0  0  0  0  0  0
   39.4044  -11.2124   35.3561 H   0  0  0  0  0  0  0  0  0  0  0  0
   37.1627  -12.5068   36.0535 H   0  0  0  0  0  0  0  0  0  0  0  0
   36.5683  -11.7981   34.5136 H   0  0  0  0  0  0  0  0  0  0  0  0
   38.0180  -12.8588   34.5136 H   0  0  0  0  0  0  0  0  0  0  0  0
   37.3187   -9.3340   36.4000 H   0  0  0  0  0  0  0  0  0  0  0  0
   34.6190   -9.6950   37.5960 H   0  0  0  0  0  0  0  0  0  0  0  0
   35.8370   -9.8630   36.3500 H   0  0  0  0  0  0  0  0  0  0  0  0
   40.9599  -10.5328   38.1423 H   0  0  0  0  0  0  0  0  0  0  0  0
   40.3494  -11.2203   36.5992 H   0  0  0  0  0  0  0  0  0  0  0  0
   41.2268   -9.6529   36.5992 H   0  0  0  0  0  0  0  0  0  0  0  0
   38.0725   -8.0504   38.2242 H   0  0  0  0  0  0  0  0  0  0  0  0
   41.0338   -7.4692   37.9759 H   0  0  0  0  0  0  0  0  0  0  0  0
   40.4314   -7.8894   40.8329 H   0  0  0  0  0  0  0  0  0  0  0  0
   40.4505   -9.4071   39.8721 H   0  0  0  0  0  0  0  0  0  0  0  0
   41.8850   -8.3260   39.8721 H   0  0  0  0  0  0  0  0  0  0  0  0
   38.6111   -6.2196   39.0598 H   0  0  0  0  0  0  0  0  0  0  0  0
   39.4020   -5.8070   40.9670 H   0  0  0  0  0  0  0  0  0  0  0  0
  1  2  1  0
  2  3  1  0
  3  4  1  0
  4  5  1  0
  5  6  1  0
  5  7  1  0
  7  8  1  0
  8  9  2  0
  9 10  1  0
 10 11  1  0
 10 12  2  0
 12 13  1  0
 13 14  2  0
 13 15  1  0
 15 16  1  0
 16 17  2  0
 16 18  1  0
 18 19  1  0
 18 20  2  0
 20 21  1  0
 21 22  1  0
 22 23  1  0
 23 24  1  0
 23 25  1  0
 25 26  1  0
 26 27  1  0
 27 28  1  0
 27 29  2  0
 25 30  1  0
 30 31  1  0
 30 32  2  0
 32 33  1  0
 33 34  1  0
 33 35  1  0
 35 36  1  0
 35  3  1  0
 14  8  1  0
  1 37  1  0
  1 38  1  0
  1 39  1  0
  3 40  1  6
  4 41  1  0
  4 42  1  0
  5 43  1  6
  6 44  1  0
  6 45  1  0
  6 46  1  0
  7 47  1  0
  7 48  1  0
  9 49  1  0
 11 50  1  0
 12 51  1  0
 14 52  1  0
 15 53  1  0
 19 54  1  0
 19 55  1  0
 19 56  1  0
 20 57  1  0
 21 58  1  0
 21 59  1  0
 22 60  1  0
 22 61  1  0
 23 62  1  1
 24 63  1  0
 24 64  1  0
 24 65  1  0
 25 66  1  6
 28 67  1  0
 28 68  1  0
 31 69  1  0
 31 70  1  0
 31 71  1  0
 32 72  1  0
 33 73  1  6
 34 74  1  0
 34 75  1  0
 34 76  1  0
 35 77  1  1
 36 78  1  0
M  END
>  <meeko>  (9) 
{"is_sidechain": [false], "free_energy": -5.158, "intermolecular_energy": -10.092, "internal_energy": -2.794}

$$$$
