3jvs_ligand
     RDKit          3D

 52 54  0  0  0  0  0  0  0  0999 V2000
   11.0890  -10.2380   19.3800 C   0  0  0  0  0  0  0  0  0  0  0  0
   12.1810   -9.2150   19.7550 C   0  0  0  0  0  0  0  0  0  0  0  0
   11.4990   -8.1340   20.6420 C   0  0  0  0  0  0  0  0  0  0  0  0
   13.2190   -9.8880   20.6820 C   0  0  0  0  0  0  0  0  0  0  0  0
   12.7900   -8.6270   18.4560 C   0  0  0  0  0  0  0  0  0  0  0  0
   12.2550   -9.0100   17.2040 C   0  0  0  0  0  0  0  0  0  0  0  0
   12.7530   -8.5250   15.9820 C   0  0  0  0  0  0  0  0  0  0  0  0
   13.8310   -7.6400   15.9600 C   0  0  0  0  0  0  0  0  0  0  0  0
   14.3950   -7.0920   14.6970 C   0  0  0  0  0  0  0  0  0  0  0  0
   15.0650   -7.8010   13.9500 O   0  0  0  0  0  0  0  0  0  0  0  0
   14.0980   -5.7750   14.3960 N   0  0  0  0  0  0  0  0  0  0  0  0
   14.4010   -5.3540   13.0760 N   0  0  0  0  0  0  0  0  0  0  0  0
   14.3660   -3.9770   12.8660 C   0  0  0  0  0  0  0  0  0  0  0  0
   14.2490   -3.1990   13.8070 O   0  0  0  0  0  0  0  0  0  0  0  0
   14.5070   -3.6780   11.5290 N   0  0  0  0  0  0  0  0  0  0  0  0
   14.4570   -2.4070   10.9010 C   0  0  0  0  0  0  0  0  0  0  0  0
   13.2980   -1.6200   10.9590 C   0  0  0  0  0  0  0  0  0  0  0  0
   13.2440   -0.3770   10.3350 C   0  0  0  0  0  0  0  0  0  0  0  0
   14.3470    0.1000    9.6380 C   0  0  0  0  0  0  0  0  0  0  0  0
   15.5210   -0.6580    9.5490 C   0  0  0  0  0  0  0  0  0  0  0  0
   16.6150   -0.1450    8.8320 C   0  0  0  0  0  0  0  0  0  0  0  0
   17.8010   -0.8650    8.7160 C   0  0  0  0  0  0  0  0  0  0  0  0
   17.9080   -2.1080    9.3190 C   0  0  0  0  0  0  0  0  0  0  0  0
   16.8280   -2.6320   10.0380 C   0  0  0  0  0  0  0  0  0  0  0  0
   15.6010   -1.9300   10.1790 C   0  0  0  0  0  0  0  0  0  0  0  0
   14.3960   -7.2380   17.1690 C   0  0  0  0  0  0  0  0  0  0  0  0
   13.8870   -7.7360   18.3840 C   0  0  0  0  0  0  0  0  0  0  0  0
   14.6030   -7.2740   19.5570 N   0  0  0  0  0  0  0  0  0  0  0  0
   14.1310   -6.2950   20.1500 O   0  0  0  0  0  0  0  0  0  0  0  0
   15.6510   -7.8650   19.8470 O   0  0  0  0  0  0  0  0  0  0  0  0
   10.6455  -10.6535   20.2968 H   0  0  0  0  0  0  0  0  0  0  0  0
   10.3074   -9.7395   18.7879 H   0  0  0  0  0  0  0  0  0  0  0  0
   11.5355  -11.0504   18.7879 H   0  0  0  0  0  0  0  0  0  0  0  0
   11.6538   -8.3793   21.7031 H   0  0  0  0  0  0  0  0  0  0  0  0
   11.9401   -7.1500   20.4250 H   0  0  0  0  0  0  0  0  0  0  0  0
   10.4209   -8.1084   20.4250 H   0  0  0  0  0  0  0  0  0  0  0  0
   12.9434   -9.7093   21.7318 H   0  0  0  0  0  0  0  0  0  0  0  0
   13.2375  -10.9704   20.4869 H   0  0  0  0  0  0  0  0  0  0  0  0
   14.2147   -9.4632   20.4869 H   0  0  0  0  0  0  0  0  0  0  0  0
   11.4131   -9.7177   17.1856 H   0  0  0  0  0  0  0  0  0  0  0  0
   12.2896   -8.8454   15.0372 H   0  0  0  0  0  0  0  0  0  0  0  0
   13.2600   -5.3360   14.7810 H   0  0  0  0  0  0  0  0  0  0  0  0
   13.9430   -5.9310   12.3710 H   0  0  0  0  0  0  0  0  0  0  0  0
   14.7910   -4.4580   10.9610 H   0  0  0  0  0  0  0  0  0  0  0  0
   12.4183   -1.9904   11.5058 H   0  0  0  0  0  0  0  0  0  0  0  0
   12.3273    0.2281   10.3938 H   0  0  0  0  0  0  0  0  0  0  0  0
   14.2975    1.0847    9.1503 H   0  0  0  0  0  0  0  0  0  0  0  0
   16.5331    0.8424    8.3541 H   0  0  0  0  0  0  0  0  0  0  0  0
   18.6475   -0.4498    8.1494 H   0  0  0  0  0  0  0  0  0  0  0  0
   18.8419   -2.6828    9.2325 H   0  0  0  0  0  0  0  0  0  0  0  0
   16.9325   -3.6202   10.5097 H   0  0  0  0  0  0  0  0  0  0  0  0
   15.2394   -6.5318   17.1742 H   0  0  0  0  0  0  0  0  0  0  0  0
  1  2  1  0
  2  3  1  0
  2  4  1  0
  2  5  1  0
  5  6  2  0
  6  7  1  0
  7  8  2  0
  8  9  1  0
  9 10  2  0
  9 11  1  0
 11 12  1  0
 12 13  1  0
 13 14  2  0
 13 15  1  0
 15 16  1  0
 16 17  2  0
 17 18  1  0
 18 19  2  0
 19 20  1  0
 20 21  2  0
 21 22  1  0
 22 23  2  0
 23 24  1  0
 24 25  2  0
  8 26  1  0
 26 27  2  0
 27 28  1  0
 28 29  2  0
 28 30  1  0
 27  5  1  0
 25 16  1  0
 25 20  1  0
  1 31  1  0
  1 32  1  0
  1 33  1  0
  3 34  1  0
  3 35  1  0
  3 36  1  0
  4 37  1  0
  4 38  1  0
  4 39  1  0
  6 40  1  0
  7 41  1  0
 11 42  1  0
 12 43  1  0
 15 44  1  0
 17 45  1  0
 18 46  1  0
 19 47  1  0
 21 48  1  0
 22 49  1  0
 23 50  1  0
 24 51  1  0
 26 52  1  0
M  CHG  2  28   1  30  -1
M  END
>  <meeko>  (1) 
{"is_sidechain": [false], "free_energy": -8.381, "intermolecular_energy": -10.831, "internal_energy": -0.387}

$$$$
3jvs_ligand
     RDKit          3D

 52 54  0  0  0  0  0  0  0  0999 V2000
   17.9360   -7.9160   19.6320 C   0  0  0  0  0  0  0  0  0  0  0  0
   16.7000   -8.5100   18.9250 C   0  0  0  0  0  0  0  0  0  0  0  0
   16.7590  -10.0500   19.1350 C   0  0  0  0  0  0  0  0  0  0  0  0
   15.4200   -8.0590   19.6640 C   0  0  0  0  0  0  0  0  0  0  0  0
   16.7340   -8.1070   17.4280 C   0  0  0  0  0  0  0  0  0  0  0  0
   17.8840   -7.4730   16.9050 C   0  0  0  0  0  0  0  0  0  0  0  0
   17.9900   -7.0750   15.5610 C   0  0  0  0  0  0  0  0  0  0  0  0
   16.9310   -7.2820   14.6770 C   0  0  0  0  0  0  0  0  0  0  0  0
   16.9920   -6.8850   13.2440 C   0  0  0  0  0  0  0  0  0  0  0  0
   16.1230   -7.2500   12.4550 O   0  0  0  0  0  0  0  0  0  0  0  0
   18.0410   -6.0680   12.8630 N   0  0  0  0  0  0  0  0  0  0  0  0
   17.9350   -5.4770   11.5770 N   0  0  0  0  0  0  0  0  0  0  0  0
   17.6070   -4.1240   11.5680 C   0  0  0  0  0  0  0  0  0  0  0  0
   17.5880   -3.4730   12.6080 O   0  0  0  0  0  0  0  0  0  0  0  0
   17.3640   -3.6830   10.2860 N   0  0  0  0  0  0  0  0  0  0  0  0
   16.9400   -2.3970    9.8620 C   0  0  0  0  0  0  0  0  0  0  0  0
   17.8160   -1.5370    9.1870 C   0  0  0  0  0  0  0  0  0  0  0  0
   17.4050   -0.2710    8.7790 C   0  0  0  0  0  0  0  0  0  0  0  0
   16.1110    0.1580    9.0450 C   0  0  0  0  0  0  0  0  0  0  0  0
   15.2070   -0.6670    9.7240 C   0  0  0  0  0  0  0  0  0  0  0  0
   13.9080   -0.1970    9.9780 C   0  0  0  0  0  0  0  0  0  0  0  0
   12.9770   -0.9840   10.6520 C   0  0  0  0  0  0  0  0  0  0  0  0
   13.3350   -2.2520   11.0790 C   0  0  0  0  0  0  0  0  0  0  0  0
   14.6240   -2.7350   10.8320 C   0  0  0  0  0  0  0  0  0  0  0  0
   15.6030   -1.9640   10.1490 C   0  0  0  0  0  0  0  0  0  0  0  0
   15.7740   -7.8990   15.1480 C   0  0  0  0  0  0  0  0  0  0  0  0
   15.6820   -8.2880   16.4980 C   0  0  0  0  0  0  0  0  0  0  0  0
   14.4040   -8.8690   16.8590 N   0  0  0  0  0  0  0  0  0  0  0  0
   14.3360  -10.1050   16.8730 O   0  0  0  0  0  0  0  0  0  0  0  0
   13.4710   -8.0870   17.0810 O   0  0  0  0  0  0  0  0  0  0  0  0
   17.8014   -7.9807   20.7218 H   0  0  0  0  0  0  0  0  0  0  0  0
   18.8330   -8.4814   19.3391 H   0  0  0  0  0  0  0  0  0  0  0  0
   18.0549   -6.8624   19.3391 H   0  0  0  0  0  0  0  0  0  0  0  0
   16.7675  -10.2731   20.2121 H   0  0  0  0  0  0  0  0  0  0  0  0
   15.8781  -10.5174   18.6707 H   0  0  0  0  0  0  0  0  0  0  0  0
   17.6731  -10.4486   18.6707 H   0  0  0  0  0  0  0  0  0  0  0  0
   15.5841   -8.1168   20.7502 H   0  0  0  0  0  0  0  0  0  0  0  0
   15.1809   -7.0225   19.3839 H   0  0  0  0  0  0  0  0  0  0  0  0
   14.5839   -8.7167   19.3839 H   0  0  0  0  0  0  0  0  0  0  0  0
   18.7325   -7.2829   17.5787 H   0  0  0  0  0  0  0  0  0  0  0  0
   18.9142   -6.5971   15.2040 H   0  0  0  0  0  0  0  0  0  0  0  0
   18.5020   -5.4690   13.5500 H   0  0  0  0  0  0  0  0  0  0  0  0
   17.4280   -6.0700   10.9200 H   0  0  0  0  0  0  0  0  0  0  0  0
   17.6340   -4.3350    9.5690 H   0  0  0  0  0  0  0  0  0  0  0  0
   18.8440   -1.8670    8.9762 H   0  0  0  0  0  0  0  0  0  0  0  0
   18.1049    0.3894    8.2461 H   0  0  0  0  0  0  0  0  0  0  0  0
   15.7927    1.1588    8.7179 H   0  0  0  0  0  0  0  0  0  0  0  0
   13.6211    0.8094    9.6390 H   0  0  0  0  0  0  0  0  0  0  0  0
   11.9639   -0.6008   10.8439 H   0  0  0  0  0  0  0  0  0  0  0  0
   12.6055   -2.8791   11.6124 H   0  0  0  0  0  0  0  0  0  0  0  0
   14.8888   -3.7451   11.1778 H   0  0  0  0  0  0  0  0  0  0  0  0
   14.9318   -8.0824   14.4646 H   0  0  0  0  0  0  0  0  0  0  0  0
  1  2  1  0
  2  3  1  0
  2  4  1  0
  2  5  1  0
  5  6  2  0
  6  7  1  0
  7  8  2  0
  8  9  1  0
  9 10  2  0
  9 11  1  0
 11 12  1  0
 12 13  1  0
 13 14  2  0
 13 15  1  0
 15 16  1  0
 16 17  2  0
 17 18  1  0
 18 19  2  0
 19 20  1  0
 20 21  2  0
 21 22  1  0
 22 23  2  0
 23 24  1  0
 24 25  2  0
  8 26  1  0
 26 27  2  0
 27 28  1  0
 28 29  2  0
 28 30  1  0
 27  5  1  0
 25 16  1  0
 25 20  1  0
  1 31  1  0
  1 32  1  0
  1 33  1  0
  3 34  1  0
  3 35  1  0
  3 36  1  0
  4 37  1  0
  4 38  1  0
  4 39  1  0
  6 40  1  0
  7 41  1  0
 11 42  1  0
 12 43  1  0
 15 44  1  0
 17 45  1  0
 18 46  1  0
 19 47  1  0
 21 48  1  0
 22 49  1  0
 23 50  1  0
 24 51  1  0
 26 52  1  0
M  CHG  2  28   1  30  -1
M  END
>  <meeko>  (2) 
{"is_sidechain": [false], "free_energy": -8.346, "intermolecular_energy": -10.78, "internal_energy": -0.392}

$$$$
3jvs_ligand
     RDKit          3D

 52 54  0  0  0  0  0  0  0  0999 V2000
    9.6900  -11.7430   14.3380 C   0  0  0  0  0  0  0  0  0  0  0  0
    9.4450  -10.5500   13.3920 C   0  0  0  0  0  0  0  0  0  0  0  0
    9.0210  -11.1440   12.0190 C   0  0  0  0  0  0  0  0  0  0  0  0
    8.2100   -9.7550   13.8770 C   0  0  0  0  0  0  0  0  0  0  0  0
   10.7400   -9.7020   13.3040 C   0  0  0  0  0  0  0  0  0  0  0  0
   11.5270   -9.7560   12.1300 C   0  0  0  0  0  0  0  0  0  0  0  0
   12.7140   -9.0200   11.9750 C   0  0  0  0  0  0  0  0  0  0  0  0
   13.1800   -8.2040   13.0050 C   0  0  0  0  0  0  0  0  0  0  0  0
   14.4280   -7.4010   12.8930 C   0  0  0  0  0  0  0  0  0  0  0  0
   15.4950   -7.9360   12.6010 O   0  0  0  0  0  0  0  0  0  0  0  0
   14.3170   -6.0370   13.0960 N   0  0  0  0  0  0  0  0  0  0  0  0
   15.4400   -5.2570   12.7170 N   0  0  0  0  0  0  0  0  0  0  0  0
   15.1640   -4.1860   11.8710 C   0  0  0  0  0  0  0  0  0  0  0  0
   14.0070   -3.8580   11.6260 O   0  0  0  0  0  0  0  0  0  0  0  0
   16.3260   -3.5950   11.4270 N   0  0  0  0  0  0  0  0  0  0  0  0
   16.4740   -2.5260   10.5060 C   0  0  0  0  0  0  0  0  0  0  0  0
   15.4010   -1.6740   10.2130 C   0  0  0  0  0  0  0  0  0  0  0  0
   15.5420   -0.6310    9.3020 C   0  0  0  0  0  0  0  0  0  0  0  0
   16.7580   -0.4250    8.6640 C   0  0  0  0  0  0  0  0  0  0  0  0
   17.8530   -1.2590    8.9220 C   0  0  0  0  0  0  0  0  0  0  0  0
   19.0670   -1.0220    8.2540 C   0  0  0  0  0  0  0  0  0  0  0  0
   20.1800   -1.8270    8.4790 C   0  0  0  0  0  0  0  0  0  0  0  0
   20.0940   -2.8790    9.3770 C   0  0  0  0  0  0  0  0  0  0  0  0
   18.8930   -3.1260   10.0510 C   0  0  0  0  0  0  0  0  0  0  0  0
   17.7340   -2.3300    9.8490 C   0  0  0  0  0  0  0  0  0  0  0  0
   12.4420   -8.1220   14.1840 C   0  0  0  0  0  0  0  0  0  0  0  0
   11.2560   -8.8680   14.3260 C   0  0  0  0  0  0  0  0  0  0  0  0
   10.6200   -8.7270   15.6210 N   0  0  0  0  0  0  0  0  0  0  0  0
   10.9100   -9.5690   16.4800 O   0  0  0  0  0  0  0  0  0  0  0  0
    9.8050   -7.8050   15.7510 O   0  0  0  0  0  0  0  0  0  0  0  0
    9.6203  -11.4035   15.3820 H   0  0  0  0  0  0  0  0  0  0  0  0
    8.9325  -12.5189   14.1534 H   0  0  0  0  0  0  0  0  0  0  0  0
   10.6920  -12.1576   14.1534 H   0  0  0  0  0  0  0  0  0  0  0  0
    8.3890  -12.0294   12.1820 H   0  0  0  0  0  0  0  0  0  0  0  0
    8.4560  -10.3896   11.4518 H   0  0  0  0  0  0  0  0  0  0  0  0
    9.9181  -11.4332   11.4518 H   0  0  0  0  0  0  0  0  0  0  0  0
    8.1907   -9.7426   14.9768 H   0  0  0  0  0  0  0  0  0  0  0  0
    8.2667   -8.7233   13.4996 H   0  0  0  0  0  0  0  0  0  0  0  0
    7.2944  -10.2337   13.4996 H   0  0  0  0  0  0  0  0  0  0  0  0
   11.1958  -10.4015   11.3032 H   0  0  0  0  0  0  0  0  0  0  0  0
   13.2797   -9.0882   11.0341 H   0  0  0  0  0  0  0  0  0  0  0  0
   13.4240   -5.5660   12.9440 H   0  0  0  0  0  0  0  0  0  0  0  0
   16.2450   -5.8330   12.4700 H   0  0  0  0  0  0  0  0  0  0  0  0
   17.1530   -3.8990   11.9130 H   0  0  0  0  0  0  0  0  0  0  0  0
   14.4326   -1.8317   10.7103 H   0  0  0  0  0  0  0  0  0  0  0  0
   14.6897    0.0304    9.0874 H   0  0  0  0  0  0  0  0  0  0  0  0
   16.8624    0.4031    7.9475 H   0  0  0  0  0  0  0  0  0  0  0  0
   19.1385   -0.1867    7.5418 H   0  0  0  0  0  0  0  0  0  0  0  0
   21.1224   -1.6293    7.9471 H   0  0  0  0  0  0  0  0  0  0  0  0
   20.9694   -3.5195    9.5598 H   0  0  0  0  0  0  0  0  0  0  0  0
   18.8447   -3.9647   10.7611 H   0  0  0  0  0  0  0  0  0  0  0  0
   12.7858   -7.4744   15.0040 H   0  0  0  0  0  0  0  0  0  0  0  0
  1  2  1  0
  2  3  1  0
  2  4  1  0
  2  5  1  0
  5  6  2  0
  6  7  1  0
  7  8  2  0
  8  9  1  0
  9 10  2  0
  9 11  1  0
 11 12  1  0
 12 13  1  0
 13 14  2  0
 13 15  1  0
 15 16  1  0
 16 17  2  0
 17 18  1  0
 18 19  2  0
 19 20  1  0
 20 21  2  0
 21 22  1  0
 22 23  2  0
 23 24  1  0
 24 25  2  0
  8 26  1  0
 26 27  2  0
 27 28  1  0
 28 29  2  0
 28 30  1  0
 27  5  1  0
 25 16  1  0
 25 20  1  0
  1 31  1  0
  1 32  1  0
  1 33  1  0
  3 34  1  0
  3 35  1  0
  3 36  1  0
  4 37  1  0
  4 38  1  0
  4 39  1  0
  6 40  1  0
  7 41  1  0
 11 42  1  0
 12 43  1  0
 15 44  1  0
 17 45  1  0
 18 46  1  0
 19 47  1  0
 21 48  1  0
 22 49  1  0
 23 50  1  0
 24 51  1  0
 26 52  1  0
M  CHG  2  28   1  30  -1
M  END
>  <meeko>  (3) 
{"is_sidechain": [false], "free_energy": -8.24, "intermolecular_energy": -11.039, "internal_energy": 0.004}

$$$$
3jvs_ligand
     RDKit          3D

 52 54  0  0  0  0  0  0  0  0999 V2000
   15.4480  -10.5390   21.4750 C   0  0  0  0  0  0  0  0  0  0  0  0
   14.3960   -9.6590   20.7690 C   0  0  0  0  0  0  0  0  0  0  0  0
   13.3650  -10.6260   20.1190 C   0  0  0  0  0  0  0  0  0  0  0  0
   13.5890   -8.8740   21.8270 C   0  0  0  0  0  0  0  0  0  0  0  0
   15.1100   -8.7570   19.7280 C   0  0  0  0  0  0  0  0  0  0  0  0
   16.4690   -8.9940   19.4210 C   0  0  0  0  0  0  0  0  0  0  0  0
   17.1860   -8.2190   18.4920 C   0  0  0  0  0  0  0  0  0  0  0  0
   16.5720   -7.1510   17.8390 C   0  0  0  0  0  0  0  0  0  0  0  0
   17.2820   -6.3010   16.8450 C   0  0  0  0  0  0  0  0  0  0  0  0
   18.3890   -6.6230   16.4220 O   0  0  0  0  0  0  0  0  0  0  0  0
   16.6230   -5.1680   16.4040 N   0  0  0  0  0  0  0  0  0  0  0  0
   17.1800   -4.5260   15.2680 N   0  0  0  0  0  0  0  0  0  0  0  0
   16.2590   -3.9350   14.4060 C   0  0  0  0  0  0  0  0  0  0  0  0
   15.0760   -3.8390   14.7160 O   0  0  0  0  0  0  0  0  0  0  0  0
   16.8740   -3.4870   13.2570 N   0  0  0  0  0  0  0  0  0  0  0  0
   16.2800   -2.8940   12.1140 C   0  0  0  0  0  0  0  0  0  0  0  0
   14.8890   -2.8990   11.9420 C   0  0  0  0  0  0  0  0  0  0  0  0
   14.3050   -2.3260   10.8150 C   0  0  0  0  0  0  0  0  0  0  0  0
   15.1030   -1.7430    9.8390 C   0  0  0  0  0  0  0  0  0  0  0  0
   16.4960   -1.7260    9.9680 C   0  0  0  0  0  0  0  0  0  0  0  0
   17.2710   -1.1310    8.9580 C   0  0  0  0  0  0  0  0  0  0  0  0
   18.6600   -1.0920    9.0450 C   0  0  0  0  0  0  0  0  0  0  0  0
   19.2920   -1.6470   10.1460 C   0  0  0  0  0  0  0  0  0  0  0  0
   18.5350   -2.2420   11.1610 C   0  0  0  0  0  0  0  0  0  0  0  0
   17.1160   -2.3030   11.1100 C   0  0  0  0  0  0  0  0  0  0  0  0
   15.2340   -6.8750   18.1140 C   0  0  0  0  0  0  0  0  0  0  0  0
   14.5300   -7.6590   19.0490 C   0  0  0  0  0  0  0  0  0  0  0  0
   13.1650   -7.2260   19.2740 N   0  0  0  0  0  0  0  0  0  0  0  0
   12.2700   -7.9120   18.7610 O   0  0  0  0  0  0  0  0  0  0  0  0
   13.0030   -6.1840   19.9200 O   0  0  0  0  0  0  0  0  0  0  0  0
   15.3340  -10.4436   22.5649 H   0  0  0  0  0  0  0  0  0  0  0  0
   15.3038  -11.5893   21.1818 H   0  0  0  0  0  0  0  0  0  0  0  0
   16.4564  -10.2115   21.1818 H   0  0  0  0  0  0  0  0  0  0  0  0
   12.8060  -11.1503   20.9081 H   0  0  0  0  0  0  0  0  0  0  0  0
   12.6656  -10.0506   19.4947 H   0  0  0  0  0  0  0  0  0  0  0  0
   13.8945  -11.3608   19.4947 H   0  0  0  0  0  0  0  0  0  0  0  0
   13.9066   -9.1829   22.8338 H   0  0  0  0  0  0  0  0  0  0  0  0
   13.7692   -7.7963   21.7002 H   0  0  0  0  0  0  0  0  0  0  0  0
   12.5167   -9.0839   21.7002 H   0  0  0  0  0  0  0  0  0  0  0  0
   16.9879   -9.8195   19.9302 H   0  0  0  0  0  0  0  0  0  0  0  0
   18.2386   -8.4571   18.2790 H   0  0  0  0  0  0  0  0  0  0  0  0
   15.6030   -5.1180   16.4410 H   0  0  0  0  0  0  0  0  0  0  0  0
   17.9160   -5.0810   14.8320 H   0  0  0  0  0  0  0  0  0  0  0  0
   17.8790   -3.4890   13.3020 H   0  0  0  0  0  0  0  0  0  0  0  0
   14.2496   -3.3620   12.7080 H   0  0  0  0  0  0  0  0  0  0  0  0
   13.2113   -2.3351   10.6977 H   0  0  0  0  0  0  0  0  0  0  0  0
   14.6339   -1.2890    8.9536 H   0  0  0  0  0  0  0  0  0  0  0  0
   16.7716   -0.6884    8.0835 H   0  0  0  0  0  0  0  0  0  0  0  0
   19.2518   -0.6236    8.2448 H   0  0  0  0  0  0  0  0  0  0  0  0
   20.3890   -1.6198   10.2221 H   0  0  0  0  0  0  0  0  0  0  0  0
   19.0553   -2.6770   12.0271 H   0  0  0  0  0  0  0  0  0  0  0  0
   14.7273   -6.0445   17.6007 H   0  0  0  0  0  0  0  0  0  0  0  0
  1  2  1  0
  2  3  1  0
  2  4  1  0
  2  5  1  0
  5  6  2  0
  6  7  1  0
  7  8  2  0
  8  9  1  0
  9 10  2  0
  9 11  1  0
 11 12  1  0
 12 13  1  0
 13 14  2  0
 13 15  1  0
 15 16  1  0
 16 17  2  0
 17 18  1  0
 18 19  2  0
 19 20  1  0
 20 21  2  0
 21 22  1  0
 22 23  2  0
 23 24  1  0
 24 25  2  0
  8 26  1  0
 26 27  2  0
 27 28  1  0
 28 29  2  0
 28 30  1  0
 27  5  1  0
 25 16  1  0
 25 20  1  0
  1 31  1  0
  1 32  1  0
  1 33  1  0
  3 34  1  0
  3 35  1  0
  3 36  1  0
  4 37  1  0
  4 38  1  0
  4 39  1  0
  6 40  1  0
  7 41  1  0
 11 42  1  0
 12 43  1  0
 15 44  1  0
 17 45  1  0
 18 46  1  0
 19 47  1  0
 21 48  1  0
 22 49  1  0
 23 50  1  0
 24 51  1  0
 26 52  1  0
M  CHG  2  28   1  30  -1
M  END
>  <meeko>  (4) 
{"is_sidechain": [false], "free_energy": -8.203, "intermolecular_energy": -11.0, "internal_energy": 0.013}

$$$$
3jvs_ligand
     RDKit          3D

 52 54  0  0  0  0  0  0  0  0999 V2000
    7.7900   -9.6550   14.0050 C   0  0  0  0  0  0  0  0  0  0  0  0
    8.9770  -10.2060   14.8210 C   0  0  0  0  0  0  0  0  0  0  0  0
    8.6780   -9.8960   16.3160 C   0  0  0  0  0  0  0  0  0  0  0  0
    8.9890  -11.7500   14.7330 C   0  0  0  0  0  0  0  0  0  0  0  0
   10.2850   -9.5400   14.3210 C   0  0  0  0  0  0  0  0  0  0  0  0
   11.0510   -8.7570   15.2150 C   0  0  0  0  0  0  0  0  0  0  0  0
   12.2450   -8.1190   14.8370 C   0  0  0  0  0  0  0  0  0  0  0  0
   12.7200   -8.2240   13.5290 C   0  0  0  0  0  0  0  0  0  0  0  0
   13.9790   -7.5730   13.0770 C   0  0  0  0  0  0  0  0  0  0  0  0
   14.7090   -8.1230   12.2560 O   0  0  0  0  0  0  0  0  0  0  0  0
   14.2600   -6.3220   13.5950 N   0  0  0  0  0  0  0  0  0  0  0  0
   15.3030   -5.6030   12.9550 N   0  0  0  0  0  0  0  0  0  0  0  0
   14.9100   -4.4340   12.3080 C   0  0  0  0  0  0  0  0  0  0  0  0
   13.7740   -3.9900   12.4410 O   0  0  0  0  0  0  0  0  0  0  0  0
   15.9510   -3.8980   11.5810 N   0  0  0  0  0  0  0  0  0  0  0  0
   15.9400   -2.7590   10.7360 C   0  0  0  0  0  0  0  0  0  0  0  0
   14.7830   -1.9830   10.5890 C   0  0  0  0  0  0  0  0  0  0  0  0
   14.7680   -0.8700    9.7520 C   0  0  0  0  0  0  0  0  0  0  0  0
   15.9090   -0.5180    9.0430 C   0  0  0  0  0  0  0  0  0  0  0  0
   17.0830   -1.2730    9.1550 C   0  0  0  0  0  0  0  0  0  0  0  0
   18.2170   -0.8890    8.4190 C   0  0  0  0  0  0  0  0  0  0  0  0
   19.4050   -1.6100    8.4990 C   0  0  0  0  0  0  0  0  0  0  0  0
   19.4740   -2.7260    9.3180 C   0  0  0  0  0  0  0  0  0  0  0  0
   18.3550   -3.1200   10.0580 C   0  0  0  0  0  0  0  0  0  0  0  0
   17.1240   -2.4120   10.0040 C   0  0  0  0  0  0  0  0  0  0  0  0
   11.9960   -8.9810   12.6110 C   0  0  0  0  0  0  0  0  0  0  0  0
   10.8000   -9.6120   13.0040 C   0  0  0  0  0  0  0  0  0  0  0  0
   10.1260  -10.3210   11.9340 N   0  0  0  0  0  0  0  0  0  0  0  0
    9.4590   -9.6390   11.1450 O   0  0  0  0  0  0  0  0  0  0  0  0
   10.2330  -11.5540   11.9200 O   0  0  0  0  0  0  0  0  0  0  0  0
    7.0101   -9.2930   14.6910 H   0  0  0  0  0  0  0  0  0  0  0  0
    8.1348   -8.8249   13.3710 H   0  0  0  0  0  0  0  0  0  0  0  0
    7.3785  -10.4542   13.3710 H   0  0  0  0  0  0  0  0  0  0  0  0
    9.2994  -10.5402   16.9554 H   0  0  0  0  0  0  0  0  0  0  0  0
    8.9081   -8.8408   16.5248 H   0  0  0  0  0  0  0  0  0  0  0  0
    7.6152  -10.0878   16.5248 H   0  0  0  0  0  0  0  0  0  0  0  0
    8.9923  -12.1751   15.7475 H   0  0  0  0  0  0  0  0  0  0  0  0
    8.0935  -12.0935   14.1944 H   0  0  0  0  0  0  0  0  0  0  0  0
    9.8897  -12.0796   14.1944 H   0  0  0  0  0  0  0  0  0  0  0  0
   10.6975   -8.6423   16.2503 H   0  0  0  0  0  0  0  0  0  0  0  0
   12.8090   -7.5328   15.5774 H   0  0  0  0  0  0  0  0  0  0  0  0
   13.5050   -5.7260   13.9380 H   0  0  0  0  0  0  0  0  0  0  0  0
   15.9350   -6.2150   12.4400 H   0  0  0  0  0  0  0  0  0  0  0  0
   16.8450   -4.3150   11.7760 H   0  0  0  0  0  0  0  0  0  0  0  0
   13.8729   -2.2568   11.1428 H   0  0  0  0  0  0  0  0  0  0  0  0
   13.8518   -0.2694    9.6525 H   0  0  0  0  0  0  0  0  0  0  0  0
   15.8904    0.3640    8.3859 H   0  0  0  0  0  0  0  0  0  0  0  0
   18.1649   -0.0035    7.7685 H   0  0  0  0  0  0  0  0  0  0  0  0
   20.2834   -1.2961    7.9160 H   0  0  0  0  0  0  0  0  0  0  0  0
   20.4089   -3.3016    9.3858 H   0  0  0  0  0  0  0  0  0  0  0  0
   18.4300   -4.0076   10.7035 H   0  0  0  0  0  0  0  0  0  0  0  0
   12.3588   -9.0861   11.5779 H   0  0  0  0  0  0  0  0  0  0  0  0
  1  2  1  0
  2  3  1  0
  2  4  1  0
  2  5  1  0
  5  6  2  0
  6  7  1  0
  7  8  2  0
  8  9  1  0
  9 10  2  0
  9 11  1  0
 11 12  1  0
 12 13  1  0
 13 14  2  0
 13 15  1  0
 15 16  1  0
 16 17  2  0
 17 18  1  0
 18 19  2  0
 19 20  1  0
 20 21  2  0
 21 22  1  0
 22 23  2  0
 23 24  1  0
 24 25  2  0
  8 26  1  0
 26 27  2  0
 27 28  1  0
 28 29  2  0
 28 30  1  0
 27  5  1  0
 25 16  1  0
 25 20  1  0
  1 31  1  0
  1 32  1  0
  1 33  1  0
  3 34  1  0
  3 35  1  0
  3 36  1  0
  4 37  1  0
  4 38  1  0
  4 39  1  0
  6 40  1  0
  7 41  1  0
 11 42  1  0
 12 43  1  0
 15 44  1  0
 17 45  1  0
 18 46  1  0
 19 47  1  0
 21 48  1  0
 22 49  1  0
 23 50  1  0
 24 51  1  0
 26 52  1  0
M  CHG  2  28   1  30  -1
M  END
>  <meeko>  (5) 
{"is_sidechain": [false], "free_energy": -8.145, "intermolecular_energy": -10.989, "internal_energy": 0.077}

$$$$
3jvs_ligand
     RDKit          3D

 52 54  0  0  0  0  0  0  0  0999 V2000
   20.5260  -10.2250   20.2570 C   0  0  0  0  0  0  0  0  0  0  0  0
   21.0980   -9.6430   18.9490 C   0  0  0  0  0  0  0  0  0  0  0  0
   22.3970   -8.8750   19.3290 C   0  0  0  0  0  0  0  0  0  0  0  0
   21.5740  -10.7970   18.0380 C   0  0  0  0  0  0  0  0  0  0  0  0
   20.0310   -8.7270   18.2950 C   0  0  0  0  0  0  0  0  0  0  0  0
   18.7650   -8.5890   18.9100 C   0  0  0  0  0  0  0  0  0  0  0  0
   17.7440   -7.7820   18.3780 C   0  0  0  0  0  0  0  0  0  0  0  0
   17.9430   -7.0850   17.1860 C   0  0  0  0  0  0  0  0  0  0  0  0
   16.9000   -6.2130   16.5810 C   0  0  0  0  0  0  0  0  0  0  0  0
   15.7140   -6.3670   16.8620 O   0  0  0  0  0  0  0  0  0  0  0  0
   17.3340   -5.2140   15.7290 N   0  0  0  0  0  0  0  0  0  0  0  0
   16.3730   -4.2280   15.3840 N   0  0  0  0  0  0  0  0  0  0  0  0
   15.9680   -4.2310   14.0520 C   0  0  0  0  0  0  0  0  0  0  0  0
   16.3000   -5.1370   13.2930 O   0  0  0  0  0  0  0  0  0  0  0  0
   15.1680   -3.1440   13.7760 N   0  0  0  0  0  0  0  0  0  0  0  0
   14.6130   -2.7530   12.5310 C   0  0  0  0  0  0  0  0  0  0  0  0
   13.2270   -2.7810   12.3200 C   0  0  0  0  0  0  0  0  0  0  0  0
   12.6810   -2.4060   11.0960 C   0  0  0  0  0  0  0  0  0  0  0  0
   13.5120   -2.0020   10.0580 C   0  0  0  0  0  0  0  0  0  0  0  0
   14.9010   -1.9680   10.2250 C   0  0  0  0  0  0  0  0  0  0  0  0
   15.7100   -1.5570    9.1520 C   0  0  0  0  0  0  0  0  0  0  0  0
   17.0960   -1.5090    9.2730 C   0  0  0  0  0  0  0  0  0  0  0  0
   17.6910   -1.8710   10.4710 C   0  0  0  0  0  0  0  0  0  0  0  0
   16.9000   -2.2800   11.5490 C   0  0  0  0  0  0  0  0  0  0  0  0
   15.4830   -2.3440   11.4660 C   0  0  0  0  0  0  0  0  0  0  0  0
   19.1730   -7.1940   16.5410 C   0  0  0  0  0  0  0  0  0  0  0  0
   20.1850   -8.0100   17.0850 C   0  0  0  0  0  0  0  0  0  0  0  0
   21.3900   -8.0700   16.2830 N   0  0  0  0  0  0  0  0  0  0  0  0
   22.2810   -7.2530   16.5510 O   0  0  0  0  0  0  0  0  0  0  0  0
   21.4170   -8.9000   15.3660 O   0  0  0  0  0  0  0  0  0  0  0  0
   21.0067   -9.7359   21.1170 H   0  0  0  0  0  0  0  0  0  0  0  0
   19.4410  -10.0476   20.2936 H   0  0  0  0  0  0  0  0  0  0  0  0
   20.7221  -11.3068   20.2936 H   0  0  0  0  0  0  0  0  0  0  0  0
   22.4851   -8.8229   20.4242 H   0  0  0  0  0  0  0  0  0  0  0  0
   23.2692   -9.4027   18.9157 H   0  0  0  0  0  0  0  0  0  0  0  0
   22.3550   -7.8565   18.9157 H   0  0  0  0  0  0  0  0  0  0  0  0
   21.9201  -11.6360   18.6596 H   0  0  0  0  0  0  0  0  0  0  0  0
   20.7401  -11.1307   17.4030 H   0  0  0  0  0  0  0  0  0  0  0  0
   22.4007  -10.4457   17.4030 H   0  0  0  0  0  0  0  0  0  0  0  0
   18.5709   -9.1363   19.8442 H   0  0  0  0  0  0  0  0  0  0  0  0
   16.7820   -7.6996   18.9051 H   0  0  0  0  0  0  0  0  0  0  0  0
   18.2830   -4.8460   15.8090 H   0  0  0  0  0  0  0  0  0  0  0  0
   16.5900   -3.3180   15.7890 H   0  0  0  0  0  0  0  0  0  0  0  0
   14.8610   -2.6420   14.5920 H   0  0  0  0  0  0  0  0  0  0  0  0
   12.5614   -3.1042   13.1340 H   0  0  0  0  0  0  0  0  0  0  0  0
   11.5910   -2.4294   10.9501 H   0  0  0  0  0  0  0  0  0  0  0  0
   13.0729   -1.7055    9.0940 H   0  0  0  0  0  0  0  0  0  0  0  0
   15.2401   -1.2683    8.2003 H   0  0  0  0  0  0  0  0  0  0  0  0
   17.7149   -1.1858    8.4230 H   0  0  0  0  0  0  0  0  0  0  0  0
   18.7856   -1.8366   10.5739 H   0  0  0  0  0  0  0  0  0  0  0  0
   17.3908   -2.5615   12.4923 H   0  0  0  0  0  0  0  0  0  0  0  0
   19.3544   -6.6428   15.6065 H   0  0  0  0  0  0  0  0  0  0  0  0
  1  2  1  0
  2  3  1  0
  2  4  1  0
  2  5  1  0
  5  6  2  0
  6  7  1  0
  7  8  2  0
  8  9  1  0
  9 10  2  0
  9 11  1  0
 11 12  1  0
 12 13  1  0
 13 14  2  0
 13 15  1  0
 15 16  1  0
 16 17  2  0
 17 18  1  0
 18 19  2  0
 19 20  1  0
 20 21  2  0
 21 22  1  0
 22 23  2  0
 23 24  1  0
 24 25  2  0
  8 26  1  0
 26 27  2  0
 27 28  1  0
 28 29  2  0
 28 30  1  0
 27  5  1  0
 25 16  1  0
 25 20  1  0
  1 31  1  0
  1 32  1  0
  1 33  1  0
  3 34  1  0
  3 35  1  0
  3 36  1  0
  4 37  1  0
  4 38  1  0
  4 39  1  0
  6 40  1  0
  7 41  1  0
 11 42  1  0
 12 43  1  0
 15 44  1  0
 17 45  1  0
 18 46  1  0
 19 47  1  0
 21 48  1  0
 22 49  1  0
 23 50  1  0
 24 51  1  0
 26 52  1  0
M  CHG  2  28   1  30  -1
M  END
>  <meeko>  (6) 
{"is_sidechain": [false], "free_energy": -8.129, "intermolecular_energy": -10.613, "internal_energy": -0.279}

$$$$
3jvs_ligand
     RDKit          3D

 52 54  0  0  0  0  0  0  0  0999 V2000
   17.9260   -7.7960   19.6680 C   0  0  0  0  0  0  0  0  0  0  0  0
   18.5170   -8.8510   18.7100 C   0  0  0  0  0  0  0  0  0  0  0  0
   20.0460   -8.9080   18.9900 C   0  0  0  0  0  0  0  0  0  0  0  0
   17.9920  -10.2520   19.1000 C   0  0  0  0  0  0  0  0  0  0  0  0
   18.1900   -8.4450   17.2490 C   0  0  0  0  0  0  0  0  0  0  0  0
   17.2840   -7.3860   17.0090 C   0  0  0  0  0  0  0  0  0  0  0  0
   16.9340   -6.9610   15.7160 C   0  0  0  0  0  0  0  0  0  0  0  0
   17.4680   -7.5960   14.5950 C   0  0  0  0  0  0  0  0  0  0  0  0
   17.1360   -7.1840   13.2040 C   0  0  0  0  0  0  0  0  0  0  0  0
   16.2270   -7.7340   12.5870 O   0  0  0  0  0  0  0  0  0  0  0  0
   17.8710   -6.1430   12.6660 N   0  0  0  0  0  0  0  0  0  0  0  0
   17.3670   -5.5820   11.4630 N   0  0  0  0  0  0  0  0  0  0  0  0
   17.2990   -4.1920   11.4370 C   0  0  0  0  0  0  0  0  0  0  0  0
   17.8020   -3.5180   12.3300 O   0  0  0  0  0  0  0  0  0  0  0  0
   16.6470   -3.7510   10.3060 N   0  0  0  0  0  0  0  0  0  0  0  0
   16.3160   -2.4200    9.9430 C   0  0  0  0  0  0  0  0  0  0  0  0
   17.2240   -1.6190    9.2360 C   0  0  0  0  0  0  0  0  0  0  0  0
   16.9040   -0.3100    8.8880 C   0  0  0  0  0  0  0  0  0  0  0  0
   15.6720    0.2230    9.2450 C   0  0  0  0  0  0  0  0  0  0  0  0
   14.7400   -0.5400    9.9580 C   0  0  0  0  0  0  0  0  0  0  0  0
   13.5060    0.0340   10.3050 C   0  0  0  0  0  0  0  0  0  0  0  0
   12.5500   -0.6880   11.0140 C   0  0  0  0  0  0  0  0  0  0  0  0
   12.8180   -1.9960   11.3850 C   0  0  0  0  0  0  0  0  0  0  0  0
   14.0410   -2.5830   11.0460 C   0  0  0  0  0  0  0  0  0  0  0  0
   15.0430   -1.8800   10.3240 C   0  0  0  0  0  0  0  0  0  0  0  0
   18.3620   -8.6490   14.7810 C   0  0  0  0  0  0  0  0  0  0  0  0
   18.7000   -9.0650   16.0830 C   0  0  0  0  0  0  0  0  0  0  0  0
   19.5970  -10.2020   16.1250 N   0  0  0  0  0  0  0  0  0  0  0  0
   20.8040   -9.9670   15.9780 O   0  0  0  0  0  0  0  0  0  0  0  0
   19.0850  -11.3200   16.2590 O   0  0  0  0  0  0  0  0  0  0  0  0
   18.1003   -8.1071   20.7086 H   0  0  0  0  0  0  0  0  0  0  0  0
   18.4117   -6.8254   19.4892 H   0  0  0  0  0  0  0  0  0  0  0  0
   16.8446   -7.7033   19.4892 H   0  0  0  0  0  0  0  0  0  0  0  0
   20.2199   -8.9145   20.0762 H   0  0  0  0  0  0  0  0  0  0  0  0
   20.4662   -9.8224   18.5459 H   0  0  0  0  0  0  0  0  0  0  0  0
   20.5332   -8.0274   18.5459 H   0  0  0  0  0  0  0  0  0  0  0  0
   17.9593  -10.3393   20.1960 H   0  0  0  0  0  0  0  0  0  0  0  0
   16.9806  -10.3916   18.6907 H   0  0  0  0  0  0  0  0  0  0  0  0
   18.6626  -11.0219   18.6907 H   0  0  0  0  0  0  0  0  0  0  0  0
   16.8338   -6.8728   17.8716 H   0  0  0  0  0  0  0  0  0  0  0  0
   16.2343   -6.1220   15.5873 H   0  0  0  0  0  0  0  0  0  0  0  0
   18.3180   -5.4590   13.2780 H   0  0  0  0  0  0  0  0  0  0  0  0
   16.5490   -6.0830   11.1160 H   0  0  0  0  0  0  0  0  0  0  0  0
   16.4970   -4.4650    9.6130 H   0  0  0  0  0  0  0  0  0  0  0  0
   18.2036   -2.0312    8.9522 H   0  0  0  0  0  0  0  0  0  0  0  0
   17.6272    0.3028    8.3299 H   0  0  0  0  0  0  0  0  0  0  0  0
   15.4257    1.2576    8.9639 H   0  0  0  0  0  0  0  0  0  0  0  0
   13.2912    1.0721   10.0114 H   0  0  0  0  0  0  0  0  0  0  0  0
   11.5885   -0.2234   11.2779 H   0  0  0  0  0  0  0  0  0  0  0  0
   12.0683   -2.5728   11.9465 H   0  0  0  0  0  0  0  0  0  0  0  0
   14.2338   -3.6230   11.3481 H   0  0  0  0  0  0  0  0  0  0  0  0
   18.8038   -9.1553   13.9101 H   0  0  0  0  0  0  0  0  0  0  0  0
  1  2  1  0
  2  3  1  0
  2  4  1  0
  2  5  1  0
  5  6  2  0
  6  7  1  0
  7  8  2  0
  8  9  1  0
  9 10  2  0
  9 11  1  0
 11 12  1  0
 12 13  1  0
 13 14  2  0
 13 15  1  0
 15 16  1  0
 16 17  2  0
 17 18  1  0
 18 19  2  0
 19 20  1  0
 20 21  2  0
 21 22  1  0
 22 23  2  0
 23 24  1  0
 24 25  2  0
  8 26  1  0
 26 27  2  0
 27 28  1  0
 28 29  2  0
 28 30  1  0
 27  5  1  0
 25 16  1  0
 25 20  1  0
  1 31  1  0
  1 32  1  0
  1 33  1  0
  3 34  1  0
  3 35  1  0
  3 36  1  0
  4 37  1  0
  4 38  1  0
  4 39  1  0
  6 40  1  0
  7 41  1  0
 11 42  1  0
 12 43  1  0
 15 44  1  0
 17 45  1  0
 18 46  1  0
 19 47  1  0
 21 48  1  0
 22 49  1  0
 23 50  1  0
 24 51  1  0
 26 52  1  0
M  CHG  2  28   1  30  -1
M  END
>  <meeko>  (7) 
{"is_sidechain": [false], "free_energy": -8.12, "intermolecular_energy": -10.405, "internal_energy": -0.475}

$$$$
3jvs_ligand
     RDKit          3D

 52 54  0  0  0  0  0  0  0  0999 V2000
   14.9060   -1.2120    9.8210 C   0  0  0  0  0  0  0  0  0  0  0  0
   13.6730   -1.5830   10.6690 C   0  0  0  0  0  0  0  0  0  0  0  0
   13.0280   -0.2460   11.1350 C   0  0  0  0  0  0  0  0  0  0  0  0
   12.6060   -2.2410    9.7640 C   0  0  0  0  0  0  0  0  0  0  0  0
   14.1260   -2.4750   11.8540 C   0  0  0  0  0  0  0  0  0  0  0  0
   15.4960   -2.7940   11.9980 C   0  0  0  0  0  0  0  0  0  0  0  0
   15.9840   -3.5980   13.0430 C   0  0  0  0  0  0  0  0  0  0  0  0
   15.1110   -4.1380   13.9870 C   0  0  0  0  0  0  0  0  0  0  0  0
   15.5750   -4.9910   15.1150 C   0  0  0  0  0  0  0  0  0  0  0  0
   16.7450   -5.3580   15.1840 O   0  0  0  0  0  0  0  0  0  0  0  0
   14.6410   -5.3130   16.0830 N   0  0  0  0  0  0  0  0  0  0  0  0
   15.1530   -5.8830   17.2770 N   0  0  0  0  0  0  0  0  0  0  0  0
   14.5860   -7.1000   17.6480 C   0  0  0  0  0  0  0  0  0  0  0  0
   13.8270   -7.6980   16.8920 O   0  0  0  0  0  0  0  0  0  0  0  0
   15.0230   -7.4890   18.8960 N   0  0  0  0  0  0  0  0  0  0  0  0
   14.6320   -8.6230   19.6510 C   0  0  0  0  0  0  0  0  0  0  0  0
   15.4830   -9.7290   19.7820 C   0  0  0  0  0  0  0  0  0  0  0  0
   15.0970  -10.8480   20.5150 C   0  0  0  0  0  0  0  0  0  0  0  0
   13.8500  -10.8820   21.1260 C   0  0  0  0  0  0  0  0  0  0  0  0
   12.9670   -9.8020   21.0130 C   0  0  0  0  0  0  0  0  0  0  0  0
   11.7130   -9.8740   21.6420 C   0  0  0  0  0  0  0  0  0  0  0  0
   10.8030   -8.8240   21.5550 C   0  0  0  0  0  0  0  0  0  0  0  0
   11.1380   -7.6860   20.8380 C   0  0  0  0  0  0  0  0  0  0  0  0
   12.3830   -7.5990   20.2070 C   0  0  0  0  0  0  0  0  0  0  0  0
   13.3390   -8.6480   20.2710 C   0  0  0  0  0  0  0  0  0  0  0  0
   13.7510   -3.8550   13.8840 C   0  0  0  0  0  0  0  0  0  0  0  0
   13.2760   -3.0500   12.8300 C   0  0  0  0  0  0  0  0  0  0  0  0
   11.8370   -2.8830   12.8160 N   0  0  0  0  0  0  0  0  0  0  0  0
   11.3760   -1.9550   13.4940 O   0  0  0  0  0  0  0  0  0  0  0  0
   11.1790   -3.7060   12.1670 O   0  0  0  0  0  0  0  0  0  0  0  0
   15.7455   -0.9594   10.4855 H   0  0  0  0  0  0  0  0  0  0  0  0
   15.1849   -2.0660    9.1863 H   0  0  0  0  0  0  0  0  0  0  0  0
   14.6673   -0.3459    9.1863 H   0  0  0  0  0  0  0  0  0  0  0  0
   13.0110   -0.2107   12.2343 H   0  0  0  0  0  0  0  0  0  0  0  0
   13.6174    0.5992   10.7501 H   0  0  0  0  0  0  0  0  0  0  0  0
   11.9996   -0.1813   10.7501 H   0  0  0  0  0  0  0  0  0  0  0  0
   11.8363   -2.7157   10.3902 H   0  0  0  0  0  0  0  0  0  0  0  0
   12.1399   -1.4733    9.1289 H   0  0  0  0  0  0  0  0  0  0  0  0
   13.0827   -3.0022    9.1289 H   0  0  0  0  0  0  0  0  0  0  0  0
   16.2099   -2.3964   11.2616 H   0  0  0  0  0  0  0  0  0  0  0  0
   17.0623   -3.8026   13.1166 H   0  0  0  0  0  0  0  0  0  0  0  0
   13.8290   -4.7120   16.2340 H   0  0  0  0  0  0  0  0  0  0  0  0
   15.2650   -5.1910   18.0190 H   0  0  0  0  0  0  0  0  0  0  0  0
   15.7960   -6.9480   19.2470 H   0  0  0  0  0  0  0  0  0  0  0  0
   16.4708   -9.7126   19.2983 H   0  0  0  0  0  0  0  0  0  0  0  0
   15.7796  -11.7053   20.6103 H   0  0  0  0  0  0  0  0  0  0  0  0
   13.5529  -11.7684   21.7056 H   0  0  0  0  0  0  0  0  0  0  0  0
   11.4455  -10.7753   22.2130 H   0  0  0  0  0  0  0  0  0  0  0  0
    9.8244   -8.8970   22.0521 H   0  0  0  0  0  0  0  0  0  0  0  0
   10.4248   -6.8517   20.7654 H   0  0  0  0  0  0  0  0  0  0  0  0
   12.6303   -6.6880   19.6423 H   0  0  0  0  0  0  0  0  0  0  0  0
   13.0475   -4.2603   14.6261 H   0  0  0  0  0  0  0  0  0  0  0  0
  1  2  1  0
  2  3  1  0
  2  4  1  0
  2  5  1  0
  5  6  2  0
  6  7  1  0
  7  8  2  0
  8  9  1  0
  9 10  2  0
  9 11  1  0
 11 12  1  0
 12 13  1  0
 13 14  2  0
 13 15  1  0
 15 16  1  0
 16 17  2  0
 17 18  1  0
 18 19  2  0
 19 20  1  0
 20 21  2  0
 21 22  1  0
 22 23  2  0
 23 24  1  0
 24 25  2  0
  8 26  1  0
 26 27  2  0
 27 28  1  0
 28 29  2  0
 28 30  1  0
 27  5  1  0
 25 16  1  0
 25 20  1  0
  1 31  1  0
  1 32  1  0
  1 33  1  0
  3 34  1  0
  3 35  1  0
  3 36  1  0
  4 37  1  0
  4 38  1  0
  4 39  1  0
  6 40  1  0
  7 41  1  0
 11 42  1  0
 12 43  1  0
 15 44  1  0
 17 45  1  0
 18 46  1  0
 19 47  1  0
 21 48  1  0
 22 49  1  0
 23 50  1  0
 24 51  1  0
 26 52  1  0
M  CHG  2  28   1  30  -1
M  END
>  <meeko>  (8) 
{"is_sidechain": [false], "free_energy": -7.982, "intermolecular_energy": -10.294, "internal_energy": -0.408}

$$$$
3jvs_ligand
     RDKit          3D

 52 54  0  0  0  0  0  0  0  0999 V2000
   20.5770   -9.1760   19.1250 C   0  0  0  0  0  0  0  0  0  0  0  0
   19.0440   -9.3330   19.0630 C   0  0  0  0  0  0  0  0  0  0  0  0
   18.7460  -10.8590   19.0900 C   0  0  0  0  0  0  0  0  0  0  0  0
   18.4180   -8.7860   20.3670 C   0  0  0  0  0  0  0  0  0  0  0  0
   18.5170   -8.6420   17.7780 C   0  0  0  0  0  0  0  0  0  0  0  0
   19.4390   -8.0860   16.8620 C   0  0  0  0  0  0  0  0  0  0  0  0
   19.0410   -7.4420   15.6770 C   0  0  0  0  0  0  0  0  0  0  0  0
   17.6880   -7.3090   15.3650 C   0  0  0  0  0  0  0  0  0  0  0  0
   17.2110   -6.6410   14.1240 C   0  0  0  0  0  0  0  0  0  0  0  0
   17.7960   -6.8090   13.0570 O   0  0  0  0  0  0  0  0  0  0  0  0
   16.0730   -5.8630   14.2280 N   0  0  0  0  0  0  0  0  0  0  0  0
   15.4770   -5.4640   13.0030 N   0  0  0  0  0  0  0  0  0  0  0  0
   15.4640   -4.0920   12.7650 C   0  0  0  0  0  0  0  0  0  0  0  0
   16.0810   -3.3200   13.4920 O   0  0  0  0  0  0  0  0  0  0  0  0
   14.7230   -3.7920   11.6430 N   0  0  0  0  0  0  0  0  0  0  0  0
   14.4130   -2.5160   11.1080 C   0  0  0  0  0  0  0  0  0  0  0  0
   13.1710   -1.9140   11.3540 C   0  0  0  0  0  0  0  0  0  0  0  0
   12.8620   -0.6660   10.8210 C   0  0  0  0  0  0  0  0  0  0  0  0
   13.7880    0.0000   10.0280 C   0  0  0  0  0  0  0  0  0  0  0  0
   15.0360   -0.5700    9.7510 C   0  0  0  0  0  0  0  0  0  0  0  0
   15.9450    0.1320    8.9420 C   0  0  0  0  0  0  0  0  0  0  0  0
   17.1970   -0.3970    8.6390 C   0  0  0  0  0  0  0  0  0  0  0  0
   17.5550   -1.6370    9.1450 C   0  0  0  0  0  0  0  0  0  0  0  0
   16.6620   -2.3470    9.9540 C   0  0  0  0  0  0  0  0  0  0  0  0
   15.3760   -1.8430   10.2850 C   0  0  0  0  0  0  0  0  0  0  0  0
   16.7410   -7.8370   16.2410 C   0  0  0  0  0  0  0  0  0  0  0  0
   17.1560   -8.4770   17.4250 C   0  0  0  0  0  0  0  0  0  0  0  0
   16.0650   -8.9300   18.2650 N   0  0  0  0  0  0  0  0  0  0  0  0
   15.7250  -10.1140   18.1490 O   0  0  0  0  0  0  0  0  0  0  0  0
   15.5300   -8.0880   18.9980 O   0  0  0  0  0  0  0  0  0  0  0  0
   20.9000   -9.1429   20.1760 H   0  0  0  0  0  0  0  0  0  0  0  0
   21.0537  -10.0300   18.6216 H   0  0  0  0  0  0  0  0  0  0  0  0
   20.8707   -8.2431   18.6216 H   0  0  0  0  0  0  0  0  0  0  0  0
   18.6792  -11.2011   20.1333 H   0  0  0  0  0  0  0  0  0  0  0  0
   17.7925  -11.0555   18.5779 H   0  0  0  0  0  0  0  0  0  0  0  0
   19.5555  -11.3998   18.5779 H   0  0  0  0  0  0  0  0  0  0  0  0
   18.9281   -9.2317   21.2337 H   0  0  0  0  0  0  0  0  0  0  0  0
   18.5313   -7.6923   20.3974 H   0  0  0  0  0  0  0  0  0  0  0  0
   17.3493   -9.0449   20.3974 H   0  0  0  0  0  0  0  0  0  0  0  0
   20.5135   -8.1603   17.0857 H   0  0  0  0  0  0  0  0  0  0  0  0
   19.8018   -7.0404   14.9915 H   0  0  0  0  0  0  0  0  0  0  0  0
   15.3950   -6.0390   14.9720 H   0  0  0  0  0  0  0  0  0  0  0  0
   14.6080   -5.9650   12.8150 H   0  0  0  0  0  0  0  0  0  0  0  0
   14.4750   -4.5940   11.0890 H   0  0  0  0  0  0  0  0  0  0  0  0
   12.4299   -2.4357   11.9774 H   0  0  0  0  0  0  0  0  0  0  0  0
   11.8841   -0.2068   11.0278 H   0  0  0  0  0  0  0  0  0  0  0  0
   13.5374    0.9873    9.6127 H   0  0  0  0  0  0  0  0  0  0  0  0
   15.6629    1.1167    8.5409 H   0  0  0  0  0  0  0  0  0  0  0  0
   17.8967    0.1649    8.0029 H   0  0  0  0  0  0  0  0  0  0  0  0
   18.5417   -2.0626    8.9101 H   0  0  0  0  0  0  0  0  0  0  0  0
   16.9657   -3.3285   10.3470 H   0  0  0  0  0  0  0  0  0  0  0  0
   15.6693   -7.7538   16.0075 H   0  0  0  0  0  0  0  0  0  0  0  0
  1  2  1  0
  2  3  1  0
  2  4  1  0
  2  5  1  0
  5  6  2  0
  6  7  1  0
  7  8  2  0
  8  9  1  0
  9 10  2  0
  9 11  1  0
 11 12  1  0
 12 13  1  0
 13 14  2  0
 13 15  1  0
 15 16  1  0
 16 17  2  0
 17 18  1  0
 18 19  2  0
 19 20  1  0
 20 21  2  0
 21 22  1  0
 22 23  2  0
 23 24  1  0
 24 25  2  0
  8 26  1  0
 26 27  2  0
 27 28  1  0
 28 29  2  0
 28 30  1  0
 27  5  1  0
 25 16  1  0
 25 20  1  0
  1 31  1  0
  1 32  1  0
  1 33  1  0
  3 34  1  0
  3 35  1  0
  3 36  1  0
  4 37  1  0
  4 38  1  0
  4 39  1  0
  6 40  1  0
  7 41  1  0
 11 42  1  0
 12 43  1  0
 15 44  1  0
 17 45  1  0
 18 46  1  0
 19 47  1  0
 21 48  1  0
 22 49  1  0
 23 50  1  0
 24 51  1  0
 26 52  1  0
M  CHG  2  28   1  30  -1
M  END
>  <meeko>  (9) 
{"is_sidechain": [false], "free_energy": -7.927, "intermolecular_energy": -10.152, "internal_energy": -0.479}

$$$$
