2zy1_ligand
     RDKit          3D

 43 44  0  0  0  0  0  0  0  0999 V2000
   20.0780   55.2520   37.4400 O   0  0  0  0  0  0  0  0  0  0  0  0
   19.5810   54.5000   36.5980 C   0  0  0  0  0  0  0  0  0  0  0  0
   20.0370   53.0780   36.4270 C   0  0  0  0  0  0  0  0  0  0  0  0
   18.7540   51.8820   36.8090 P   0  0  2  0  0  5  0  0  0  0  0  0
   17.7600   51.7480   35.6900 O   0  0  0  0  0  0  0  0  0  0  0  0
   18.2960   52.0760   38.2340 O   0  0  0  0  0  0  0  0  0  0  0  0
   19.6000   50.5040   36.8000 O   0  0  0  0  0  0  0  0  0  0  0  0
   18.4850   54.8550   35.8340 N   0  0  0  0  0  0  0  0  0  0  0  0
   18.0950   56.2400   35.7110 C   0  0  0  0  0  0  0  0  0  0  0  0
   16.5980   56.4140   35.9450 C   0  0  0  0  0  0  0  0  0  0  0  0
   16.0600   55.5220   37.0710 C   0  0  0  0  0  0  0  0  0  0  0  0
   15.3790   56.2720   38.1910 C   0  0  0  0  0  0  0  0  0  0  0  0
   15.1910   55.6690   39.4410 C   0  0  0  0  0  0  0  0  0  0  0  0
   14.6050   56.3790   40.4920 C   0  0  0  0  0  0  0  0  0  0  0  0
   14.2170   57.7050   40.3090 C   0  0  0  0  0  0  0  0  0  0  0  0
   14.4100   58.3190   39.0730 C   0  0  0  0  0  0  0  0  0  0  0  0
   14.0210   59.6360   38.9630 O   0  0  0  0  0  0  0  0  0  0  0  0
   12.8390   59.9010   38.3050 C   0  0  0  0  0  0  0  0  0  0  0  0
   11.9550   60.7790   38.9350 C   0  0  0  0  0  0  0  0  0  0  0  0
   10.7320   61.0880   38.3340 C   0  0  0  0  0  0  0  0  0  0  0  0
   10.4010   60.5240   37.1030 C   0  0  0  0  0  0  0  0  0  0  0  0
   11.2950   59.6690   36.4590 C   0  0  0  0  0  0  0  0  0  0  0  0
   12.5220   59.3690   37.0510 C   0  0  0  0  0  0  0  0  0  0  0  0
   14.9440   57.5930   38.0050 C   0  0  0  0  0  0  0  0  0  0  0  0
   20.3518   52.9335   35.3830 H   0  0  0  0  0  0  0  0  0  0  0  0
   20.8650   52.9100   37.1314 H   0  0  0  0  0  0  0  0  0  0  0  0
   19.0190   49.8520   36.3720 H   0  0  0  0  0  0  0  0  0  0  0  0
   18.3350   54.2480   35.0090 H   0  0  0  0  0  0  0  0  0  0  0  0
   18.6459   56.8353   36.4540 H   0  0  0  0  0  0  0  0  0  0  0  0
   18.3300   56.5789   34.6912 H   0  0  0  0  0  0  0  0  0  0  0  0
   16.4039   57.4646   36.2069 H   0  0  0  0  0  0  0  0  0  0  0  0
   16.0836   56.1202   35.0181 H   0  0  0  0  0  0  0  0  0  0  0  0
   15.3337   54.8197   36.6360 H   0  0  0  0  0  0  0  0  0  0  0  0
   16.9312   55.0183   37.5153 H   0  0  0  0  0  0  0  0  0  0  0  0
   15.5075   54.6271   39.5967 H   0  0  0  0  0  0  0  0  0  0  0  0
   14.4497   55.8907   41.4653 H   0  0  0  0  0  0  0  0  0  0  0  0
   13.7597   58.2653   41.1378 H   0  0  0  0  0  0  0  0  0  0  0  0
   12.2211   61.2271   39.9037 H   0  0  0  0  0  0  0  0  0  0  0  0
   10.0317   61.7751   38.8314 H   0  0  0  0  0  0  0  0  0  0  0  0
    9.4311   60.7541   36.6378 H   0  0  0  0  0  0  0  0  0  0  0  0
   11.0327   59.2313   35.4845 H   0  0  0  0  0  0  0  0  0  0  0  0
   13.2388   58.7153   36.5325 H   0  0  0  0  0  0  0  0  0  0  0  0
   15.0238   58.0600   37.0123 H   0  0  0  0  0  0  0  0  0  0  0  0
  1  2  2  0
  2  3  1  0
  3  4  1  0
  4  5  2  0
  4  6  1  1
  4  7  1  0
  2  8  1  0
  8  9  1  0
  9 10  1  0
 10 11  1  0
 11 12  1  0
 12 13  2  0
 13 14  1  0
 14 15  2  0
 15 16  1  0
 16 17  1  0
 17 18  1  0
 18 19  2  0
 19 20  1  0
 20 21  2  0
 21 22  1  0
 22 23  2  0
 16 24  2  0
 24 12  1  0
 23 18  1  0
  3 25  1  0
  3 26  1  0
  7 27  1  0
  8 28  1  0
  9 29  1  0
  9 30  1  0
 10 31  1  0
 10 32  1  0
 11 33  1  0
 11 34  1  0
 13 35  1  0
 14 36  1  0
 15 37  1  0
 19 38  1  0
 20 39  1  0
 21 40  1  0
 22 41  1  0
 23 42  1  0
 24 43  1  0
M  CHG  1   6  -1
M  END
>  <meeko>  (1) 
{"is_sidechain": [false], "free_energy": -9.578, "intermolecular_energy": -14.338, "internal_energy": -0.818}

$$$$
2zy1_ligand
     RDKit          3D

 43 44  0  0  0  0  0  0  0  0999 V2000
   18.7050   52.6240   38.6560 O   0  0  0  0  0  0  0  0  0  0  0  0
   18.7550   52.8960   37.4550 C   0  0  0  0  0  0  0  0  0  0  0  0
   20.0560   53.1410   36.7430 C   0  0  0  0  0  0  0  0  0  0  0  0
   20.9710   51.6310   36.4180 P   0  0  2  0  0  5  0  0  0  0  0  0
   21.9370   51.3110   37.5230 O   0  0  0  0  0  0  0  0  0  0  0  0
   21.4100   51.6130   34.9740 O   0  0  0  0  0  0  0  0  0  0  0  0
   19.7990   50.5240   36.5370 O   0  0  0  0  0  0  0  0  0  0  0  0
   17.6420   52.8730   36.6370 N   0  0  0  0  0  0  0  0  0  0  0  0
   16.3140   52.8950   37.2050 C   0  0  0  0  0  0  0  0  0  0  0  0
   15.5300   54.1140   36.7280 C   0  0  0  0  0  0  0  0  0  0  0  0
   16.1830   55.4420   37.1330 C   0  0  0  0  0  0  0  0  0  0  0  0
   15.4290   56.2090   38.1930 C   0  0  0  0  0  0  0  0  0  0  0  0
   15.1840   55.6360   39.4480 C   0  0  0  0  0  0  0  0  0  0  0  0
   14.5300   56.3630   40.4460 C   0  0  0  0  0  0  0  0  0  0  0  0
   14.1280   57.6760   40.2050 C   0  0  0  0  0  0  0  0  0  0  0  0
   14.3780   58.2600   38.9650 C   0  0  0  0  0  0  0  0  0  0  0  0
   13.9710   59.5660   38.7980 O   0  0  0  0  0  0  0  0  0  0  0  0
   12.7130   59.7830   38.2770 C   0  0  0  0  0  0  0  0  0  0  0  0
   12.5460   59.5220   36.9150 C   0  0  0  0  0  0  0  0  0  0  0  0
   11.3030   59.7290   36.3130 C   0  0  0  0  0  0  0  0  0  0  0  0
   10.2290   60.1880   37.0760 C   0  0  0  0  0  0  0  0  0  0  0  0
   10.3880   60.4220   38.4410 C   0  0  0  0  0  0  0  0  0  0  0  0
   11.6250   60.2040   39.0470 C   0  0  0  0  0  0  0  0  0  0  0  0
   14.9820   57.5150   37.9470 C   0  0  0  0  0  0  0  0  0  0  0  0
   19.8432   53.6356   35.7838 H   0  0  0  0  0  0  0  0  0  0  0  0
   20.6776   53.7685   37.3987 H   0  0  0  0  0  0  0  0  0  0  0  0
   20.2550   49.6660   36.4990 H   0  0  0  0  0  0  0  0  0  0  0  0
   17.7740   53.3600   35.7330 H   0  0  0  0  0  0  0  0  0  0  0  0
   15.7789   51.9830   36.9017 H   0  0  0  0  0  0  0  0  0  0  0  0
   16.4043   52.9456   38.3001 H   0  0  0  0  0  0  0  0  0  0  0  0
   15.4594   54.0782   35.6309 H   0  0  0  0  0  0  0  0  0  0  0  0
   14.5392   54.0754   37.2044 H   0  0  0  0  0  0  0  0  0  0  0  0
   17.1917   55.2270   37.5156 H   0  0  0  0  0  0  0  0  0  0  0  0
   16.1921   56.0751   36.2335 H   0  0  0  0  0  0  0  0  0  0  0  0
   15.5094   54.6047   39.6493 H   0  0  0  0  0  0  0  0  0  0  0  0
   14.3320   55.8987   41.4233 H   0  0  0  0  0  0  0  0  0  0  0  0
   13.6150   58.2491   40.9914 H   0  0  0  0  0  0  0  0  0  0  0  0
   13.3927   59.1538   36.3172 H   0  0  0  0  0  0  0  0  0  0  0  0
   11.1710   59.5305   35.2391 H   0  0  0  0  0  0  0  0  0  0  0  0
    9.2538   60.3658   36.5991 H   0  0  0  0  0  0  0  0  0  0  0  0
    9.5374   60.7787   39.0404 H   0  0  0  0  0  0  0  0  0  0  0  0
   11.7443   60.3630   40.1289 H   0  0  0  0  0  0  0  0  0  0  0  0
   15.1071   57.9564   36.9472 H   0  0  0  0  0  0  0  0  0  0  0  0
  1  2  2  0
  2  3  1  0
  3  4  1  0
  4  5  2  0
  4  6  1  6
  4  7  1  0
  2  8  1  0
  8  9  1  0
  9 10  1  0
 10 11  1  0
 11 12  1  0
 12 13  2  0
 13 14  1  0
 14 15  2  0
 15 16  1  0
 16 17  1  0
 17 18  1  0
 18 19  2  0
 19 20  1  0
 20 21  2  0
 21 22  1  0
 22 23  2  0
 16 24  2  0
 24 12  1  0
 23 18  1  0
  3 25  1  0
  3 26  1  0
  7 27  1  0
  8 28  1  0
  9 29  1  0
  9 30  1  0
 10 31  1  0
 10 32  1  0
 11 33  1  0
 11 34  1  0
 13 35  1  0
 14 36  1  0
 15 37  1  0
 19 38  1  0
 20 39  1  0
 21 40  1  0
 22 41  1  0
 23 42  1  0
 24 43  1  0
M  CHG  1   6  -1
M  END
>  <meeko>  (2) 
{"is_sidechain": [false], "free_energy": -9.514, "intermolecular_energy": -14.035, "internal_energy": -1.025}

$$$$
2zy1_ligand
     RDKit          3D

 43 44  0  0  0  0  0  0  0  0999 V2000
   18.1120   51.5260   35.7870 O   0  0  0  0  0  0  0  0  0  0  0  0
   18.5200   52.3790   36.5780 C   0  0  0  0  0  0  0  0  0  0  0  0
   19.9850   52.6420   36.7840 C   0  0  0  0  0  0  0  0  0  0  0  0
   20.3010   53.9570   37.9640 P   0  0  2  0  0  5  0  0  0  0  0  0
   19.9390   53.5530   39.3660 O   0  0  0  0  0  0  0  0  0  0  0  0
   19.8280   55.2700   37.3900 O   0  0  0  0  0  0  0  0  0  0  0  0
   21.9160   54.0180   37.9390 O   0  0  0  0  0  0  0  0  0  0  0  0
   17.6750   53.2480   37.2410 N   0  0  0  0  0  0  0  0  0  0  0  0
   16.2610   52.9680   37.3340 C   0  0  0  0  0  0  0  0  0  0  0  0
   15.4320   54.1390   36.8170 C   0  0  0  0  0  0  0  0  0  0  0  0
   16.0570   55.5030   37.1380 C   0  0  0  0  0  0  0  0  0  0  0  0
   15.3610   56.2640   38.2410 C   0  0  0  0  0  0  0  0  0  0  0  0
   15.1460   55.6690   39.4910 C   0  0  0  0  0  0  0  0  0  0  0  0
   14.5450   56.3880   40.5270 C   0  0  0  0  0  0  0  0  0  0  0  0
   14.1690   57.7160   40.3300 C   0  0  0  0  0  0  0  0  0  0  0  0
   14.3890   58.3220   39.0950 C   0  0  0  0  0  0  0  0  0  0  0  0
   14.0100   59.6410   38.9710 O   0  0  0  0  0  0  0  0  0  0  0  0
   12.8130   59.9060   38.3400 C   0  0  0  0  0  0  0  0  0  0  0  0
   11.9260   60.7510   39.0100 C   0  0  0  0  0  0  0  0  0  0  0  0
   10.6890   61.0580   38.4400 C   0  0  0  0  0  0  0  0  0  0  0  0
   10.3460   60.5260   37.1970 C   0  0  0  0  0  0  0  0  0  0  0  0
   11.2420   59.7040   36.5140 C   0  0  0  0  0  0  0  0  0  0  0  0
   12.4840   59.4070   37.0760 C   0  0  0  0  0  0  0  0  0  0  0  0
   14.9380   57.5860   38.0400 C   0  0  0  0  0  0  0  0  0  0  0  0
   20.4586   51.7197   37.1515 H   0  0  0  0  0  0  0  0  0  0  0  0
   20.4019   52.9598   35.8170 H   0  0  0  0  0  0  0  0  0  0  0  0
   22.2090   53.1420   38.2440 H   0  0  0  0  0  0  0  0  0  0  0  0
   18.1140   53.7260   38.0480 H   0  0  0  0  0  0  0  0  0  0  0  0
   16.0320   52.0742   36.7351 H   0  0  0  0  0  0  0  0  0  0  0  0
   16.0076   52.8016   38.3914 H   0  0  0  0  0  0  0  0  0  0  0  0
   15.3358   54.0456   35.7252 H   0  0  0  0  0  0  0  0  0  0  0  0
   14.4546   54.0980   37.3200 H   0  0  0  0  0  0  0  0  0  0  0  0
   17.1024   55.3401   37.4390 H   0  0  0  0  0  0  0  0  0  0  0  0
   15.9630   56.1134   36.2278 H   0  0  0  0  0  0  0  0  0  0  0  0
   15.4533   54.6261   39.6582 H   0  0  0  0  0  0  0  0  0  0  0  0
   14.3681   55.9057   41.4997 H   0  0  0  0  0  0  0  0  0  0  0  0
   13.7000   58.2836   41.1473 H   0  0  0  0  0  0  0  0  0  0  0  0
   12.2018   61.1748   39.9869 H   0  0  0  0  0  0  0  0  0  0  0  0
    9.9864   61.7180   38.9700 H   0  0  0  0  0  0  0  0  0  0  0  0
    9.3656   60.7556   36.7541 H   0  0  0  0  0  0  0  0  0  0  0  0
   10.9695   59.2898   35.5321 H   0  0  0  0  0  0  0  0  0  0  0  0
   13.2027   58.7817   36.5260 H   0  0  0  0  0  0  0  0  0  0  0  0
   15.0387   58.0469   37.0463 H   0  0  0  0  0  0  0  0  0  0  0  0
  1  2  2  0
  2  3  1  0
  3  4  1  0
  4  5  2  0
  4  6  1  6
  4  7  1  0
  2  8  1  0
  8  9  1  0
  9 10  1  0
 10 11  1  0
 11 12  1  0
 12 13  2  0
 13 14  1  0
 14 15  2  0
 15 16  1  0
 16 17  1  0
 17 18  1  0
 18 19  2  0
 19 20  1  0
 20 21  2  0
 21 22  1  0
 22 23  2  0
 16 24  2  0
 24 12  1  0
 23 18  1  0
  3 25  1  0
  3 26  1  0
  7 27  1  0
  8 28  1  0
  9 29  1  0
  9 30  1  0
 10 31  1  0
 10 32  1  0
 11 33  1  0
 11 34  1  0
 13 35  1  0
 14 36  1  0
 15 37  1  0
 19 38  1  0
 20 39  1  0
 21 40  1  0
 22 41  1  0
 23 42  1  0
 24 43  1  0
M  CHG  1   6  -1
M  END
>  <meeko>  (3) 
{"is_sidechain": [false], "free_energy": -9.406, "intermolecular_energy": -13.797, "internal_energy": -1.1}

$$$$
2zy1_ligand
     RDKit          3D

 43 44  0  0  0  0  0  0  0  0999 V2000
   20.3320   53.2550   35.8960 O   0  0  0  0  0  0  0  0  0  0  0  0
   20.4810   53.8580   36.9610 C   0  0  0  0  0  0  0  0  0  0  0  0
   21.3840   53.3480   38.0480 C   0  0  0  0  0  0  0  0  0  0  0  0
   21.1810   54.2310   39.5980 P   0  0  2  0  0  5  0  0  0  0  0  0
   19.7320   54.4110   39.9550 O   0  0  0  0  0  0  0  0  0  0  0  0
   22.1400   55.3950   39.6410 O   0  0  0  0  0  0  0  0  0  0  0  0
   21.7520   53.1470   40.6520 O   0  0  0  0  0  0  0  0  0  0  0  0
   19.9390   55.1070   37.1940 N   0  0  0  0  0  0  0  0  0  0  0  0
   18.8710   55.6100   36.3620 C   0  0  0  0  0  0  0  0  0  0  0  0
   17.5100   55.1410   36.8670 C   0  0  0  0  0  0  0  0  0  0  0  0
   16.3780   56.1220   36.5370 C   0  0  0  0  0  0  0  0  0  0  0  0
   15.5850   56.5850   37.7360 C   0  0  0  0  0  0  0  0  0  0  0  0
   15.3970   55.7370   38.8360 C   0  0  0  0  0  0  0  0  0  0  0  0
   14.7040   56.1810   39.9650 C   0  0  0  0  0  0  0  0  0  0  0  0
   14.2070   57.4820   40.0140 C   0  0  0  0  0  0  0  0  0  0  0  0
   14.3990   58.3380   38.9310 C   0  0  0  0  0  0  0  0  0  0  0  0
   13.8980   59.6160   39.0500 O   0  0  0  0  0  0  0  0  0  0  0  0
   12.7310   59.9110   38.3790 C   0  0  0  0  0  0  0  0  0  0  0  0
   11.8340   60.7620   39.0280 C   0  0  0  0  0  0  0  0  0  0  0  0
   10.6240   61.0980   38.4160 C   0  0  0  0  0  0  0  0  0  0  0  0
   10.3190   60.5890   37.1540 C   0  0  0  0  0  0  0  0  0  0  0  0
   11.2260   59.7620   36.4930 C   0  0  0  0  0  0  0  0  0  0  0  0
   12.4410   59.4360   37.0960 C   0  0  0  0  0  0  0  0  0  0  0  0
   15.0420   57.8770   37.7790 C   0  0  0  0  0  0  0  0  0  0  0  0
   21.1617   52.2843   38.2185 H   0  0  0  0  0  0  0  0  0  0  0  0
   22.4209   53.5016   37.7144 H   0  0  0  0  0  0  0  0  0  0  0  0
   21.1850   52.3630   40.5440 H   0  0  0  0  0  0  0  0  0  0  0  0
   19.9240   55.3780   38.1940 H   0  0  0  0  0  0  0  0  0  0  0  0
   18.8973   56.7097   36.3704 H   0  0  0  0  0  0  0  0  0  0  0  0
   19.0147   55.2262   35.3412 H   0  0  0  0  0  0  0  0  0  0  0  0
   17.2793   54.1706   36.4031 H   0  0  0  0  0  0  0  0  0  0  0  0
   17.5729   55.0676   37.9627 H   0  0  0  0  0  0  0  0  0  0  0  0
   16.8189   57.0063   36.0537 H   0  0  0  0  0  0  0  0  0  0  0  0
   15.6753   55.5828   35.8847 H   0  0  0  0  0  0  0  0  0  0  0  0
   15.7985   54.7132   38.8102 H   0  0  0  0  0  0  0  0  0  0  0  0
   14.5504   55.5023   40.8169 H   0  0  0  0  0  0  0  0  0  0  0  0
   13.6648   57.8323   40.9047 H   0  0  0  0  0  0  0  0  0  0  0  0
   12.0800   61.1675   40.0205 H   0  0  0  0  0  0  0  0  0  0  0  0
    9.9132   61.7628   38.9286 H   0  0  0  0  0  0  0  0  0  0  0  0
    9.3596   60.8409   36.6785 H   0  0  0  0  0  0  0  0  0  0  0  0
   10.9835   59.3664   35.4957 H   0  0  0  0  0  0  0  0  0  0  0  0
   13.1693   58.8067   36.5635 H   0  0  0  0  0  0  0  0  0  0  0  0
   15.1227   58.5326   36.8994 H   0  0  0  0  0  0  0  0  0  0  0  0
  1  2  2  0
  2  3  1  0
  3  4  1  0
  4  5  2  0
  4  6  1  6
  4  7  1  0
  2  8  1  0
  8  9  1  0
  9 10  1  0
 10 11  1  0
 11 12  1  0
 12 13  2  0
 13 14  1  0
 14 15  2  0
 15 16  1  0
 16 17  1  0
 17 18  1  0
 18 19  2  0
 19 20  1  0
 20 21  2  0
 21 22  1  0
 22 23  2  0
 16 24  2  0
 24 12  1  0
 23 18  1  0
  3 25  1  0
  3 26  1  0
  7 27  1  0
  8 28  1  0
  9 29  1  0
  9 30  1  0
 10 31  1  0
 10 32  1  0
 11 33  1  0
 11 34  1  0
 13 35  1  0
 14 36  1  0
 15 37  1  0
 19 38  1  0
 20 39  1  0
 21 40  1  0
 22 41  1  0
 23 42  1  0
 24 43  1  0
M  CHG  1   6  -1
M  END
>  <meeko>  (4) 
{"is_sidechain": [false], "free_energy": -9.4, "intermolecular_energy": -13.98, "internal_energy": -0.908}

$$$$
2zy1_ligand
     RDKit          3D

 43 44  0  0  0  0  0  0  0  0999 V2000
   20.6660   52.8380   35.6710 O   0  0  0  0  0  0  0  0  0  0  0  0
   20.6600   53.4750   36.7270 C   0  0  0  0  0  0  0  0  0  0  0  0
   20.9860   52.8370   38.0480 C   0  0  0  0  0  0  0  0  0  0  0  0
   21.1900   54.0320   39.3710 P   0  0  2  0  0  5  0  0  0  0  0  0
   19.8700   54.5670   39.8520 O   0  0  0  0  0  0  0  0  0  0  0  0
   22.3280   54.9640   39.0340 O   0  0  0  0  0  0  0  0  0  0  0  0
   21.7300   53.0860   40.5650 O   0  0  0  0  0  0  0  0  0  0  0  0
   20.4800   54.8440   36.7720 N   0  0  0  0  0  0  0  0  0  0  0  0
   19.9240   55.5480   35.6400 C   0  0  0  0  0  0  0  0  0  0  0  0
   18.7970   56.4820   36.0700 C   0  0  0  0  0  0  0  0  0  0  0  0
   17.4070   55.9610   35.6810 C   0  0  0  0  0  0  0  0  0  0  0  0
   16.4640   55.7720   36.8450 C   0  0  0  0  0  0  0  0  0  0  0  0
   16.8020   54.9190   37.9050 C   0  0  0  0  0  0  0  0  0  0  0  0
   15.9520   54.7800   39.0040 C   0  0  0  0  0  0  0  0  0  0  0  0
   14.7620   55.5050   39.0650 C   0  0  0  0  0  0  0  0  0  0  0  0
   14.4220   56.3650   38.0230 C   0  0  0  0  0  0  0  0  0  0  0  0
   13.2420   57.0650   38.1530 O   0  0  0  0  0  0  0  0  0  0  0  0
   13.3250   58.4220   38.3840 C   0  0  0  0  0  0  0  0  0  0  0  0
   12.2820   59.2060   37.8900 C   0  0  0  0  0  0  0  0  0  0  0  0
   12.3010   60.5900   38.0750 C   0  0  0  0  0  0  0  0  0  0  0  0
   13.3590   61.1850   38.7620 C   0  0  0  0  0  0  0  0  0  0  0  0
   14.3880   60.4000   39.2810 C   0  0  0  0  0  0  0  0  0  0  0  0
   14.3640   59.0160   39.1080 C   0  0  0  0  0  0  0  0  0  0  0  0
   15.2440   56.4620   36.8960 C   0  0  0  0  0  0  0  0  0  0  0  0
   20.1691   52.1514   38.3175 H   0  0  0  0  0  0  0  0  0  0  0  0
   21.9434   52.3081   37.9311 H   0  0  0  0  0  0  0  0  0  0  0  0
   22.1530   52.3310   40.1200 H   0  0  0  0  0  0  0  0  0  0  0  0
   20.2430   55.2060   37.7130 H   0  0  0  0  0  0  0  0  0  0  0  0
   20.7175   56.1402   35.1608 H   0  0  0  0  0  0  0  0  0  0  0  0
   19.5138   54.8080   34.9370 H   0  0  0  0  0  0  0  0  0  0  0  0
   18.8350   56.5975   37.1633 H   0  0  0  0  0  0  0  0  0  0  0  0
   18.9470   57.4403   35.5511 H   0  0  0  0  0  0  0  0  0  0  0  0
   16.9528   56.6801   34.9834 H   0  0  0  0  0  0  0  0  0  0  0  0
   17.5577   54.9672   35.2342 H   0  0  0  0  0  0  0  0  0  0  0  0
   17.7453   54.3542   37.8706 H   0  0  0  0  0  0  0  0  0  0  0  0
   16.2214   54.0973   39.8234 H   0  0  0  0  0  0  0  0  0  0  0  0
   14.0944   55.3981   39.9327 H   0  0  0  0  0  0  0  0  0  0  0  0
   11.4448   58.7340   37.3549 H   0  0  0  0  0  0  0  0  0  0  0  0
   11.4829   61.2099   37.6796 H   0  0  0  0  0  0  0  0  0  0  0  0
   13.3817   62.2767   38.8948 H   0  0  0  0  0  0  0  0  0  0  0  0
   15.2184   60.8719   39.8266 H   0  0  0  0  0  0  0  0  0  0  0  0
   15.1608   58.3928   39.5402 H   0  0  0  0  0  0  0  0  0  0  0  0
   14.9318   57.0835   36.0438 H   0  0  0  0  0  0  0  0  0  0  0  0
  1  2  2  0
  2  3  1  0
  3  4  1  0
  4  5  2  0
  4  6  1  6
  4  7  1  0
  2  8  1  0
  8  9  1  0
  9 10  1  0
 10 11  1  0
 11 12  1  0
 12 13  2  0
 13 14  1  0
 14 15  2  0
 15 16  1  0
 16 17  1  0
 17 18  1  0
 18 19  2  0
 19 20  1  0
 20 21  2  0
 21 22  1  0
 22 23  2  0
 16 24  2  0
 24 12  1  0
 23 18  1  0
  3 25  1  0
  3 26  1  0
  7 27  1  0
  8 28  1  0
  9 29  1  0
  9 30  1  0
 10 31  1  0
 10 32  1  0
 11 33  1  0
 11 34  1  0
 13 35  1  0
 14 36  1  0
 15 37  1  0
 19 38  1  0
 20 39  1  0
 21 40  1  0
 22 41  1  0
 23 42  1  0
 24 43  1  0
M  CHG  1   6  -1
M  END
>  <meeko>  (5) 
{"is_sidechain": [false], "free_energy": -9.342, "intermolecular_energy": -13.452, "internal_energy": -1.35}

$$$$
2zy1_ligand
     RDKit          3D

 43 44  0  0  0  0  0  0  0  0999 V2000
   23.0510   50.7700   38.6250 O   0  0  0  0  0  0  0  0  0  0  0  0
   22.7470   51.3780   37.5980 C   0  0  0  0  0  0  0  0  0  0  0  0
   22.7360   50.7160   36.2480 C   0  0  0  0  0  0  0  0  0  0  0  0
   21.1140   50.7180   35.4800 P   0  0  2  0  0  5  0  0  0  0  0  0
   20.0140   50.5490   36.4900 O   0  0  0  0  0  0  0  0  0  0  0  0
   21.1520   49.8780   34.2270 O   0  0  0  0  0  0  0  0  0  0  0  0
   21.0070   52.2520   34.9810 O   0  0  0  0  0  0  0  0  0  0  0  0
   22.2680   52.6750   37.6110 N   0  0  0  0  0  0  0  0  0  0  0  0
   22.4480   53.5100   38.7760 C   0  0  0  0  0  0  0  0  0  0  0  0
   21.1890   54.3190   39.0740 C   0  0  0  0  0  0  0  0  0  0  0  0
   19.9110   53.6550   38.5460 C   0  0  0  0  0  0  0  0  0  0  0  0
   19.0730   54.5380   37.6530 C   0  0  0  0  0  0  0  0  0  0  0  0
   19.6520   55.2020   36.5630 C   0  0  0  0  0  0  0  0  0  0  0  0
   18.8680   55.9810   35.7070 C   0  0  0  0  0  0  0  0  0  0  0  0
   17.4950   56.0900   35.9230 C   0  0  0  0  0  0  0  0  0  0  0  0
   16.9070   55.4240   36.9960 C   0  0  0  0  0  0  0  0  0  0  0  0
   15.5440   55.5590   37.1430 O   0  0  0  0  0  0  0  0  0  0  0  0
   15.0810   56.1880   38.2790 C   0  0  0  0  0  0  0  0  0  0  0  0
   14.9760   57.5790   38.2260 C   0  0  0  0  0  0  0  0  0  0  0  0
   14.5260   58.2870   39.3430 C   0  0  0  0  0  0  0  0  0  0  0  0
   14.1750   57.6020   40.5050 C   0  0  0  0  0  0  0  0  0  0  0  0
   14.2530   56.2100   40.5500 C   0  0  0  0  0  0  0  0  0  0  0  0
   14.6900   55.5000   39.4320 C   0  0  0  0  0  0  0  0  0  0  0  0
   17.6990   54.6910   37.8850 C   0  0  0  0  0  0  0  0  0  0  0  0
   23.4364   51.2507   35.5896 H   0  0  0  0  0  0  0  0  0  0  0  0
   23.0301   49.6661   36.3937 H   0  0  0  0  0  0  0  0  0  0  0  0
   20.2990   52.2530   34.3130 H   0  0  0  0  0  0  0  0  0  0  0  0
   22.2960   53.1430   36.6880 H   0  0  0  0  0  0  0  0  0  0  0  0
   22.6785   52.8726   39.6423 H   0  0  0  0  0  0  0  0  0  0  0  0
   23.2736   54.2097   38.5792 H   0  0  0  0  0  0  0  0  0  0  0  0
   21.0981   54.4372   40.1638 H   0  0  0  0  0  0  0  0  0  0  0  0
   21.2917   55.2877   38.5631 H   0  0  0  0  0  0  0  0  0  0  0  0
   20.1990   52.7610   37.9735 H   0  0  0  0  0  0  0  0  0  0  0  0
   19.2928   53.4203   39.4251 H   0  0  0  0  0  0  0  0  0  0  0  0
   20.7326   55.1094   36.3795 H   0  0  0  0  0  0  0  0  0  0  0  0
   19.3349   56.5085   34.8622 H   0  0  0  0  0  0  0  0  0  0  0  0
   16.8774   56.7005   35.2477 H   0  0  0  0  0  0  0  0  0  0  0  0
   15.2473   58.1170   37.3057 H   0  0  0  0  0  0  0  0  0  0  0  0
   14.4488   59.3836   39.3055 H   0  0  0  0  0  0  0  0  0  0  0  0
   13.8354   58.1609   41.3895 H   0  0  0  0  0  0  0  0  0  0  0  0
   13.9699   55.6725   41.4670 H   0  0  0  0  0  0  0  0  0  0  0  0
   14.7271   54.4009   39.4571 H   0  0  0  0  0  0  0  0  0  0  0  0
   17.2406   54.2311   38.7729 H   0  0  0  0  0  0  0  0  0  0  0  0
  1  2  2  0
  2  3  1  0
  3  4  1  0
  4  5  2  0
  4  6  1  6
  4  7  1  0
  2  8  1  0
  8  9  1  0
  9 10  1  0
 10 11  1  0
 11 12  1  0
 12 13  2  0
 13 14  1  0
 14 15  2  0
 15 16  1  0
 16 17  1  0
 17 18  1  0
 18 19  2  0
 19 20  1  0
 20 21  2  0
 21 22  1  0
 22 23  2  0
 16 24  2  0
 24 12  1  0
 23 18  1  0
  3 25  1  0
  3 26  1  0
  7 27  1  0
  8 28  1  0
  9 29  1  0
  9 30  1  0
 10 31  1  0
 10 32  1  0
 11 33  1  0
 11 34  1  0
 13 35  1  0
 14 36  1  0
 15 37  1  0
 19 38  1  0
 20 39  1  0
 21 40  1  0
 22 41  1  0
 23 42  1  0
 24 43  1  0
M  CHG  1   6  -1
M  END
>  <meeko>  (6) 
{"is_sidechain": [false], "free_energy": -9.115, "intermolecular_energy": -13.021, "internal_energy": -1.441}

$$$$
2zy1_ligand
     RDKit          3D

 43 44  0  0  0  0  0  0  0  0999 V2000
   20.1320   52.4430   37.6040 O   0  0  0  0  0  0  0  0  0  0  0  0
   20.5690   52.7300   36.4870 C   0  0  0  0  0  0  0  0  0  0  0  0
   21.3250   51.7410   35.6450 C   0  0  0  0  0  0  0  0  0  0  0  0
   20.2740   50.4560   34.9610 P   0  0  2  0  0  5  0  0  0  0  0  0
   20.2620   49.2240   35.8200 O   0  0  0  0  0  0  0  0  0  0  0  0
   20.5030   50.3620   33.4730 O   0  0  0  0  0  0  0  0  0  0  0  0
   18.8110   51.1200   35.1420 O   0  0  0  0  0  0  0  0  0  0  0  0
   20.2940   53.9320   35.8640 N   0  0  0  0  0  0  0  0  0  0  0  0
   19.7980   55.0550   36.6250 C   0  0  0  0  0  0  0  0  0  0  0  0
   19.1730   56.1060   35.7130 C   0  0  0  0  0  0  0  0  0  0  0  0
   17.7560   55.7360   35.2570 C   0  0  0  0  0  0  0  0  0  0  0  0
   16.8380   55.2900   36.3700 C   0  0  0  0  0  0  0  0  0  0  0  0
   16.5570   53.9310   36.5610 C   0  0  0  0  0  0  0  0  0  0  0  0
   15.7470   53.5140   37.6200 C   0  0  0  0  0  0  0  0  0  0  0  0
   15.2240   54.4500   38.5100 C   0  0  0  0  0  0  0  0  0  0  0  0
   15.5070   55.8030   38.3380 C   0  0  0  0  0  0  0  0  0  0  0  0
   14.9730   56.6750   39.2630 O   0  0  0  0  0  0  0  0  0  0  0  0
   14.1800   57.7000   38.7920 C   0  0  0  0  0  0  0  0  0  0  0  0
   13.2460   57.3680   37.8100 C   0  0  0  0  0  0  0  0  0  0  0  0
   12.4140   58.3550   37.2760 C   0  0  0  0  0  0  0  0  0  0  0  0
   12.5140   59.6690   37.7330 C   0  0  0  0  0  0  0  0  0  0  0  0
   13.4270   59.9970   38.7340 C   0  0  0  0  0  0  0  0  0  0  0  0
   14.2500   59.0100   39.2780 C   0  0  0  0  0  0  0  0  0  0  0  0
   16.2700   56.2270   37.2460 C   0  0  0  0  0  0  0  0  0  0  0  0
   21.8042   52.2809   34.8150 H   0  0  0  0  0  0  0  0  0  0  0  0
   22.0638   51.2507   36.2960 H   0  0  0  0  0  0  0  0  0  0  0  0
   18.9310   52.0610   34.9230 H   0  0  0  0  0  0  0  0  0  0  0  0
   20.9170   54.1430   35.0650 H   0  0  0  0  0  0  0  0  0  0  0  0
   19.0379   54.6990   37.3360 H   0  0  0  0  0  0  0  0  0  0  0  0
   20.6429   55.5147   37.1587 H   0  0  0  0  0  0  0  0  0  0  0  0
   19.1281   57.0608   36.2574 H   0  0  0  0  0  0  0  0  0  0  0  0
   19.8010   56.1764   34.8126 H   0  0  0  0  0  0  0  0  0  0  0  0
   17.3087   56.6177   34.7749 H   0  0  0  0  0  0  0  0  0  0  0  0
   17.8599   54.8798   34.5743 H   0  0  0  0  0  0  0  0  0  0  0  0
   16.9781   53.1853   35.8707 H   0  0  0  0  0  0  0  0  0  0  0  0
   15.5217   52.4454   37.7515 H   0  0  0  0  0  0  0  0  0  0  0  0
   14.5893   54.1213   39.3462 H   0  0  0  0  0  0  0  0  0  0  0  0
   13.1648   56.3295   37.4565 H   0  0  0  0  0  0  0  0  0  0  0  0
   11.6817   58.0965   36.4969 H   0  0  0  0  0  0  0  0  0  0  0  0
   11.8699   60.4495   37.3018 H   0  0  0  0  0  0  0  0  0  0  0  0
   13.4987   61.0336   39.0950 H   0  0  0  0  0  0  0  0  0  0  0  0
   14.9519   59.2614   40.0868 H   0  0  0  0  0  0  0  0  0  0  0  0
   16.4259   57.3020   37.0726 H   0  0  0  0  0  0  0  0  0  0  0  0
  1  2  2  0
  2  3  1  0
  3  4  1  0
  4  5  2  0
  4  6  1  6
  4  7  1  0
  2  8  1  0
  8  9  1  0
  9 10  1  0
 10 11  1  0
 11 12  1  0
 12 13  2  0
 13 14  1  0
 14 15  2  0
 15 16  1  0
 16 17  1  0
 17 18  1  0
 18 19  2  0
 19 20  1  0
 20 21  2  0
 21 22  1  0
 22 23  2  0
 16 24  2  0
 24 12  1  0
 23 18  1  0
  3 25  1  0
  3 26  1  0
  7 27  1  0
  8 28  1  0
  9 29  1  0
  9 30  1  0
 10 31  1  0
 10 32  1  0
 11 33  1  0
 11 34  1  0
 13 35  1  0
 14 36  1  0
 15 37  1  0
 19 38  1  0
 20 39  1  0
 21 40  1  0
 22 41  1  0
 23 42  1  0
 24 43  1  0
M  CHG  1   6  -1
M  END
>  <meeko>  (7) 
{"is_sidechain": [false], "free_energy": -9.025, "intermolecular_energy": -13.224, "internal_energy": -1.103}

$$$$
2zy1_ligand
     RDKit          3D

 43 44  0  0  0  0  0  0  0  0999 V2000
   19.9960   50.4190   36.4920 O   0  0  0  0  0  0  0  0  0  0  0  0
   19.9970   51.6210   36.7650 C   0  0  0  0  0  0  0  0  0  0  0  0
   21.2650   52.3750   37.0520 C   0  0  0  0  0  0  0  0  0  0  0  0
   21.0070   53.8000   38.1110 P   0  0  2  0  0  5  0  0  0  0  0  0
   20.4670   53.4080   39.4580 O   0  0  0  0  0  0  0  0  0  0  0  0
   20.3670   54.9090   37.3120 O   0  0  0  0  0  0  0  0  0  0  0  0
   22.5300   54.2690   38.3800 O   0  0  0  0  0  0  0  0  0  0  0  0
   18.8590   52.4010   36.7050 N   0  0  0  0  0  0  0  0  0  0  0  0
   17.5500   51.7890   36.6840 C   0  0  0  0  0  0  0  0  0  0  0  0
   16.6570   52.3600   37.7800 C   0  0  0  0  0  0  0  0  0  0  0  0
   17.0660   53.7740   38.2110 C   0  0  0  0  0  0  0  0  0  0  0  0
   16.4090   54.8810   37.4210 C   0  0  0  0  0  0  0  0  0  0  0  0
   17.0990   55.5210   36.3820 C   0  0  0  0  0  0  0  0  0  0  0  0
   16.4760   56.5120   35.6190 C   0  0  0  0  0  0  0  0  0  0  0  0
   15.1510   56.8620   35.8760 C   0  0  0  0  0  0  0  0  0  0  0  0
   14.4510   56.2230   36.8970 C   0  0  0  0  0  0  0  0  0  0  0  0
   13.1400   56.6030   37.0870 O   0  0  0  0  0  0  0  0  0  0  0  0
   12.8980   57.9140   37.4370 C   0  0  0  0  0  0  0  0  0  0  0  0
   13.5720   58.3970   38.5600 C   0  0  0  0  0  0  0  0  0  0  0  0
   13.3690   59.7120   38.9840 C   0  0  0  0  0  0  0  0  0  0  0  0
   12.4990   60.5430   38.2780 C   0  0  0  0  0  0  0  0  0  0  0  0
   11.8460   60.0710   37.1400 C   0  0  0  0  0  0  0  0  0  0  0  0
   12.0580   58.7610   36.7080 C   0  0  0  0  0  0  0  0  0  0  0  0
   15.0910   55.2720   37.6980 C   0  0  0  0  0  0  0  0  0  0  0  0
   21.9736   51.6943   37.5464 H   0  0  0  0  0  0  0  0  0  0  0  0
   21.6535   52.7442   36.0914 H   0  0  0  0  0  0  0  0  0  0  0  0
   22.9990   54.1000   37.5440 H   0  0  0  0  0  0  0  0  0  0  0  0
   18.9450   53.3090   37.1960 H   0  0  0  0  0  0  0  0  0  0  0  0
   17.0821   51.9759   35.7062 H   0  0  0  0  0  0  0  0  0  0  0  0
   17.6674   50.7091   36.8576 H   0  0  0  0  0  0  0  0  0  0  0  0
   15.6225   52.3926   37.4076 H   0  0  0  0  0  0  0  0  0  0  0  0
   16.7568   51.7065   38.6592 H   0  0  0  0  0  0  0  0  0  0  0  0
   16.7986   53.9017   39.2703 H   0  0  0  0  0  0  0  0  0  0  0  0
   18.1476   53.8574   38.0290 H   0  0  0  0  0  0  0  0  0  0  0  0
   18.1403   55.2405   36.1654 H   0  0  0  0  0  0  0  0  0  0  0  0
   17.0314   57.0166   34.8147 H   0  0  0  0  0  0  0  0  0  0  0  0
   14.6597   57.6407   35.2741 H   0  0  0  0  0  0  0  0  0  0  0  0
   14.2629   57.7419   39.1109 H   0  0  0  0  0  0  0  0  0  0  0  0
   13.8941   60.0917   39.8729 H   0  0  0  0  0  0  0  0  0  0  0  0
   12.3275   61.5742   38.6202 H   0  0  0  0  0  0  0  0  0  0  0  0
   11.1643   60.7307   36.5832 H   0  0  0  0  0  0  0  0  0  0  0  0
   11.5649   58.3954   35.7952 H   0  0  0  0  0  0  0  0  0  0  0  0
   14.5571   54.8277   38.5510 H   0  0  0  0  0  0  0  0  0  0  0  0
  1  2  2  0
  2  3  1  0
  3  4  1  0
  4  5  2  0
  4  6  1  6
  4  7  1  0
  2  8  1  0
  8  9  1  0
  9 10  1  0
 10 11  1  0
 11 12  1  0
 12 13  2  0
 13 14  1  0
 14 15  2  0
 15 16  1  0
 16 17  1  0
 17 18  1  0
 18 19  2  0
 19 20  1  0
 20 21  2  0
 21 22  1  0
 22 23  2  0
 16 24  2  0
 24 12  1  0
 23 18  1  0
  3 25  1  0
  3 26  1  0
  7 27  1  0
  8 28  1  0
  9 29  1  0
  9 30  1  0
 10 31  1  0
 10 32  1  0
 11 33  1  0
 11 34  1  0
 13 35  1  0
 14 36  1  0
 15 37  1  0
 19 38  1  0
 20 39  1  0
 21 40  1  0
 22 41  1  0
 23 42  1  0
 24 43  1  0
M  CHG  1   6  -1
M  END
>  <meeko>  (8) 
{"is_sidechain": [false], "free_energy": -8.971, "intermolecular_energy": -12.88, "internal_energy": -1.366}

$$$$
2zy1_ligand
     RDKit          3D

 43 44  0  0  0  0  0  0  0  0999 V2000
   18.2450   50.7250   34.5900 O   0  0  0  0  0  0  0  0  0  0  0  0
   18.8840   50.7870   35.6430 C   0  0  0  0  0  0  0  0  0  0  0  0
   20.2670   50.2130   35.7740 C   0  0  0  0  0  0  0  0  0  0  0  0
   21.5250   51.4690   36.0220 P   0  0  2  0  0  5  0  0  0  0  0  0
   22.7890   51.1530   35.2720 O   0  0  0  0  0  0  0  0  0  0  0  0
   21.5670   51.8560   37.4800 O   0  0  0  0  0  0  0  0  0  0  0  0
   20.8680   52.7270   35.2490 O   0  0  0  0  0  0  0  0  0  0  0  0
   18.4430   51.4960   36.7430 N   0  0  0  0  0  0  0  0  0  0  0  0
   17.0570   51.8880   36.8550 C   0  0  0  0  0  0  0  0  0  0  0  0
   16.7570   52.4650   38.2350 C   0  0  0  0  0  0  0  0  0  0  0  0
   17.3220   53.8780   38.4290 C   0  0  0  0  0  0  0  0  0  0  0  0
   16.6980   54.9270   37.5390 C   0  0  0  0  0  0  0  0  0  0  0  0
   17.4370   55.5110   36.5010 C   0  0  0  0  0  0  0  0  0  0  0  0
   16.8470   56.4460   35.6470 C   0  0  0  0  0  0  0  0  0  0  0  0
   15.5070   56.7940   35.8100 C   0  0  0  0  0  0  0  0  0  0  0  0
   14.7590   56.2100   36.8300 C   0  0  0  0  0  0  0  0  0  0  0  0
   13.4360   56.5830   36.9260 O   0  0  0  0  0  0  0  0  0  0  0  0
   13.1620   57.8540   37.3860 C   0  0  0  0  0  0  0  0  0  0  0  0
   12.2390   58.6000   36.6500 C   0  0  0  0  0  0  0  0  0  0  0  0
   11.9180   59.8990   37.0460 C   0  0  0  0  0  0  0  0  0  0  0  0
   12.5140   60.4470   38.1820 C   0  0  0  0  0  0  0  0  0  0  0  0
   13.4150   59.6940   38.9340 C   0  0  0  0  0  0  0  0  0  0  0  0
   13.7270   58.3900   38.5470 C   0  0  0  0  0  0  0  0  0  0  0  0
   15.3640   55.3170   37.7210 C   0  0  0  0  0  0  0  0  0  0  0  0
   20.2821   49.5268   36.6336 H   0  0  0  0  0  0  0  0  0  0  0  0
   20.4996   49.6949   34.8319 H   0  0  0  0  0  0  0  0  0  0  0  0
   20.3380   53.1890   35.9210 H   0  0  0  0  0  0  0  0  0  0  0  0
   18.9370   51.2590   37.6220 H   0  0  0  0  0  0  0  0  0  0  0  0
   16.8366   52.6492   36.0921 H   0  0  0  0  0  0  0  0  0  0  0  0
   16.4297   50.9968   36.7060 H   0  0  0  0  0  0  0  0  0  0  0  0
   15.6659   52.5021   38.3699 H   0  0  0  0  0  0  0  0  0  0  0  0
   17.2403   51.8124   38.9770 H   0  0  0  0  0  0  0  0  0  0  0  0
   17.1582   54.1733   39.4759 H   0  0  0  0  0  0  0  0  0  0  0  0
   18.3872   53.8301   38.1587 H   0  0  0  0  0  0  0  0  0  0  0  0
   18.4909   55.2306   36.3575 H   0  0  0  0  0  0  0  0  0  0  0  0
   17.4407   56.9083   34.8447 H   0  0  0  0  0  0  0  0  0  0  0  0
   15.0416   57.5276   35.1353 H   0  0  0  0  0  0  0  0  0  0  0  0
   11.7651   58.1637   35.7583 H   0  0  0  0  0  0  0  0  0  0  0  0
   11.1961   60.4900   36.4633 H   0  0  0  0  0  0  0  0  0  0  0  0
   12.2724   61.4763   38.4855 H   0  0  0  0  0  0  0  0  0  0  0  0
   13.8796   60.1276   39.8318 H   0  0  0  0  0  0  0  0  0  0  0  0
   14.4162   57.7850   39.1544 H   0  0  0  0  0  0  0  0  0  0  0  0
   14.7891   54.9184   38.5699 H   0  0  0  0  0  0  0  0  0  0  0  0
  1  2  2  0
  2  3  1  0
  3  4  1  0
  4  5  2  0
  4  6  1  1
  4  7  1  0
  2  8  1  0
  8  9  1  0
  9 10  1  0
 10 11  1  0
 11 12  1  0
 12 13  2  0
 13 14  1  0
 14 15  2  0
 15 16  1  0
 16 17  1  0
 17 18  1  0
 18 19  2  0
 19 20  1  0
 20 21  2  0
 21 22  1  0
 22 23  2  0
 16 24  2  0
 24 12  1  0
 23 18  1  0
  3 25  1  0
  3 26  1  0
  7 27  1  0
  8 28  1  0
  9 29  1  0
  9 30  1  0
 10 31  1  0
 10 32  1  0
 11 33  1  0
 11 34  1  0
 13 35  1  0
 14 36  1  0
 15 37  1  0
 19 38  1  0
 20 39  1  0
 21 40  1  0
 22 41  1  0
 23 42  1  0
 24 43  1  0
M  CHG  1   6  -1
M  END
>  <meeko>  (9) 
{"is_sidechain": [false], "free_energy": -8.938, "intermolecular_energy": -12.883, "internal_energy": -1.314}

$$$$
