3b5r_ligand
     RDKit          3D

 41 42  0  0  0  0  0  0  0  0999 V2000
   29.4450   -0.8890    2.7380 C   0  0  0  0  0  0  0  0  0  0  0  0
   29.7250    0.3680    3.5600 C   0  0  2  0  0  0  0  0  0  0  0  0
   30.6350    1.1810    2.7920 O   0  0  0  0  0  0  0  0  0  0  0  0
   30.3410    0.0400    4.9310 C   0  0  0  0  0  0  0  0  0  0  0  0
   30.0940    1.1460    5.8120 O   0  0  0  0  0  0  0  0  0  0  0  0
   29.8720    0.8550    7.1290 C   0  0  0  0  0  0  0  0  0  0  0  0
   29.3720    1.9210    7.8850 C   0  0  0  0  0  0  0  0  0  0  0  0
   29.0960    1.7660    9.2470 C   0  0  0  0  0  0  0  0  0  0  0  0
   29.3220    0.5350    9.8580 C   0  0  0  0  0  0  0  0  0  0  0  0
   28.9820    0.3440   11.5340 Cl  0  0  0  0  0  0  0  0  0  0  0  0
   29.8190   -0.5270    9.1050 C   0  0  0  0  0  0  0  0  0  0  0  0
   30.0410   -1.7210    9.6730 F   0  0  0  0  0  0  0  0  0  0  0  0
   30.0950   -0.3750    7.7450 C   0  0  0  0  0  0  0  0  0  0  0  0
   28.4070    1.1440    3.7780 C   0  0  0  0  0  0  0  0  0  0  0  0
   27.3520    0.5740    4.0400 O   0  0  0  0  0  0  0  0  0  0  0  0
   28.5820    2.5050    3.5850 N   0  0  0  0  0  0  0  0  0  0  0  0
   27.6180    3.5230    3.6290 C   0  0  0  0  0  0  0  0  0  0  0  0
   28.0760    4.8400    3.5340 C   0  0  0  0  0  0  0  0  0  0  0  0
   27.1780    5.9100    3.5660 C   0  0  0  0  0  0  0  0  0  0  0  0
   25.8030    5.6780    3.6920 C   0  0  0  0  0  0  0  0  0  0  0  0
   24.9160    6.8090    3.7220 C   0  0  0  0  0  0  0  0  0  0  0  0
   24.2110    7.7290    3.7440 N   0  0  0  0  0  0  0  0  0  0  0  0
   25.3240    4.3610    3.7840 C   0  0  0  0  0  0  0  0  0  0  0  0
   23.8470    4.0820    3.9160 C   0  0  0  0  0  0  0  0  0  0  0  0
   23.0680    4.8790    3.1340 F   0  0  0  0  0  0  0  0  0  0  0  0
   23.5290    2.8040    3.5720 F   0  0  0  0  0  0  0  0  0  0  0  0
   23.3980    4.2610    5.1870 F   0  0  0  0  0  0  0  0  0  0  0  0
   26.2450    3.2930    3.7500 C   0  0  0  0  0  0  0  0  0  0  0  0
   29.2565   -1.7353    3.4149 H   0  0  0  0  0  0  0  0  0  0  0  0
   28.5618   -0.7231    2.1036 H   0  0  0  0  0  0  0  0  0  0  0  0
   30.3151   -1.1136    2.1036 H   0  0  0  0  0  0  0  0  0  0  0  0
   31.4600    0.6600    2.7190 H   0  0  0  0  0  0  0  0  0  0  0  0
   29.8780   -0.8708    5.3385 H   0  0  0  0  0  0  0  0  0  0  0  0
   31.4231   -0.1296    4.8296 H   0  0  0  0  0  0  0  0  0  0  0  0
   29.1938    2.8930    7.4019 H   0  0  0  0  0  0  0  0  0  0  0  0
   28.7030    2.6106    9.8319 H   0  0  0  0  0  0  0  0  0  0  0  0
   30.4866   -1.2220    7.1625 H   0  0  0  0  0  0  0  0  0  0  0  0
   29.5610    2.7780    3.5000 H   0  0  0  0  0  0  0  0  0  0  0  0
   29.1537    5.0361    3.4331 H   0  0  0  0  0  0  0  0  0  0  0  0
   27.5537    6.9412    3.4917 H   0  0  0  0  0  0  0  0  0  0  0  0
   25.8753    2.2594    3.8201 H   0  0  0  0  0  0  0  0  0  0  0  0
  1  2  1  0
  2  3  1  6
  2  4  1  0
  4  5  1  0
  5  6  1  0
  6  7  2  0
  7  8  1  0
  8  9  2  0
  9 10  1  0
  9 11  1  0
 11 12  1  0
 11 13  2  0
  2 14  1  0
 14 15  2  0
 14 16  1  0
 16 17  1  0
 17 18  2  0
 18 19  1  0
 19 20  2  0
 20 21  1  0
 21 22  3  0
 20 23  1  0
 23 24  1  0
 24 25  1  0
 24 26  1  0
 24 27  1  0
 23 28  2  0
 13  6  1  0
 28 17  1  0
  1 29  1  0
  1 30  1  0
  1 31  1  0
  3 32  1  0
  4 33  1  0
  4 34  1  0
  7 35  1  0
  8 36  1  0
 13 37  1  0
 16 38  1  0
 18 39  1  0
 19 40  1  0
 28 41  1  0
M  END
>  <meeko>  (1) 
{"is_sidechain": [false], "free_energy": -11.363, "intermolecular_energy": -15.681, "internal_energy": -0.414}

$$$$
3b5r_ligand
     RDKit          3D

 41 42  0  0  0  0  0  0  0  0999 V2000
   30.0450   -1.4530    3.1600 C   0  0  0  0  0  0  0  0  0  0  0  0
   29.9450   -0.0740    3.8100 C   0  0  2  0  0  0  0  0  0  0  0  0
   30.5890    0.8600    2.9210 O   0  0  0  0  0  0  0  0  0  0  0  0
   30.6190   -0.0350    5.1930 C   0  0  0  0  0  0  0  0  0  0  0  0
   30.1760    1.1480    5.8740 O   0  0  0  0  0  0  0  0  0  0  0  0
   29.8590    1.0200    7.1980 C   0  0  0  0  0  0  0  0  0  0  0  0
   30.3950   -0.1130    7.8200 C   0  0  0  0  0  0  0  0  0  0  0  0
   30.1550   -0.3690    9.1740 C   0  0  0  0  0  0  0  0  0  0  0  0
   29.3720    0.5160    9.9120 C   0  0  0  0  0  0  0  0  0  0  0  0
   29.0760    0.2020   11.5770 Cl  0  0  0  0  0  0  0  0  0  0  0  0
   28.8380    1.6440    9.2930 C   0  0  0  0  0  0  0  0  0  0  0  0
   28.0830    2.5100    9.9860 F   0  0  0  0  0  0  0  0  0  0  0  0
   29.0760    1.9030    7.9420 C   0  0  0  0  0  0  0  0  0  0  0  0
   28.4580    0.3130    3.9680 C   0  0  0  0  0  0  0  0  0  0  0  0
   27.5860   -0.5240    4.1760 O   0  0  0  0  0  0  0  0  0  0  0  0
   28.2680    1.6740    3.7890 N   0  0  0  0  0  0  0  0  0  0  0  0
   27.0630    2.3940    3.7920 C   0  0  0  0  0  0  0  0  0  0  0  0
   25.8780    1.6550    3.8620 C   0  0  0  0  0  0  0  0  0  0  0  0
   24.6380    2.2990    3.8730 C   0  0  0  0  0  0  0  0  0  0  0  0
   24.5630    3.6950    3.8180 C   0  0  0  0  0  0  0  0  0  0  0  0
   23.2660    4.3140    3.8310 C   0  0  0  0  0  0  0  0  0  0  0  0
   22.2150    4.8020    3.8430 N   0  0  0  0  0  0  0  0  0  0  0  0
   25.7440    4.4540    3.7520 C   0  0  0  0  0  0  0  0  0  0  0  0
   25.6930    5.9620    3.6960 C   0  0  0  0  0  0  0  0  0  0  0  0
   26.9200    6.5510    3.6900 F   0  0  0  0  0  0  0  0  0  0  0  0
   25.0600    6.4170    2.5810 F   0  0  0  0  0  0  0  0  0  0  0  0
   25.0320    6.4970    4.7580 F   0  0  0  0  0  0  0  0  0  0  0  0
   26.9880    3.7880    3.7420 C   0  0  0  0  0  0  0  0  0  0  0  0
   30.1009   -2.2240    3.9426 H   0  0  0  0  0  0  0  0  0  0  0  0
   29.1573   -1.6289    2.5347 H   0  0  0  0  0  0  0  0  0  0  0  0
   30.9488   -1.4990    2.5347 H   0  0  0  0  0  0  0  0  0  0  0  0
   30.5400    0.4560    2.0300 H   0  0  0  0  0  0  0  0  0  0  0  0
   30.3343   -0.9263    5.7713 H   0  0  0  0  0  0  0  0  0  0  0  0
   31.7134   -0.0227    5.0824 H   0  0  0  0  0  0  0  0  0  0  0  0
   31.0131   -0.8114    7.2367 H   0  0  0  0  0  0  0  0  0  0  0  0
   30.5815   -1.2628    9.6528 H   0  0  0  0  0  0  0  0  0  0  0  0
   28.6486    2.7983    7.4668 H   0  0  0  0  0  0  0  0  0  0  0  0
   29.1390    2.2030    3.7530 H   0  0  0  0  0  0  0  0  0  0  0  0
   25.9224    0.5569    3.9088 H   0  0  0  0  0  0  0  0  0  0  0  0
   23.7142    1.7042    3.9253 H   0  0  0  0  0  0  0  0  0  0  0  0
   27.9156    4.3773    3.6940 H   0  0  0  0  0  0  0  0  0  0  0  0
  1  2  1  0
  2  3  1  6
  2  4  1  0
  4  5  1  0
  5  6  1  0
  6  7  2  0
  7  8  1  0
  8  9  2  0
  9 10  1  0
  9 11  1  0
 11 12  1  0
 11 13  2  0
  2 14  1  0
 14 15  2  0
 14 16  1  0
 16 17  1  0
 17 18  2  0
 18 19  1  0
 19 20  2  0
 20 21  1  0
 21 22  3  0
 20 23  1  0
 23 24  1  0
 24 25  1  0
 24 26  1  0
 24 27  1  0
 23 28  2  0
 13  6  1  0
 28 17  1  0
  1 29  1  0
  1 30  1  0
  1 31  1  0
  3 32  1  0
  4 33  1  0
  4 34  1  0
  7 35  1  0
  8 36  1  0
 13 37  1  0
 16 38  1  0
 18 39  1  0
 19 40  1  0
 28 41  1  0
M  END
>  <meeko>  (2) 
{"is_sidechain": [false], "free_energy": -10.116, "intermolecular_energy": -13.917, "internal_energy": -0.457}

$$$$
