3zsx_ligand
     RDKit          3D

 60 63  0  0  0  0  0  0  0  0999 V2000
  -19.9670   34.6910   -8.9360 C   0  0  0  0  0  0  0  0  0  0  0  0
  -20.9560   35.5740   -8.7430 C   0  0  0  0  0  0  0  0  0  0  0  0
  -21.2340   36.2870   -7.4530 C   0  0  0  0  0  0  0  0  0  0  0  0
  -20.6330   37.6390   -7.3440 N   0  0  2  0  0  0  0  0  0  0  0  0
  -20.9470   38.4760   -6.1410 C   0  0  0  0  0  0  0  0  0  0  0  0
  -22.2840   38.2770   -5.4670 C   0  0  0  0  0  0  0  0  0  0  0  0
  -23.4160   38.9070   -6.0260 C   0  0  0  0  0  0  0  0  0  0  0  0
  -24.6840   38.7540   -5.4650 C   0  0  0  0  0  0  0  0  0  0  0  0
  -24.8540   37.9580   -4.3370 C   0  0  0  0  0  0  0  0  0  0  0  0
  -23.7540   37.3240   -3.7650 C   0  0  0  0  0  0  0  0  0  0  0  0
  -22.4690   37.4890   -4.3140 C   0  0  0  0  0  0  0  0  0  0  0  0
  -21.3320   36.7890   -3.6680 C   0  0  0  0  0  0  0  0  0  0  0  0
  -20.6650   37.3580   -2.8160 O   0  0  0  0  0  0  0  0  0  0  0  0
  -21.1310   35.4860   -4.0610 N   0  0  0  0  0  0  0  0  0  0  0  0
  -19.9440   34.7490   -3.6880 C   0  0  0  0  0  0  0  0  0  0  0  0
  -19.9490   33.3910   -4.3380 C   0  0  0  0  0  0  0  0  0  0  0  0
  -19.3280   33.2030   -5.5810 C   0  0  0  0  0  0  0  0  0  0  0  0
  -19.3520   31.9540   -6.2040 C   0  0  0  0  0  0  0  0  0  0  0  0
  -20.0010   30.8840   -5.5920 C   0  0  0  0  0  0  0  0  0  0  0  0
  -20.6280   31.0600   -4.3600 C   0  0  0  0  0  0  0  0  0  0  0  0
  -20.6070   32.3090   -3.7350 C   0  0  0  0  0  0  0  0  0  0  0  0
  -20.3830   38.4070   -8.6100 C   0  0  0  0  0  0  0  0  0  0  0  0
  -21.2570   39.6340   -8.8120 C   0  0  0  0  0  0  0  0  0  0  0  0
  -20.8210   40.8850   -8.3090 C   0  0  0  0  0  0  0  0  0  0  0  0
  -21.5870   42.0390   -8.4940 C   0  0  0  0  0  0  0  0  0  0  0  0
  -22.7740   41.9200   -9.1820 C   0  0  0  0  0  0  0  0  0  0  0  0
  -23.2160   40.7160   -9.6840 C   0  0  0  0  0  0  0  0  0  0  0  0
  -22.4840   39.5510   -9.5290 C   0  0  0  0  0  0  0  0  0  0  0  0
  -22.9700   38.2500  -10.0820 C   0  0  0  0  0  0  0  0  0  0  0  0
  -23.7660   37.6130   -9.3110 O   0  0  0  0  0  0  0  0  0  0  0  0
  -22.4830   37.8310  -11.1640 O   0  0  0  0  0  0  0  0  0  0  0  0
  -24.4300   40.8430  -10.2890 O   0  0  0  0  0  0  0  0  0  0  0  0
  -24.6510   42.2590  -10.1940 C   0  0  0  0  0  0  0  0  0  0  0  0
  -23.6340   42.9440   -9.4340 O   0  0  0  0  0  0  0  0  0  0  0  0
  -19.8383   34.2156   -9.9196 H   0  0  0  0  0  0  0  0  0  0  0  0
  -19.2837   34.4414   -8.1109 H   0  0  0  0  0  0  0  0  0  0  0  0
  -21.6148   35.7929   -9.5963 H   0  0  0  0  0  0  0  0  0  0  0  0
  -22.3242   36.3882   -7.3466 H   0  0  0  0  0  0  0  0  0  0  0  0
  -20.7733   35.6800   -6.6597 H   0  0  0  0  0  0  0  0  0  0  0  0
  -19.6370   37.3840   -7.1050 H   0  0  0  0  0  0  0  0  0  0  0  0
  -20.1690   38.2739   -5.3900 H   0  0  0  0  0  0  0  0  0  0  0  0
  -20.9842   39.5059   -6.5255 H   0  0  0  0  0  0  0  0  0  0  0  0
  -23.2961   39.5320   -6.9232 H   0  0  0  0  0  0  0  0  0  0  0  0
  -25.5494   39.2628   -5.9146 H   0  0  0  0  0  0  0  0  0  0  0  0
  -25.8545   37.8297   -3.8981 H   0  0  0  0  0  0  0  0  0  0  0  0
  -23.8907   36.6893   -2.8771 H   0  0  0  0  0  0  0  0  0  0  0  0
  -21.7030   35.0900   -4.7950 H   0  0  0  0  0  0  0  0  0  0  0  0
  -19.0532   35.3052   -4.0154 H   0  0  0  0  0  0  0  0  0  0  0  0
  -19.9281   34.6237   -2.5953 H   0  0  0  0  0  0  0  0  0  0  0  0
  -18.8178   34.0465   -6.0691 H   0  0  0  0  0  0  0  0  0  0  0  0
  -18.8589   31.8148   -7.1774 H   0  0  0  0  0  0  0  0  0  0  0  0
  -20.0186   29.8992   -6.0817 H   0  0  0  0  0  0  0  0  0  0  0  0
  -21.1404   30.2138   -3.8789 H   0  0  0  0  0  0  0  0  0  0  0  0
  -21.1088   32.4446   -2.7655 H   0  0  0  0  0  0  0  0  0  0  0  0
  -19.3331   38.7352   -8.6060 H   0  0  0  0  0  0  0  0  0  0  0  0
  -20.6288   37.7210   -9.4340 H   0  0  0  0  0  0  0  0  0  0  0  0
  -19.8667   40.9485   -7.7656 H   0  0  0  0  0  0  0  0  0  0  0  0
  -21.2526   43.0111   -8.1027 H   0  0  0  0  0  0  0  0  0  0  0  0
  -24.6697   42.6787  -11.2106 H   0  0  0  0  0  0  0  0  0  0  0  0
  -25.6060   42.4059   -9.6682 H   0  0  0  0  0  0  0  0  0  0  0  0
  1  2  2  0
  2  3  1  0
  3  4  1  0
  4  5  1  0
  5  6  1  0
  6  7  2  0
  7  8  1  0
  8  9  2  0
  9 10  1  0
 10 11  2  0
 11 12  1  0
 12 13  2  0
 12 14  1  0
 14 15  1  0
 15 16  1  0
 16 17  2  0
 17 18  1  0
 18 19  2  0
 19 20  1  0
 20 21  2  0
  4 22  1  0
 22 23  1  0
 23 24  2  0
 24 25  1  0
 25 26  2  0
 26 27  1  0
 27 28  2  0
 28 29  1  0
 29 30  2  0
 29 31  1  0
 27 32  1  0
 32 33  1  0
 33 34  1  0
 11  6  1  0
 21 16  1  0
 28 23  1  0
 34 26  1  0
  1 35  1  0
  1 36  1  0
  2 37  1  0
  3 38  1  0
  3 39  1  0
  4 40  1  1
  5 41  1  0
  5 42  1  0
  7 43  1  0
  8 44  1  0
  9 45  1  0
 10 46  1  0
 14 47  1  0
 15 48  1  0
 15 49  1  0
 17 50  1  0
 18 51  1  0
 19 52  1  0
 20 53  1  0
 21 54  1  0
 22 55  1  0
 22 56  1  0
 24 57  1  0
 25 58  1  0
 33 59  1  0
 33 60  1  0
M  CHG  2   4   1  31  -1
M  END
>  <meeko>  (1) 
{"is_sidechain": [false], "free_energy": -8.092, "intermolecular_energy": -12.823, "internal_energy": -2.391}

$$$$
3zsx_ligand
     RDKit          3D

 60 63  0  0  0  0  0  0  0  0999 V2000
  -19.3470   34.0960   -9.0540 C   0  0  0  0  0  0  0  0  0  0  0  0
  -20.3150   34.9180   -8.6250 C   0  0  0  0  0  0  0  0  0  0  0  0
  -20.4120   36.3780   -8.9520 C   0  0  0  0  0  0  0  0  0  0  0  0
  -21.5060   37.1030   -8.2600 N   0  0  2  0  0  0  0  0  0  0  0  0
  -22.5080   36.3180   -7.4700 C   0  0  0  0  0  0  0  0  0  0  0  0
  -23.1220   36.9710   -6.2540 C   0  0  0  0  0  0  0  0  0  0  0  0
  -24.4280   37.4950   -6.3630 C   0  0  0  0  0  0  0  0  0  0  0  0
  -25.0630   38.0970   -5.2760 C   0  0  0  0  0  0  0  0  0  0  0  0
  -24.4110   38.1820   -4.0500 C   0  0  0  0  0  0  0  0  0  0  0  0
  -23.1220   37.6720   -3.9140 C   0  0  0  0  0  0  0  0  0  0  0  0
  -22.4690   37.0810   -5.0100 C   0  0  0  0  0  0  0  0  0  0  0  0
  -21.0980   36.5510   -4.8110 C   0  0  0  0  0  0  0  0  0  0  0  0
  -20.1520   37.0590   -5.3980 O   0  0  0  0  0  0  0  0  0  0  0  0
  -20.9820   35.5150   -3.9140 N   0  0  0  0  0  0  0  0  0  0  0  0
  -19.7580   34.7560   -3.7770 C   0  0  0  0  0  0  0  0  0  0  0  0
  -19.9310   33.3790   -4.3630 C   0  0  0  0  0  0  0  0  0  0  0  0
  -20.6700   32.4080   -3.6730 C   0  0  0  0  0  0  0  0  0  0  0  0
  -20.8130   31.1220   -4.1950 C   0  0  0  0  0  0  0  0  0  0  0  0
  -20.2120   30.7940   -5.4100 C   0  0  0  0  0  0  0  0  0  0  0  0
  -19.4690   31.7480   -6.1010 C   0  0  0  0  0  0  0  0  0  0  0  0
  -19.3240   33.0350   -5.5800 C   0  0  0  0  0  0  0  0  0  0  0  0
  -22.0300   38.3620   -8.8900 C   0  0  0  0  0  0  0  0  0  0  0  0
  -21.5070   39.6570   -8.2910 C   0  0  0  0  0  0  0  0  0  0  0  0
  -20.2080   39.6830   -7.7250 C   0  0  0  0  0  0  0  0  0  0  0  0
  -19.6830   40.8590   -7.1840 C   0  0  0  0  0  0  0  0  0  0  0  0
  -20.4680   41.9910   -7.2230 C   0  0  0  0  0  0  0  0  0  0  0  0
  -21.7320   41.9910   -7.7720 C   0  0  0  0  0  0  0  0  0  0  0  0
  -22.2850   40.8490   -8.3240 C   0  0  0  0  0  0  0  0  0  0  0  0
  -23.6550   40.8600   -8.9220 C   0  0  0  0  0  0  0  0  0  0  0  0
  -23.6960   41.2520  -10.1390 O   0  0  0  0  0  0  0  0  0  0  0  0
  -24.6430   40.6180   -8.1810 O   0  0  0  0  0  0  0  0  0  0  0  0
  -22.3240   43.2120   -7.6590 O   0  0  0  0  0  0  0  0  0  0  0  0
  -21.2700   43.9900   -7.0710 C   0  0  0  0  0  0  0  0  0  0  0  0
  -20.1070   43.2070   -6.7300 O   0  0  0  0  0  0  0  0  0  0  0  0
  -19.3569   33.0354   -8.7625 H   0  0  0  0  0  0  0  0  0  0  0  0
  -18.5428   34.4821   -9.6975 H   0  0  0  0  0  0  0  0  0  0  0  0
  -21.0986   34.4883   -7.9836 H   0  0  0  0  0  0  0  0  0  0  0  0
  -19.4593   36.8537   -8.6763 H   0  0  0  0  0  0  0  0  0  0  0  0
  -20.6345   36.4386  -10.0276 H   0  0  0  0  0  0  0  0  0  0  0  0
  -20.9700   37.5310   -7.4580 H   0  0  0  0  0  0  0  0  0  0  0  0
  -23.3309   36.0579   -8.1521 H   0  0  0  0  0  0  0  0  0  0  0  0
  -21.9356   35.4697   -7.0665 H   0  0  0  0  0  0  0  0  0  0  0  0
  -24.9565   37.4274   -7.3253 H   0  0  0  0  0  0  0  0  0  0  0  0
  -26.0787   38.5042   -5.3885 H   0  0  0  0  0  0  0  0  0  0  0  0
  -24.9121   38.6507   -3.1903 H   0  0  0  0  0  0  0  0  0  0  0  0
  -22.6110   37.7321   -2.9417 H   0  0  0  0  0  0  0  0  0  0  0  0
  -21.8110   35.1240   -3.4890 H   0  0  0  0  0  0  0  0  0  0  0  0
  -18.9464   35.2768   -4.3063 H   0  0  0  0  0  0  0  0  0  0  0  0
  -19.5111   34.6631   -2.7091 H   0  0  0  0  0  0  0  0  0  0  0  0
  -21.1411   32.6620   -2.7120 H   0  0  0  0  0  0  0  0  0  0  0  0
  -21.3989   30.3679   -3.6490 H   0  0  0  0  0  0  0  0  0  0  0  0
  -20.3249   29.7807   -5.8230 H   0  0  0  0  0  0  0  0  0  0  0  0
  -18.9956   31.4869   -7.0590 H   0  0  0  0  0  0  0  0  0  0  0  0
  -18.7309   33.7830   -6.1265 H   0  0  0  0  0  0  0  0  0  0  0  0
  -21.7580   38.3468   -9.9557 H   0  0  0  0  0  0  0  0  0  0  0  0
  -23.1153   38.3617   -8.7107 H   0  0  0  0  0  0  0  0  0  0  0  0
  -19.6043   38.7636   -7.7115 H   0  0  0  0  0  0  0  0  0  0  0  0
  -18.6762   40.8808   -6.7414 H   0  0  0  0  0  0  0  0  0  0  0  0
  -20.9692   44.7688   -7.7872 H   0  0  0  0  0  0  0  0  0  0  0  0
  -21.6618   44.4170   -6.1360 H   0  0  0  0  0  0  0  0  0  0  0  0
  1  2  2  0
  2  3  1  0
  3  4  1  0
  4  5  1  0
  5  6  1  0
  6  7  2  0
  7  8  1  0
  8  9  2  0
  9 10  1  0
 10 11  2  0
 11 12  1  0
 12 13  2  0
 12 14  1  0
 14 15  1  0
 15 16  1  0
 16 17  2  0
 17 18  1  0
 18 19  2  0
 19 20  1  0
 20 21  2  0
  4 22  1  0
 22 23  1  0
 23 24  2  0
 24 25  1  0
 25 26  2  0
 26 27  1  0
 27 28  2  0
 28 29  1  0
 29 30  2  0
 29 31  1  0
 27 32  1  0
 32 33  1  0
 33 34  1  0
 11  6  1  0
 21 16  1  0
 28 23  1  0
 34 26  1  0
  1 35  1  0
  1 36  1  0
  2 37  1  0
  3 38  1  0
  3 39  1  0
  4 40  1  1
  5 41  1  0
  5 42  1  0
  7 43  1  0
  8 44  1  0
  9 45  1  0
 10 46  1  0
 14 47  1  0
 15 48  1  0
 15 49  1  0
 17 50  1  0
 18 51  1  0
 19 52  1  0
 20 53  1  0
 21 54  1  0
 22 55  1  0
 22 56  1  0
 24 57  1  0
 25 58  1  0
 33 59  1  0
 33 60  1  0
M  CHG  2   4   1  31  -1
M  END
>  <meeko>  (2) 
{"is_sidechain": [false], "free_energy": -7.94, "intermolecular_energy": -12.387, "internal_energy": -2.586}

$$$$
3zsx_ligand
     RDKit          3D

 60 63  0  0  0  0  0  0  0  0999 V2000
  -19.5200   33.7820   -3.6220 C   0  0  0  0  0  0  0  0  0  0  0  0
  -19.9860   34.8490   -4.2860 C   0  0  0  0  0  0  0  0  0  0  0  0
  -21.1750   35.6660   -3.8760 C   0  0  0  0  0  0  0  0  0  0  0  0
  -21.2790   36.9930   -4.5320 N   0  0  2  0  0  0  0  0  0  0  0  0
  -20.1210   37.4950   -5.3390 C   0  0  0  0  0  0  0  0  0  0  0  0
  -20.4160   38.3600   -6.5420 C   0  0  0  0  0  0  0  0  0  0  0  0
  -20.2570   39.7560   -6.4170 C   0  0  0  0  0  0  0  0  0  0  0  0
  -20.4970   40.6140   -7.4920 C   0  0  0  0  0  0  0  0  0  0  0  0
  -20.8910   40.0950   -8.7210 C   0  0  0  0  0  0  0  0  0  0  0  0
  -21.0550   38.7210   -8.8720 C   0  0  0  0  0  0  0  0  0  0  0  0
  -20.8330   37.8520   -7.7880 C   0  0  0  0  0  0  0  0  0  0  0  0
  -21.0190   36.3960   -8.0030 C   0  0  0  0  0  0  0  0  0  0  0  0
  -21.8680   35.7840   -7.3690 O   0  0  0  0  0  0  0  0  0  0  0  0
  -20.2200   35.8280   -8.9680 N   0  0  0  0  0  0  0  0  0  0  0  0
  -20.1300   34.3940   -9.1400 C   0  0  0  0  0  0  0  0  0  0  0  0
  -18.8860   33.8670   -8.4740 C   0  0  0  0  0  0  0  0  0  0  0  0
  -17.6320   34.0630   -9.0700 C   0  0  0  0  0  0  0  0  0  0  0  0
  -16.4770   33.5550   -8.4740 C   0  0  0  0  0  0  0  0  0  0  0  0
  -16.5660   32.8410   -7.2800 C   0  0  0  0  0  0  0  0  0  0  0  0
  -17.8070   32.6330   -6.6830 C   0  0  0  0  0  0  0  0  0  0  0  0
  -18.9650   33.1400   -7.2770 C   0  0  0  0  0  0  0  0  0  0  0  0
  -22.0950   38.0560   -3.8530 C   0  0  0  0  0  0  0  0  0  0  0  0
  -23.4860   38.2750   -4.4260 C   0  0  0  0  0  0  0  0  0  0  0  0
  -24.1570   37.1920   -5.0470 C   0  0  0  0  0  0  0  0  0  0  0  0
  -25.4440   37.3480   -5.5660 C   0  0  0  0  0  0  0  0  0  0  0  0
  -26.0390   38.5850   -5.4510 C   0  0  0  0  0  0  0  0  0  0  0  0
  -25.4080   39.6510   -4.8480 C   0  0  0  0  0  0  0  0  0  0  0  0
  -24.1360   39.5360   -4.3150 C   0  0  0  0  0  0  0  0  0  0  0  0
  -23.4620   40.6970   -3.6570 C   0  0  0  0  0  0  0  0  0  0  0  0
  -23.7810   40.8670   -2.4300 O   0  0  0  0  0  0  0  0  0  0  0  0
  -22.7580   41.4680   -4.3600 O   0  0  0  0  0  0  0  0  0  0  0  0
  -26.1770   40.7740   -4.8900 O   0  0  0  0  0  0  0  0  0  0  0  0
  -27.3810   40.2760   -5.4940 C   0  0  0  0  0  0  0  0  0  0  0  0
  -27.2790   38.9000   -5.9140 O   0  0  0  0  0  0  0  0  0  0  0  0
  -18.6387   33.2419   -3.9982 H   0  0  0  0  0  0  0  0  0  0  0  0
  -20.0189   33.4464   -2.7009 H   0  0  0  0  0  0  0  0  0  0  0  0
  -19.4556   35.1484   -5.2020 H   0  0  0  0  0  0  0  0  0  0  0  0
  -22.0826   35.0934   -4.1179 H   0  0  0  0  0  0  0  0  0  0  0  0
  -21.0573   35.8627   -2.8002 H   0  0  0  0  0  0  0  0  0  0  0  0
  -21.9370   36.7610   -5.3230 H   0  0  0  0  0  0  0  0  0  0  0  0
  -19.4815   38.0818   -4.6632 H   0  0  0  0  0  0  0  0  0  0  0  0
  -19.6651   36.5865   -5.7594 H   0  0  0  0  0  0  0  0  0  0  0  0
  -19.9373   40.1774   -5.4525 H   0  0  0  0  0  0  0  0  0  0  0  0
  -20.3746   41.7000   -7.3671 H   0  0  0  0  0  0  0  0  0  0  0  0
  -21.0725   40.7687   -9.5714 H   0  0  0  0  0  0  0  0  0  0  0  0
  -21.3605   38.3115   -9.8462 H   0  0  0  0  0  0  0  0  0  0  0  0
  -19.5170   36.3880   -9.4310 H   0  0  0  0  0  0  0  0  0  0  0  0
  -21.0131   33.9179   -8.6889 H   0  0  0  0  0  0  0  0  0  0  0  0
  -20.0867   34.1635  -10.2147 H   0  0  0  0  0  0  0  0  0  0  0  0
  -17.5581   34.6216  -10.0147 H   0  0  0  0  0  0  0  0  0  0  0  0
  -15.4969   33.7179   -8.9461 H   0  0  0  0  0  0  0  0  0  0  0  0
  -15.6556   32.4417   -6.8091 H   0  0  0  0  0  0  0  0  0  0  0  0
  -17.8753   32.0682   -5.7416 H   0  0  0  0  0  0  0  0  0  0  0  0
  -19.9432   32.9684   -6.8041 H   0  0  0  0  0  0  0  0  0  0  0  0
  -22.2040   37.7762   -2.7948 H   0  0  0  0  0  0  0  0  0  0  0  0
  -21.5516   39.0000   -4.0066 H   0  0  0  0  0  0  0  0  0  0  0  0
  -23.6570   36.2150   -5.1212 H   0  0  0  0  0  0  0  0  0  0  0  0
  -25.9659   36.5100   -6.0511 H   0  0  0  0  0  0  0  0  0  0  0  0
  -28.1989   40.3587   -4.7631 H   0  0  0  0  0  0  0  0  0  0  0  0
  -27.5688   40.8795   -6.3943 H   0  0  0  0  0  0  0  0  0  0  0  0
  1  2  2  0
  2  3  1  0
  3  4  1  0
  4  5  1  0
  5  6  1  0
  6  7  2  0
  7  8  1  0
  8  9  2  0
  9 10  1  0
 10 11  2  0
 11 12  1  0
 12 13  2  0
 12 14  1  0
 14 15  1  0
 15 16  1  0
 16 17  2  0
 17 18  1  0
 18 19  2  0
 19 20  1  0
 20 21  2  0
  4 22  1  0
 22 23  1  0
 23 24  2  0
 24 25  1  0
 25 26  2  0
 26 27  1  0
 27 28  2  0
 28 29  1  0
 29 30  2  0
 29 31  1  0
 27 32  1  0
 32 33  1  0
 33 34  1  0
 11  6  1  0
 21 16  1  0
 28 23  1  0
 34 26  1  0
  1 35  1  0
  1 36  1  0
  2 37  1  0
  3 38  1  0
  3 39  1  0
  4 40  1  6
  5 41  1  0
  5 42  1  0
  7 43  1  0
  8 44  1  0
  9 45  1  0
 10 46  1  0
 14 47  1  0
 15 48  1  0
 15 49  1  0
 17 50  1  0
 18 51  1  0
 19 52  1  0
 20 53  1  0
 21 54  1  0
 22 55  1  0
 22 56  1  0
 24 57  1  0
 25 58  1  0
 33 59  1  0
 33 60  1  0
M  CHG  2   4   1  31  -1
M  END
>  <meeko>  (3) 
{"is_sidechain": [false], "free_energy": -7.816, "intermolecular_energy": -12.139, "internal_energy": -2.637}

$$$$
3zsx_ligand
     RDKit          3D

 60 63  0  0  0  0  0  0  0  0999 V2000
  -22.1840   37.9180  -10.8670 C   0  0  0  0  0  0  0  0  0  0  0  0
  -23.2290   38.3360  -10.1410 C   0  0  0  0  0  0  0  0  0  0  0  0
  -23.2870   39.6250   -9.3770 C   0  0  0  0  0  0  0  0  0  0  0  0
  -22.9710   39.5110   -7.9320 N   0  0  2  0  0  0  0  0  0  0  0  0
  -23.9120   40.1160   -6.9350 C   0  0  0  0  0  0  0  0  0  0  0  0
  -24.5910   39.1930   -5.9490 C   0  0  0  0  0  0  0  0  0  0  0  0
  -24.7360   37.8330   -6.2970 C   0  0  0  0  0  0  0  0  0  0  0  0
  -25.3390   36.9220   -5.4290 C   0  0  0  0  0  0  0  0  0  0  0  0
  -25.8030   37.3460   -4.1880 C   0  0  0  0  0  0  0  0  0  0  0  0
  -25.6720   38.6830   -3.8200 C   0  0  0  0  0  0  0  0  0  0  0  0
  -25.0820   39.6110   -4.6970 C   0  0  0  0  0  0  0  0  0  0  0  0
  -24.9650   41.0220   -4.2550 C   0  0  0  0  0  0  0  0  0  0  0  0
  -25.8550   41.8210   -4.5080 O   0  0  0  0  0  0  0  0  0  0  0  0
  -23.8380   41.3280   -3.5270 N   0  0  0  0  0  0  0  0  0  0  0  0
  -23.4770   42.6940   -3.2160 C   0  0  0  0  0  0  0  0  0  0  0  0
  -23.1820   42.8310   -1.7450 C   0  0  0  0  0  0  0  0  0  0  0  0
  -22.6490   44.0270   -1.2430 C   0  0  0  0  0  0  0  0  0  0  0  0
  -22.3470   44.1540    0.1140 C   0  0  0  0  0  0  0  0  0  0  0  0
  -22.5690   43.0830    0.9790 C   0  0  0  0  0  0  0  0  0  0  0  0
  -23.0900   41.8880    0.4900 C   0  0  0  0  0  0  0  0  0  0  0  0
  -23.3930   41.7580   -0.8670 C   0  0  0  0  0  0  0  0  0  0  0  0
  -21.5260   39.4960   -7.5220 C   0  0  0  0  0  0  0  0  0  0  0  0
  -21.2110   38.6860   -6.2740 C   0  0  0  0  0  0  0  0  0  0  0  0
  -21.1320   39.3450   -5.0230 C   0  0  0  0  0  0  0  0  0  0  0  0
  -20.8660   38.6330   -3.8510 C   0  0  0  0  0  0  0  0  0  0  0  0
  -20.6860   37.2710   -3.9540 C   0  0  0  0  0  0  0  0  0  0  0  0
  -20.7620   36.6070   -5.1580 C   0  0  0  0  0  0  0  0  0  0  0  0
  -21.0310   37.2760   -6.3410 C   0  0  0  0  0  0  0  0  0  0  0  0
  -21.1170   36.5460   -7.6430 C   0  0  0  0  0  0  0  0  0  0  0  0
  -22.2160   35.9190   -7.8240 O   0  0  0  0  0  0  0  0  0  0  0  0
  -20.0970   36.4970   -8.3790 O   0  0  0  0  0  0  0  0  0  0  0  0
  -20.5110   35.2770   -5.0120 O   0  0  0  0  0  0  0  0  0  0  0  0
  -20.3650   35.1670   -3.5880 C   0  0  0  0  0  0  0  0  0  0  0  0
  -20.4100   36.4400   -2.9110 O   0  0  0  0  0  0  0  0  0  0  0  0
  -22.2317   36.9545  -11.3956 H   0  0  0  0  0  0  0  0  0  0  0  0
  -21.2780   38.5382  -10.9347 H   0  0  0  0  0  0  0  0  0  0  0  0
  -24.1134   37.6830  -10.1022 H   0  0  0  0  0  0  0  0  0  0  0  0
  -22.5674   40.3230   -9.8298 H   0  0  0  0  0  0  0  0  0  0  0  0
  -24.3290   39.9723   -9.4378 H   0  0  0  0  0  0  0  0  0  0  0  0
  -23.1990   38.4930   -7.7690 H   0  0  0  0  0  0  0  0  0  0  0  0
  -23.3411   40.8540   -6.3524 H   0  0  0  0  0  0  0  0  0  0  0  0
  -24.7342   40.5206   -7.5436 H   0  0  0  0  0  0  0  0  0  0  0  0
  -24.3661   37.4840   -7.2724 H   0  0  0  0  0  0  0  0  0  0  0  0
  -25.4475   35.8684   -5.7261 H   0  0  0  0  0  0  0  0  0  0  0  0
  -26.2719   36.6276   -3.4994 H   0  0  0  0  0  0  0  0  0  0  0  0
  -26.0329   39.0158   -2.8356 H   0  0  0  0  0  0  0  0  0  0  0  0
  -23.1270   40.6240   -3.3830 H   0  0  0  0  0  0  0  0  0  0  0  0
  -22.5838   42.9745   -3.7936 H   0  0  0  0  0  0  0  0  0  0  0  0
  -24.3158   43.3558   -3.4775 H   0  0  0  0  0  0  0  0  0  0  0  0
  -22.4675   44.8717   -1.9238 H   0  0  0  0  0  0  0  0  0  0  0  0
  -21.9345   45.0977    0.5004 H   0  0  0  0  0  0  0  0  0  0  0  0
  -22.3323   43.1824    2.0486 H   0  0  0  0  0  0  0  0  0  0  0  0
  -23.2634   41.0443    1.1742 H   0  0  0  0  0  0  0  0  0  0  0  0
  -23.7990   40.8097   -1.2489 H   0  0  0  0  0  0  0  0  0  0  0  0
  -20.9412   39.0779   -8.3546 H   0  0  0  0  0  0  0  0  0  0  0  0
  -21.2684   40.5378   -7.2805 H   0  0  0  0  0  0  0  0  0  0  0  0
  -21.2823   40.4336   -4.9735 H   0  0  0  0  0  0  0  0  0  0  0  0
  -20.8024   39.1428   -2.8783 H   0  0  0  0  0  0  0  0  0  0  0  0
  -21.1791   34.5365   -3.2010 H   0  0  0  0  0  0  0  0  0  0  0  0
  -19.3746   34.7292   -3.3943 H   0  0  0  0  0  0  0  0  0  0  0  0
  1  2  2  0
  2  3  1  0
  3  4  1  0
  4  5  1  0
  5  6  1  0
  6  7  2  0
  7  8  1  0
  8  9  2  0
  9 10  1  0
 10 11  2  0
 11 12  1  0
 12 13  2  0
 12 14  1  0
 14 15  1  0
 15 16  1  0
 16 17  2  0
 17 18  1  0
 18 19  2  0
 19 20  1  0
 20 21  2  0
  4 22  1  0
 22 23  1  0
 23 24  2  0
 24 25  1  0
 25 26  2  0
 26 27  1  0
 27 28  2  0
 28 29  1  0
 29 30  2  0
 29 31  1  0
 27 32  1  0
 32 33  1  0
 33 34  1  0
 11  6  1  0
 21 16  1  0
 28 23  1  0
 34 26  1  0
  1 35  1  0
  1 36  1  0
  2 37  1  0
  3 38  1  0
  3 39  1  0
  4 40  1  1
  5 41  1  0
  5 42  1  0
  7 43  1  0
  8 44  1  0
  9 45  1  0
 10 46  1  0
 14 47  1  0
 15 48  1  0
 15 49  1  0
 17 50  1  0
 18 51  1  0
 19 52  1  0
 20 53  1  0
 21 54  1  0
 22 55  1  0
 22 56  1  0
 24 57  1  0
 25 58  1  0
 33 59  1  0
 33 60  1  0
M  CHG  2   4   1  31  -1
M  END
>  <meeko>  (4) 
{"is_sidechain": [false], "free_energy": -7.579, "intermolecular_energy": -11.734, "internal_energy": -2.666}

$$$$
3zsx_ligand
     RDKit          3D

 60 63  0  0  0  0  0  0  0  0999 V2000
  -19.7320   41.7860   -7.2810 C   0  0  0  0  0  0  0  0  0  0  0  0
  -19.7500   40.8260   -8.2150 C   0  0  0  0  0  0  0  0  0  0  0  0
  -20.9780   40.1060   -8.6880 C   0  0  0  0  0  0  0  0  0  0  0  0
  -21.5160   39.0990   -7.7410 N   0  0  2  0  0  0  0  0  0  0  0  0
  -20.5590   38.2100   -7.0080 C   0  0  0  0  0  0  0  0  0  0  0  0
  -20.8410   37.9080   -5.5550 C   0  0  0  0  0  0  0  0  0  0  0  0
  -21.1040   38.9890   -4.6870 C   0  0  0  0  0  0  0  0  0  0  0  0
  -21.3880   38.7830   -3.3350 C   0  0  0  0  0  0  0  0  0  0  0  0
  -21.4270   37.4910   -2.8220 C   0  0  0  0  0  0  0  0  0  0  0  0
  -21.1720   36.4060   -3.6570 C   0  0  0  0  0  0  0  0  0  0  0  0
  -20.8660   36.6070   -5.0160 C   0  0  0  0  0  0  0  0  0  0  0  0
  -20.6070   35.4170   -5.8630 C   0  0  0  0  0  0  0  0  0  0  0  0
  -21.0940   35.3420   -6.9820 O   0  0  0  0  0  0  0  0  0  0  0  0
  -19.7700   34.4690   -5.3210 N   0  0  0  0  0  0  0  0  0  0  0  0
  -19.5960   33.1670   -5.9270 C   0  0  0  0  0  0  0  0  0  0  0  0
  -18.3430   33.1440   -6.7610 C   0  0  0  0  0  0  0  0  0  0  0  0
  -18.3970   33.4770   -8.1220 C   0  0  0  0  0  0  0  0  0  0  0  0
  -17.2460   33.4320   -8.9100 C   0  0  0  0  0  0  0  0  0  0  0  0
  -16.0310   33.0490   -8.3440 C   0  0  0  0  0  0  0  0  0  0  0  0
  -15.9660   32.7080   -6.9950 C   0  0  0  0  0  0  0  0  0  0  0  0
  -17.1170   32.7520   -6.2050 C   0  0  0  0  0  0  0  0  0  0  0  0
  -22.8550   38.4870   -8.0440 C   0  0  0  0  0  0  0  0  0  0  0  0
  -23.8440   38.4820   -6.8900 C   0  0  0  0  0  0  0  0  0  0  0  0
  -24.2130   37.2480   -6.2990 C   0  0  0  0  0  0  0  0  0  0  0  0
  -25.1030   37.2040   -5.2230 C   0  0  0  0  0  0  0  0  0  0  0  0
  -25.6050   38.3990   -4.7550 C   0  0  0  0  0  0  0  0  0  0  0  0
  -25.2590   39.6110   -5.3100 C   0  0  0  0  0  0  0  0  0  0  0  0
  -24.3750   39.6980   -6.3720 C   0  0  0  0  0  0  0  0  0  0  0  0
  -24.0000   41.0180   -6.9640 C   0  0  0  0  0  0  0  0  0  0  0  0
  -23.0550   41.6230   -6.3500 O   0  0  0  0  0  0  0  0  0  0  0  0
  -24.6960   41.4810   -7.9060 O   0  0  0  0  0  0  0  0  0  0  0  0
  -25.9110   40.6410   -4.7050 O   0  0  0  0  0  0  0  0  0  0  0  0
  -26.6240   39.9580   -3.6620 C   0  0  0  0  0  0  0  0  0  0  0  0
  -26.4870   38.5230   -3.7260 O   0  0  0  0  0  0  0  0  0  0  0  0
  -18.7805   42.2593   -6.9971 H   0  0  0  0  0  0  0  0  0  0  0  0
  -20.6687   42.1010   -6.7979 H   0  0  0  0  0  0  0  0  0  0  0  0
  -18.7894   40.5436   -8.6706 H   0  0  0  0  0  0  0  0  0  0  0  0
  -21.7627   40.8543   -8.8731 H   0  0  0  0  0  0  0  0  0  0  0  0
  -20.6820   39.5524   -9.5913 H   0  0  0  0  0  0  0  0  0  0  0  0
  -21.7980   39.7250   -6.9400 H   0  0  0  0  0  0  0  0  0  0  0  0
  -20.5311   37.2488   -7.5422 H   0  0  0  0  0  0  0  0  0  0  0  0
  -19.6159   38.7759   -6.9925 H   0  0  0  0  0  0  0  0  0  0  0  0
  -21.0850   40.0150   -5.0832 H   0  0  0  0  0  0  0  0  0  0  0  0
  -21.5808   39.6425   -2.6762 H   0  0  0  0  0  0  0  0  0  0  0  0
  -21.6587   37.3265   -1.7593 H   0  0  0  0  0  0  0  0  0  0  0  0
  -21.2100   35.3842   -3.2514 H   0  0  0  0  0  0  0  0  0  0  0  0
  -19.4280   34.5830   -4.3760 H   0  0  0  0  0  0  0  0  0  0  0  0
  -19.5202   32.4057   -5.1366 H   0  0  0  0  0  0  0  0  0  0  0  0
  -20.4605   32.9537   -6.5728 H   0  0  0  0  0  0  0  0  0  0  0  0
  -19.3548   33.7763   -8.5725 H   0  0  0  0  0  0  0  0  0  0  0  0
  -17.2975   33.6983   -9.9760 H   0  0  0  0  0  0  0  0  0  0  0  0
  -15.1225   33.0160   -8.9634 H   0  0  0  0  0  0  0  0  0  0  0  0
  -15.0067   32.4036   -6.5512 H   0  0  0  0  0  0  0  0  0  0  0  0
  -17.0614   32.4777   -5.1412 H   0  0  0  0  0  0  0  0  0  0  0  0
  -23.3054   39.0497   -8.8749 H   0  0  0  0  0  0  0  0  0  0  0  0
  -22.6596   37.4308   -8.2811 H   0  0  0  0  0  0  0  0  0  0  0  0
  -23.7925   36.3111   -6.6932 H   0  0  0  0  0  0  0  0  0  0  0  0
  -25.3934   36.2472   -4.7646 H   0  0  0  0  0  0  0  0  0  0  0  0
  -26.2388   40.3031   -2.6912 H   0  0  0  0  0  0  0  0  0  0  0  0
  -27.6916   40.1907   -3.7890 H   0  0  0  0  0  0  0  0  0  0  0  0
  1  2  2  0
  2  3  1  0
  3  4  1  0
  4  5  1  0
  5  6  1  0
  6  7  2  0
  7  8  1  0
  8  9  2  0
  9 10  1  0
 10 11  2  0
 11 12  1  0
 12 13  2  0
 12 14  1  0
 14 15  1  0
 15 16  1  0
 16 17  2  0
 17 18  1  0
 18 19  2  0
 19 20  1  0
 20 21  2  0
  4 22  1  0
 22 23  1  0
 23 24  2  0
 24 25  1  0
 25 26  2  0
 26 27  1  0
 27 28  2  0
 28 29  1  0
 29 30  2  0
 29 31  1  0
 27 32  1  0
 32 33  1  0
 33 34  1  0
 11  6  1  0
 21 16  1  0
 28 23  1  0
 34 26  1  0
  1 35  1  0
  1 36  1  0
  2 37  1  0
  3 38  1  0
  3 39  1  0
  4 40  1  1
  5 41  1  0
  5 42  1  0
  7 43  1  0
  8 44  1  0
  9 45  1  0
 10 46  1  0
 14 47  1  0
 15 48  1  0
 15 49  1  0
 17 50  1  0
 18 51  1  0
 19 52  1  0
 20 53  1  0
 21 54  1  0
 22 55  1  0
 22 56  1  0
 24 57  1  0
 25 58  1  0
 33 59  1  0
 33 60  1  0
M  CHG  2   4   1  31  -1
M  END
>  <meeko>  (5) 
{"is_sidechain": [false], "free_energy": -7.571, "intermolecular_energy": -11.978, "internal_energy": -2.409}

$$$$
3zsx_ligand
     RDKit          3D

 60 63  0  0  0  0  0  0  0  0999 V2000
  -21.1120   35.3500   -9.3930 C   0  0  0  0  0  0  0  0  0  0  0  0
  -20.4760   36.0890   -8.4740 C   0  0  0  0  0  0  0  0  0  0  0  0
  -21.1410   36.8160   -7.3430 C   0  0  0  0  0  0  0  0  0  0  0  0
  -20.5930   38.1650   -7.0580 N   0  0  2  0  0  0  0  0  0  0  0  0
  -20.9700   38.8440   -5.7760 C   0  0  0  0  0  0  0  0  0  0  0  0
  -22.3430   38.5730   -5.2070 C   0  0  0  0  0  0  0  0  0  0  0  0
  -23.4470   39.2400   -5.7800 C   0  0  0  0  0  0  0  0  0  0  0  0
  -24.7460   39.0250   -5.3140 C   0  0  0  0  0  0  0  0  0  0  0  0
  -24.9730   38.1320   -4.2730 C   0  0  0  0  0  0  0  0  0  0  0  0
  -23.9010   37.4600   -3.6910 C   0  0  0  0  0  0  0  0  0  0  0  0
  -22.5870   37.6850   -4.1410 C   0  0  0  0  0  0  0  0  0  0  0  0
  -21.4820   36.9420   -3.4890 C   0  0  0  0  0  0  0  0  0  0  0  0
  -20.9360   37.4000   -2.4940 O   0  0  0  0  0  0  0  0  0  0  0  0
  -21.1680   35.7250   -4.0480 N   0  0  0  0  0  0  0  0  0  0  0  0
  -19.9830   34.9890   -3.6640 C   0  0  0  0  0  0  0  0  0  0  0  0
  -19.9560   33.6500   -4.3520 C   0  0  0  0  0  0  0  0  0  0  0  0
  -20.4800   32.5180   -3.7120 C   0  0  0  0  0  0  0  0  0  0  0  0
  -20.4340   31.2680   -4.3300 C   0  0  0  0  0  0  0  0  0  0  0  0
  -19.8590   31.1380   -5.5930 C   0  0  0  0  0  0  0  0  0  0  0  0
  -19.3280   32.2530   -6.2360 C   0  0  0  0  0  0  0  0  0  0  0  0
  -19.3710   33.5050   -5.6190 C   0  0  0  0  0  0  0  0  0  0  0  0
  -20.3350   39.0840   -8.2180 C   0  0  0  0  0  0  0  0  0  0  0  0
  -21.5700   39.7300   -8.8250 C   0  0  0  0  0  0  0  0  0  0  0  0
  -22.4790   38.9290   -9.5600 C   0  0  0  0  0  0  0  0  0  0  0  0
  -23.6360   39.4810  -10.1150 C   0  0  0  0  0  0  0  0  0  0  0  0
  -23.8640   40.8260   -9.9200 C   0  0  0  0  0  0  0  0  0  0  0  0
  -22.9980   41.6230   -9.2050 C   0  0  0  0  0  0  0  0  0  0  0  0
  -21.8440   41.1130   -8.6340 C   0  0  0  0  0  0  0  0  0  0  0  0
  -20.9130   41.9850   -7.8550 C   0  0  0  0  0  0  0  0  0  0  0  0
  -19.9970   42.5380   -8.5560 O   0  0  0  0  0  0  0  0  0  0  0  0
  -21.0120   42.0120   -6.6010 O   0  0  0  0  0  0  0  0  0  0  0  0
  -23.4150   42.9190   -9.1830 O   0  0  0  0  0  0  0  0  0  0  0  0
  -24.6710   42.8280   -9.8730 C   0  0  0  0  0  0  0  0  0  0  0  0
  -24.9350   41.5130  -10.4030 O   0  0  0  0  0  0  0  0  0  0  0  0
  -20.5403   34.8511  -10.1894 H   0  0  0  0  0  0  0  0  0  0  0  0
  -22.2059   35.2422   -9.3511 H   0  0  0  0  0  0  0  0  0  0  0  0
  -19.3819   36.1687   -8.5552 H   0  0  0  0  0  0  0  0  0  0  0  0
  -22.2078   36.9255   -7.5878 H   0  0  0  0  0  0  0  0  0  0  0  0
  -20.9603   36.2132   -6.4408 H   0  0  0  0  0  0  0  0  0  0  0  0
  -19.5950   37.9160   -6.8190 H   0  0  0  0  0  0  0  0  0  0  0  0
  -20.2351   38.5396   -5.0162 H   0  0  0  0  0  0  0  0  0  0  0  0
  -20.9827   39.9152   -6.0259 H   0  0  0  0  0  0  0  0  0  0  0  0
  -23.2811   39.9429   -6.6097 H   0  0  0  0  0  0  0  0  0  0  0  0
  -25.5899   39.5626   -5.7710 H   0  0  0  0  0  0  0  0  0  0  0  0
  -25.9965   37.9567   -3.9100 H   0  0  0  0  0  0  0  0  0  0  0  0
  -24.0830   36.7476   -2.8729 H   0  0  0  0  0  0  0  0  0  0  0  0
  -21.6390   35.4230   -4.8900 H   0  0  0  0  0  0  0  0  0  0  0  0
  -19.0898   35.5631   -3.9514 H   0  0  0  0  0  0  0  0  0  0  0  0
  -19.9951   34.8326   -2.5752 H   0  0  0  0  0  0  0  0  0  0  0  0
  -20.9314   32.6162   -2.7137 H   0  0  0  0  0  0  0  0  0  0  0  0
  -20.8509   30.3863   -3.8212 H   0  0  0  0  0  0  0  0  0  0  0  0
  -19.8247   30.1534   -6.0823 H   0  0  0  0  0  0  0  0  0  0  0  0
  -18.8736   32.1474   -7.2322 H   0  0  0  0  0  0  0  0  0  0  0  0
  -18.9443   34.3815   -6.1286 H   0  0  0  0  0  0  0  0  0  0  0  0
  -19.6669   39.8868   -7.8729 H   0  0  0  0  0  0  0  0  0  0  0  0
  -19.9001   38.4572   -9.0105 H   0  0  0  0  0  0  0  0  0  0  0  0
  -22.2706   37.8574   -9.6954 H   0  0  0  0  0  0  0  0  0  0  0  0
  -24.3418   38.8624  -10.6888 H   0  0  0  0  0  0  0  0  0  0  0  0
  -25.4756   43.0894   -9.1700 H   0  0  0  0  0  0  0  0  0  0  0  0
  -24.6258   43.5209  -10.7262 H   0  0  0  0  0  0  0  0  0  0  0  0
  1  2  2  0
  2  3  1  0
  3  4  1  0
  4  5  1  0
  5  6  1  0
  6  7  2  0
  7  8  1  0
  8  9  2  0
  9 10  1  0
 10 11  2  0
 11 12  1  0
 12 13  2  0
 12 14  1  0
 14 15  1  0
 15 16  1  0
 16 17  2  0
 17 18  1  0
 18 19  2  0
 19 20  1  0
 20 21  2  0
  4 22  1  0
 22 23  1  0
 23 24  2  0
 24 25  1  0
 25 26  2  0
 26 27  1  0
 27 28  2  0
 28 29  1  0
 29 30  2  0
 29 31  1  0
 27 32  1  0
 32 33  1  0
 33 34  1  0
 11  6  1  0
 21 16  1  0
 28 23  1  0
 34 26  1  0
  1 35  1  0
  1 36  1  0
  2 37  1  0
  3 38  1  0
  3 39  1  0
  4 40  1  1
  5 41  1  0
  5 42  1  0
  7 43  1  0
  8 44  1  0
  9 45  1  0
 10 46  1  0
 14 47  1  0
 15 48  1  0
 15 49  1  0
 17 50  1  0
 18 51  1  0
 19 52  1  0
 20 53  1  0
 21 54  1  0
 22 55  1  0
 22 56  1  0
 24 57  1  0
 25 58  1  0
 33 59  1  0
 33 60  1  0
M  CHG  2   4   1  31  -1
M  END
>  <meeko>  (6) 
{"is_sidechain": [false], "free_energy": -7.483, "intermolecular_energy": -11.878, "internal_energy": -2.37}

$$$$
3zsx_ligand
     RDKit          3D

 60 63  0  0  0  0  0  0  0  0999 V2000
  -21.6800   38.0000   -1.8040 C   0  0  0  0  0  0  0  0  0  0  0  0
  -21.5050   39.0740   -2.5840 C   0  0  0  0  0  0  0  0  0  0  0  0
  -22.6040   39.8270   -3.2740 C   0  0  0  0  0  0  0  0  0  0  0  0
  -22.7060   39.5880   -4.7340 N   0  0  2  0  0  0  0  0  0  0  0  0
  -22.7460   40.7660   -5.6600 C   0  0  0  0  0  0  0  0  0  0  0  0
  -21.6510   40.8930   -6.6940 C   0  0  0  0  0  0  0  0  0  0  0  0
  -20.4010   40.2970   -6.4210 C   0  0  0  0  0  0  0  0  0  0  0  0
  -19.3500   40.3620   -7.3380 C   0  0  0  0  0  0  0  0  0  0  0  0
  -19.5270   41.0140   -8.5530 C   0  0  0  0  0  0  0  0  0  0  0  0
  -20.7510   41.6100   -8.8480 C   0  0  0  0  0  0  0  0  0  0  0  0
  -21.8090   41.5650   -7.9210 C   0  0  0  0  0  0  0  0  0  0  0  0
  -23.0920   42.2130   -8.2860 C   0  0  0  0  0  0  0  0  0  0  0  0
  -23.3680   43.3200   -7.8470 O   0  0  0  0  0  0  0  0  0  0  0  0
  -23.8890   41.5100   -9.1600 N   0  0  0  0  0  0  0  0  0  0  0  0
  -25.2530   41.9040   -9.4370 C   0  0  0  0  0  0  0  0  0  0  0  0
  -25.5950   41.6210  -10.8760 C   0  0  0  0  0  0  0  0  0  0  0  0
  -24.5780   41.3200  -11.7940 C   0  0  0  0  0  0  0  0  0  0  0  0
  -24.8820   41.0840  -13.1360 C   0  0  0  0  0  0  0  0  0  0  0  0
  -26.2040   41.1510  -13.5720 C   0  0  0  0  0  0  0  0  0  0  0  0
  -27.2220   41.4560  -12.6700 C   0  0  0  0  0  0  0  0  0  0  0  0
  -26.9200   41.6940  -11.3280 C   0  0  0  0  0  0  0  0  0  0  0  0
  -23.4660   38.3800   -5.2020 C   0  0  0  0  0  0  0  0  0  0  0  0
  -22.9400   37.7310   -6.4720 C   0  0  0  0  0  0  0  0  0  0  0  0
  -23.5550   38.0380   -7.7120 C   0  0  0  0  0  0  0  0  0  0  0  0
  -23.0870   37.4780   -8.9030 C   0  0  0  0  0  0  0  0  0  0  0  0
  -22.0080   36.6250   -8.8330 C   0  0  0  0  0  0  0  0  0  0  0  0
  -21.3920   36.3150   -7.6410 C   0  0  0  0  0  0  0  0  0  0  0  0
  -21.8200   36.8530   -6.4390 C   0  0  0  0  0  0  0  0  0  0  0  0
  -21.1400   36.5160   -5.1510 C   0  0  0  0  0  0  0  0  0  0  0  0
  -20.0120   37.0940   -4.9830 O   0  0  0  0  0  0  0  0  0  0  0  0
  -21.6430   35.6290   -4.4140 O   0  0  0  0  0  0  0  0  0  0  0  0
  -20.3780   35.4240   -7.8200 O   0  0  0  0  0  0  0  0  0  0  0  0
  -20.3680   35.2830   -9.2490 C   0  0  0  0  0  0  0  0  0  0  0  0
  -21.4440   35.9930   -9.8980 O   0  0  0  0  0  0  0  0  0  0  0  0
  -20.8116   37.5113   -1.3380 H   0  0  0  0  0  0  0  0  0  0  0  0
  -22.6921   37.6063   -1.6291 H   0  0  0  0  0  0  0  0  0  0  0  0
  -20.4753   39.4322   -2.7303 H   0  0  0  0  0  0  0  0  0  0  0  0
  -23.5592   39.5355   -2.8129 H   0  0  0  0  0  0  0  0  0  0  0  0
  -22.3686   40.8947   -3.1527 H   0  0  0  0  0  0  0  0  0  0  0  0
  -21.7260   39.2570   -4.9400 H   0  0  0  0  0  0  0  0  0  0  0  0
  -23.7032   40.7249   -6.2005 H   0  0  0  0  0  0  0  0  0  0  0  0
  -22.6058   41.6370   -5.0029 H   0  0  0  0  0  0  0  0  0  0  0  0
  -20.2518   39.7707   -5.4667 H   0  0  0  0  0  0  0  0  0  0  0  0
  -18.3820   39.8973   -7.0990 H   0  0  0  0  0  0  0  0  0  0  0  0
  -18.7025   41.0591   -9.2797 H   0  0  0  0  0  0  0  0  0  0  0  0
  -20.8917   42.1196   -9.8126 H   0  0  0  0  0  0  0  0  0  0  0  0
  -23.6120   40.5840   -9.4580 H   0  0  0  0  0  0  0  0  0  0  0  0
  -25.9341   41.3387   -8.7839 H   0  0  0  0  0  0  0  0  0  0  0  0
  -25.3600   42.9824   -9.2484 H   0  0  0  0  0  0  0  0  0  0  0  0
  -23.5331   41.2695  -11.4540 H   0  0  0  0  0  0  0  0  0  0  0  0
  -24.0788   40.8454  -13.8486 H   0  0  0  0  0  0  0  0  0  0  0  0
  -26.4443   40.9630  -14.6288 H   0  0  0  0  0  0  0  0  0  0  0  0
  -28.2648   41.5092  -13.0161 H   0  0  0  0  0  0  0  0  0  0  0  0
  -27.7262   41.9402  -10.6213 H   0  0  0  0  0  0  0  0  0  0  0  0
  -23.4365   37.6284   -4.3994 H   0  0  0  0  0  0  0  0  0  0  0  0
  -24.4804   38.7331   -5.4395 H   0  0  0  0  0  0  0  0  0  0  0  0
  -24.4124   38.7266   -7.7365 H   0  0  0  0  0  0  0  0  0  0  0  0
  -23.5649   37.7108   -9.8660 H   0  0  0  0  0  0  0  0  0  0  0  0
  -19.4124   35.6706   -9.6319 H   0  0  0  0  0  0  0  0  0  0  0  0
  -20.4998   34.2141   -9.4729 H   0  0  0  0  0  0  0  0  0  0  0  0
  1  2  2  0
  2  3  1  0
  3  4  1  0
  4  5  1  0
  5  6  1  0
  6  7  2  0
  7  8  1  0
  8  9  2  0
  9 10  1  0
 10 11  2  0
 11 12  1  0
 12 13  2  0
 12 14  1  0
 14 15  1  0
 15 16  1  0
 16 17  2  0
 17 18  1  0
 18 19  2  0
 19 20  1  0
 20 21  2  0
  4 22  1  0
 22 23  1  0
 23 24  2  0
 24 25  1  0
 25 26  2  0
 26 27  1  0
 27 28  2  0
 28 29  1  0
 29 30  2  0
 29 31  1  0
 27 32  1  0
 32 33  1  0
 33 34  1  0
 11  6  1  0
 21 16  1  0
 28 23  1  0
 34 26  1  0
  1 35  1  0
  1 36  1  0
  2 37  1  0
  3 38  1  0
  3 39  1  0
  4 40  1  6
  5 41  1  0
  5 42  1  0
  7 43  1  0
  8 44  1  0
  9 45  1  0
 10 46  1  0
 14 47  1  0
 15 48  1  0
 15 49  1  0
 17 50  1  0
 18 51  1  0
 19 52  1  0
 20 53  1  0
 21 54  1  0
 22 55  1  0
 22 56  1  0
 24 57  1  0
 25 58  1  0
 33 59  1  0
 33 60  1  0
M  CHG  2   4   1  31  -1
M  END
>  <meeko>  (7) 
{"is_sidechain": [false], "free_energy": -7.442, "intermolecular_energy": -11.572, "internal_energy": -2.611}

$$$$
3zsx_ligand
     RDKit          3D

 60 63  0  0  0  0  0  0  0  0999 V2000
  -21.7620   38.3130   -1.8200 C   0  0  0  0  0  0  0  0  0  0  0  0
  -21.4320   37.4600   -2.7990 C   0  0  0  0  0  0  0  0  0  0  0  0
  -22.3690   36.9580   -3.8570 C   0  0  0  0  0  0  0  0  0  0  0  0
  -22.1340   37.5080   -5.2140 N   0  0  2  0  0  0  0  0  0  0  0  0
  -20.7270   37.7810   -5.6510 C   0  0  0  0  0  0  0  0  0  0  0  0
  -20.5160   38.6940   -6.8360 C   0  0  0  0  0  0  0  0  0  0  0  0
  -20.1820   40.0430   -6.5890 C   0  0  0  0  0  0  0  0  0  0  0  0
  -19.9580   40.9390   -7.6360 C   0  0  0  0  0  0  0  0  0  0  0  0
  -20.0510   40.5060   -8.9540 C   0  0  0  0  0  0  0  0  0  0  0  0
  -20.3790   39.1800   -9.2260 C   0  0  0  0  0  0  0  0  0  0  0  0
  -20.6250   38.2760   -8.1770 C   0  0  0  0  0  0  0  0  0  0  0  0
  -20.9660   36.8740   -8.5210 C   0  0  0  0  0  0  0  0  0  0  0  0
  -22.1280   36.4940   -8.4700 O   0  0  0  0  0  0  0  0  0  0  0  0
  -19.9150   36.0850   -8.9280 N   0  0  0  0  0  0  0  0  0  0  0  0
  -20.0500   34.6530   -9.0860 C   0  0  0  0  0  0  0  0  0  0  0  0
  -18.9330   33.9430   -8.3680 C   0  0  0  0  0  0  0  0  0  0  0  0
  -17.6680   33.8360   -8.9650 C   0  0  0  0  0  0  0  0  0  0  0  0
  -16.6350   33.1560   -8.3200 C   0  0  0  0  0  0  0  0  0  0  0  0
  -16.8580   32.5720   -7.0740 C   0  0  0  0  0  0  0  0  0  0  0  0
  -18.1120   32.6650   -6.4740 C   0  0  0  0  0  0  0  0  0  0  0  0
  -19.1480   33.3450   -7.1190 C   0  0  0  0  0  0  0  0  0  0  0  0
  -23.1740   38.4200   -5.7990 C   0  0  0  0  0  0  0  0  0  0  0  0
  -23.7130   39.4830   -4.8540 C   0  0  0  0  0  0  0  0  0  0  0  0
  -22.8830   40.5710   -4.4900 C   0  0  0  0  0  0  0  0  0  0  0  0
  -23.3490   41.5790   -3.6420 C   0  0  0  0  0  0  0  0  0  0  0  0
  -24.6410   41.4790   -3.1760 C   0  0  0  0  0  0  0  0  0  0  0  0
  -25.4690   40.4330   -3.5190 C   0  0  0  0  0  0  0  0  0  0  0  0
  -25.0480   39.4190   -4.3620 C   0  0  0  0  0  0  0  0  0  0  0  0
  -25.9550   38.2910   -4.7330 C   0  0  0  0  0  0  0  0  0  0  0  0
  -25.8420   37.2560   -3.9900 O   0  0  0  0  0  0  0  0  0  0  0  0
  -26.6440   38.3850   -5.7820 O   0  0  0  0  0  0  0  0  0  0  0  0
  -26.6810   40.5330   -2.9050 O   0  0  0  0  0  0  0  0  0  0  0  0
  -26.5540   41.7910   -2.2240 C   0  0  0  0  0  0  0  0  0  0  0  0
  -25.2380   42.3700   -2.3370 O   0  0  0  0  0  0  0  0  0  0  0  0
  -21.0054   38.6269   -1.0858 H   0  0  0  0  0  0  0  0  0  0  0  0
  -22.7895   38.6995   -1.7504 H   0  0  0  0  0  0  0  0  0  0  0  0
  -20.3931   37.0998   -2.8292 H   0  0  0  0  0  0  0  0  0  0  0  0
  -22.2691   35.8638   -3.9102 H   0  0  0  0  0  0  0  0  0  0  0  0
  -23.3746   37.2906   -3.5602 H   0  0  0  0  0  0  0  0  0  0  0  0
  -22.3190   36.6500   -5.8000 H   0  0  0  0  0  0  0  0  0  0  0  0
  -20.2000   38.2286   -4.7955 H   0  0  0  0  0  0  0  0  0  0  0  0
  -20.3496   36.8039   -5.9869 H   0  0  0  0  0  0  0  0  0  0  0  0
  -20.0965   40.3955   -5.5505 H   0  0  0  0  0  0  0  0  0  0  0  0
  -19.7079   41.9878   -7.4181 H   0  0  0  0  0  0  0  0  0  0  0  0
  -19.8660   41.2088   -9.7797 H   0  0  0  0  0  0  0  0  0  0  0  0
  -20.4462   38.8372  -10.2691 H   0  0  0  0  0  0  0  0  0  0  0  0
  -18.9750   36.4560   -8.9150 H   0  0  0  0  0  0  0  0  0  0  0  0
  -21.0144   34.3305   -8.6666 H   0  0  0  0  0  0  0  0  0  0  0  0
  -20.0039   34.4041  -10.1565 H   0  0  0  0  0  0  0  0  0  0  0  0
  -17.4893   34.2921   -9.9499 H   0  0  0  0  0  0  0  0  0  0  0  0
  -15.6453   33.0806   -8.7941 H   0  0  0  0  0  0  0  0  0  0  0  0
  -16.0432   32.0372   -6.5640 H   0  0  0  0  0  0  0  0  0  0  0  0
  -18.2865   32.2025   -5.4913 H   0  0  0  0  0  0  0  0  0  0  0  0
  -20.1379   33.4114   -6.6439 H   0  0  0  0  0  0  0  0  0  0  0  0
  -22.7293   38.9303   -6.6661 H   0  0  0  0  0  0  0  0  0  0  0  0
  -24.0304   37.7792   -6.0557 H   0  0  0  0  0  0  0  0  0  0  0  0
  -21.8560   40.6234   -4.8807 H   0  0  0  0  0  0  0  0  0  0  0  0
  -22.7054   42.4241   -3.3562 H   0  0  0  0  0  0  0  0  0  0  0  0
  -27.2831   42.4949   -2.6518 H   0  0  0  0  0  0  0  0  0  0  0  0
  -26.7370   41.6033   -1.1557 H   0  0  0  0  0  0  0  0  0  0  0  0
  1  2  2  0
  2  3  1  0
  3  4  1  0
  4  5  1  0
  5  6  1  0
  6  7  2  0
  7  8  1  0
  8  9  2  0
  9 10  1  0
 10 11  2  0
 11 12  1  0
 12 13  2  0
 12 14  1  0
 14 15  1  0
 15 16  1  0
 16 17  2  0
 17 18  1  0
 18 19  2  0
 19 20  1  0
 20 21  2  0
  4 22  1  0
 22 23  1  0
 23 24  2  0
 24 25  1  0
 25 26  2  0
 26 27  1  0
 27 28  2  0
 28 29  1  0
 29 30  2  0
 29 31  1  0
 27 32  1  0
 32 33  1  0
 33 34  1  0
 11  6  1  0
 21 16  1  0
 28 23  1  0
 34 26  1  0
  1 35  1  0
  1 36  1  0
  2 37  1  0
  3 38  1  0
  3 39  1  0
  4 40  1  6
  5 41  1  0
  5 42  1  0
  7 43  1  0
  8 44  1  0
  9 45  1  0
 10 46  1  0
 14 47  1  0
 15 48  1  0
 15 49  1  0
 17 50  1  0
 18 51  1  0
 19 52  1  0
 20 53  1  0
 21 54  1  0
 22 55  1  0
 22 56  1  0
 24 57  1  0
 25 58  1  0
 33 59  1  0
 33 60  1  0
M  CHG  2   4   1  31  -1
M  END
>  <meeko>  (8) 
{"is_sidechain": [false], "free_energy": -7.406, "intermolecular_energy": -11.825, "internal_energy": -2.3}

$$$$
3zsx_ligand
     RDKit          3D

 60 63  0  0  0  0  0  0  0  0999 V2000
  -19.9970   34.3350   -4.3100 C   0  0  0  0  0  0  0  0  0  0  0  0
  -20.5120   35.5360   -4.6100 C   0  0  0  0  0  0  0  0  0  0  0  0
  -20.1890   36.8140   -3.8950 C   0  0  0  0  0  0  0  0  0  0  0  0
  -20.8320   38.0260   -4.4590 N   0  0  2  0  0  0  0  0  0  0  0  0
  -21.6610   38.8910   -3.5590 C   0  0  0  0  0  0  0  0  0  0  0  0
  -23.1620   38.8520   -3.7210 C   0  0  0  0  0  0  0  0  0  0  0  0
  -23.7950   37.5920   -3.7840 C   0  0  0  0  0  0  0  0  0  0  0  0
  -25.1800   37.4810   -3.9170 C   0  0  0  0  0  0  0  0  0  0  0  0
  -25.9670   38.6260   -3.9810 C   0  0  0  0  0  0  0  0  0  0  0  0
  -25.3680   39.8820   -3.9210 C   0  0  0  0  0  0  0  0  0  0  0  0
  -23.9710   40.0020   -3.8050 C   0  0  0  0  0  0  0  0  0  0  0  0
  -23.3840   41.3630   -3.7420 C   0  0  0  0  0  0  0  0  0  0  0  0
  -22.6900   41.7760   -4.6610 O   0  0  0  0  0  0  0  0  0  0  0  0
  -23.7110   42.1040   -2.6300 N   0  0  0  0  0  0  0  0  0  0  0  0
  -23.0490   43.3530   -2.3220 C   0  0  0  0  0  0  0  0  0  0  0  0
  -22.6800   43.3990   -0.8630 C   0  0  0  0  0  0  0  0  0  0  0  0
  -23.0750   42.3640   -0.0030 C   0  0  0  0  0  0  0  0  0  0  0  0
  -22.7620   42.4120    1.3560 C   0  0  0  0  0  0  0  0  0  0  0  0
  -22.0550   43.4990    1.8690 C   0  0  0  0  0  0  0  0  0  0  0  0
  -21.6640   44.5370    1.0260 C   0  0  0  0  0  0  0  0  0  0  0  0
  -21.9770   44.4920   -0.3340 C   0  0  0  0  0  0  0  0  0  0  0  0
  -21.2700   37.9920   -5.8950 C   0  0  0  0  0  0  0  0  0  0  0  0
  -21.0140   39.2660   -6.6850 C   0  0  0  0  0  0  0  0  0  0  0  0
  -19.8000   39.9700   -6.4880 C   0  0  0  0  0  0  0  0  0  0  0  0
  -19.5190   41.1330   -7.2100 C   0  0  0  0  0  0  0  0  0  0  0  0
  -20.4590   41.5680   -8.1190 C   0  0  0  0  0  0  0  0  0  0  0  0
  -21.6430   40.8980   -8.3300 C   0  0  0  0  0  0  0  0  0  0  0  0
  -21.9570   39.7390   -7.6410 C   0  0  0  0  0  0  0  0  0  0  0  0
  -23.2430   39.0160   -7.8810 C   0  0  0  0  0  0  0  0  0  0  0  0
  -23.2160   38.2060   -8.8700 O   0  0  0  0  0  0  0  0  0  0  0  0
  -24.2540   39.3350   -7.2050 O   0  0  0  0  0  0  0  0  0  0  0  0
  -22.4230   41.5400   -9.2450 O   0  0  0  0  0  0  0  0  0  0  0  0
  -21.5660   42.6190   -9.6460 C   0  0  0  0  0  0  0  0  0  0  0  0
  -20.3400   42.6840   -8.8890 O   0  0  0  0  0  0  0  0  0  0  0  0
  -20.2928   33.4490   -4.8910 H   0  0  0  0  0  0  0  0  0  0  0  0
  -19.2787   34.2356   -3.4829 H   0  0  0  0  0  0  0  0  0  0  0  0
  -21.2264   35.5879   -5.4448 H   0  0  0  0  0  0  0  0  0  0  0  0
  -20.5126   36.7112   -2.8487 H   0  0  0  0  0  0  0  0  0  0  0  0
  -19.1044   36.9620   -4.0033 H   0  0  0  0  0  0  0  0  0  0  0  0
  -19.9920   38.6570   -4.5570 H   0  0  0  0  0  0  0  0  0  0  0  0
  -21.4363   38.5952   -2.5236 H   0  0  0  0  0  0  0  0  0  0  0  0
  -21.3823   39.9189   -3.8341 H   0  0  0  0  0  0  0  0  0  0  0  0
  -23.1843   36.6788   -3.7271 H   0  0  0  0  0  0  0  0  0  0  0  0
  -25.6493   36.4876   -3.9712 H   0  0  0  0  0  0  0  0  0  0  0  0
  -27.0593   38.5399   -4.0787 H   0  0  0  0  0  0  0  0  0  0  0  0
  -25.9919   40.7869   -3.9646 H   0  0  0  0  0  0  0  0  0  0  0  0
  -24.2640   41.6860   -1.8940 H   0  0  0  0  0  0  0  0  0  0  0  0
  -22.1369   43.4407   -2.9306 H   0  0  0  0  0  0  0  0  0  0  0  0
  -23.7313   44.1861   -2.5465 H   0  0  0  0  0  0  0  0  0  0  0  0
  -23.6364   41.5069   -0.4032 H   0  0  0  0  0  0  0  0  0  0  0  0
  -23.0726   41.5934    2.0218 H   0  0  0  0  0  0  0  0  0  0  0  0
  -21.8059   43.5369    2.9398 H   0  0  0  0  0  0  0  0  0  0  0  0
  -21.1073   45.3941    1.4328 H   0  0  0  0  0  0  0  0  0  0  0  0
  -21.6710   45.3173   -0.9938 H   0  0  0  0  0  0  0  0  0  0  0  0
  -20.7352   37.1702   -6.3936 H   0  0  0  0  0  0  0  0  0  0  0  0
  -22.3620   37.8613   -5.8759 H   0  0  0  0  0  0  0  0  0  0  0  0
  -19.0686   39.5958   -5.7565 H   0  0  0  0  0  0  0  0  0  0  0  0
  -18.5786   41.6830   -7.0578 H   0  0  0  0  0  0  0  0  0  0  0  0
  -21.3139   42.4884  -10.7087 H   0  0  0  0  0  0  0  0  0  0  0  0
  -22.1129   43.5556   -9.4624 H   0  0  0  0  0  0  0  0  0  0  0  0
  1  2  2  0
  2  3  1  0
  3  4  1  0
  4  5  1  0
  5  6  1  0
  6  7  2  0
  7  8  1  0
  8  9  2  0
  9 10  1  0
 10 11  2  0
 11 12  1  0
 12 13  2  0
 12 14  1  0
 14 15  1  0
 15 16  1  0
 16 17  2  0
 17 18  1  0
 18 19  2  0
 19 20  1  0
 20 21  2  0
  4 22  1  0
 22 23  1  0
 23 24  2  0
 24 25  1  0
 25 26  2  0
 26 27  1  0
 27 28  2  0
 28 29  1  0
 29 30  2  0
 29 31  1  0
 27 32  1  0
 32 33  1  0
 33 34  1  0
 11  6  1  0
 21 16  1  0
 28 23  1  0
 34 26  1  0
  1 35  1  0
  1 36  1  0
  2 37  1  0
  3 38  1  0
  3 39  1  0
  4 40  1  6
  5 41  1  0
  5 42  1  0
  7 43  1  0
  8 44  1  0
  9 45  1  0
 10 46  1  0
 14 47  1  0
 15 48  1  0
 15 49  1  0
 17 50  1  0
 18 51  1  0
 19 52  1  0
 20 53  1  0
 21 54  1  0
 22 55  1  0
 22 56  1  0
 24 57  1  0
 25 58  1  0
 33 59  1  0
 33 60  1  0
M  CHG  2   4   1  31  -1
M  END
>  <meeko>  (9) 
{"is_sidechain": [false], "free_energy": -7.193, "intermolecular_energy": -11.585, "internal_energy": -2.204}

$$$$
