4abg_ligand
     RDKit          3D

 36 37  0  0  0  0  0  0  0  0999 V2000
  -26.2960    6.4450   17.1310 C   0  0  0  0  0  0  0  0  0  0  0  0
  -25.0340    6.8160   16.4120 N   0  0  0  0  0  0  0  0  0  0  0  0
  -24.8950    6.1670   15.0390 C   0  0  0  0  0  0  0  0  0  0  0  0
  -24.4780    4.6830   15.1390 C   0  0  0  0  0  0  0  0  0  0  0  0
  -23.2590    4.5340   15.9730 N   0  0  0  0  0  0  0  0  0  0  0  0
  -22.4990    3.3810   15.7620 C   0  0  0  0  0  0  0  0  0  0  0  0
  -22.5490    2.7350   14.5170 C   0  0  0  0  0  0  0  0  0  0  0  0
  -21.7690    1.6130   14.2310 C   0  0  0  0  0  0  0  0  0  0  0  0
  -20.9010    1.1030   15.1900 C   0  0  0  0  0  0  0  0  0  0  0  0
  -20.8170    1.7100   16.4490 C   0  0  0  0  0  0  0  0  0  0  0  0
  -19.8720    1.1640   17.4820 C   0  0  0  0  0  0  0  0  0  0  0  0
  -19.4000    2.2110   18.4140 N   0  0  0  0  0  0  0  0  0  0  0  0
  -21.6170    2.8440   16.7180 C   0  0  0  0  0  0  0  0  0  0  0  0
  -23.3590    5.1240   17.3220 C   0  0  0  0  0  0  0  0  0  0  0  0
  -23.7690    6.6130   17.2380 C   0  0  0  0  0  0  0  0  0  0  0  0
  -26.1275    6.4945   18.2169 H   0  0  0  0  0  0  0  0  0  0  0  0
  -27.0966    7.1458   16.8519 H   0  0  0  0  0  0  0  0  0  0  0  0
  -26.5900    5.4224   16.8519 H   0  0  0  0  0  0  0  0  0  0  0  0
  -25.0970    7.8290   16.2370 H   0  0  0  0  0  0  0  0  0  0  0  0
  -25.8613    6.2298   14.5172 H   0  0  0  0  0  0  0  0  0  0  0  0
  -24.1090    6.7040   14.4878 H   0  0  0  0  0  0  0  0  0  0  0  0
  -25.2983    4.1075   15.5929 H   0  0  0  0  0  0  0  0  0  0  0  0
  -24.2618    4.3082   14.1277 H   0  0  0  0  0  0  0  0  0  0  0  0
  -23.2245    3.1253   13.7416 H   0  0  0  0  0  0  0  0  0  0  0  0
  -21.8413    1.1313   13.2447 H   0  0  0  0  0  0  0  0  0  0  0  0
  -20.2811    0.2239   14.9600 H   0  0  0  0  0  0  0  0  0  0  0  0
  -20.3896    0.3832   18.0586 H   0  0  0  0  0  0  0  0  0  0  0  0
  -18.9948    0.7577   16.9571 H   0  0  0  0  0  0  0  0  0  0  0  0
  -19.4740    3.1480   17.9980 H   0  0  0  0  0  0  0  0  0  0  0  0
  -19.9450    2.2050   19.2850 H   0  0  0  0  0  0  0  0  0  0  0  0
  -18.4160    2.0650   18.6710 H   0  0  0  0  0  0  0  0  0  0  0  0
  -21.5478    3.3220   17.7063 H   0  0  0  0  0  0  0  0  0  0  0  0
  -24.1145    4.5735   17.9019 H   0  0  0  0  0  0  0  0  0  0  0  0
  -22.3767    5.0546   17.8122 H   0  0  0  0  0  0  0  0  0  0  0  0
  -23.9465    6.9896   18.2562 H   0  0  0  0  0  0  0  0  0  0  0  0
  -22.9523    7.1610   16.7453 H   0  0  0  0  0  0  0  0  0  0  0  0
  1  2  1  0
  2  3  1  0
  3  4  1  0
  4  5  1  0
  5  6  1  0
  6  7  2  0
  7  8  1  0
  8  9  2  0
  9 10  1  0
 10 11  1  0
 11 12  1  0
 10 13  2  0
  5 14  1  0
 14 15  1  0
 15  2  1  0
 13  6  1  0
  1 16  1  0
  1 17  1  0
  1 18  1  0
  2 19  1  0
  3 20  1  0
  3 21  1  0
  4 22  1  0
  4 23  1  0
  7 24  1  0
  8 25  1  0
  9 26  1  0
 11 27  1  0
 11 28  1  0
 12 29  1  0
 12 30  1  0
 12 31  1  0
 13 32  1  0
 14 33  1  0
 14 34  1  0
 15 35  1  0
 15 36  1  0
M  CHG  2   2   1  12   1
M  END
>  <meeko>  (1) 
{"is_sidechain": [false], "free_energy": -5.793, "intermolecular_energy": -6.639, "internal_energy": -0.211}

$$$$
4abg_ligand
     RDKit          3D

 36 37  0  0  0  0  0  0  0  0999 V2000
  -24.3400    7.9530   15.7380 C   0  0  0  0  0  0  0  0  0  0  0  0
  -25.0780    6.7430   16.2270 N   0  0  0  0  0  0  0  0  0  0  0  0
  -24.4070    6.0490   17.4080 C   0  0  0  0  0  0  0  0  0  0  0  0
  -23.1880    5.2070   16.9690 C   0  0  0  0  0  0  0  0  0  0  0  0
  -23.5620    4.2660   15.8840 N   0  0  0  0  0  0  0  0  0  0  0  0
  -22.7470    3.1420   15.7290 C   0  0  0  0  0  0  0  0  0  0  0  0
  -22.8350    2.3790   14.5530 C   0  0  0  0  0  0  0  0  0  0  0  0
  -22.0070    1.2800   14.3180 C   0  0  0  0  0  0  0  0  0  0  0  0
  -21.0520    0.9120   15.2580 C   0  0  0  0  0  0  0  0  0  0  0  0
  -20.9270    1.6390   16.4480 C   0  0  0  0  0  0  0  0  0  0  0  0
  -19.8870    1.2450   17.4600 C   0  0  0  0  0  0  0  0  0  0  0  0
  -19.4600    2.3900   18.2930 N   0  0  0  0  0  0  0  0  0  0  0  0
  -21.7760    2.7470   16.6680 C   0  0  0  0  0  0  0  0  0  0  0  0
  -24.1900    4.8990   14.7080 C   0  0  0  0  0  0  0  0  0  0  0  0
  -25.4170    5.7400   15.1300 C   0  0  0  0  0  0  0  0  0  0  0  0
  -23.9834    8.5377   16.5988 H   0  0  0  0  0  0  0  0  0  0  0  0
  -23.4808    7.6369   15.1282 H   0  0  0  0  0  0  0  0  0  0  0  0
  -25.0144    8.5722   15.1282 H   0  0  0  0  0  0  0  0  0  0  0  0
  -25.9810    7.0880   16.5820 H   0  0  0  0  0  0  0  0  0  0  0  0
  -24.0712    6.8129   18.1247 H   0  0  0  0  0  0  0  0  0  0  0  0
  -25.1419    5.3699   17.8650 H   0  0  0  0  0  0  0  0  0  0  0  0
  -22.3966    5.8795   16.6065 H   0  0  0  0  0  0  0  0  0  0  0  0
  -22.8306    4.6264   17.8323 H   0  0  0  0  0  0  0  0  0  0  0  0
  -23.5802    2.6563   13.7929 H   0  0  0  0  0  0  0  0  0  0  0  0
  -22.1107    0.7040   13.3866 H   0  0  0  0  0  0  0  0  0  0  0  0
  -20.3950    0.0506   15.0674 H   0  0  0  0  0  0  0  0  0  0  0  0
  -20.3060    0.4667   18.1147 H   0  0  0  0  0  0  0  0  0  0  0  0
  -19.0061    0.8756   16.9145 H   0  0  0  0  0  0  0  0  0  0  0  0
  -18.6290    2.1610   18.8540 H   0  0  0  0  0  0  0  0  0  0  0  0
  -19.2380    3.2080   17.7140 H   0  0  0  0  0  0  0  0  0  0  0  0
  -20.2020    2.6730   18.9450 H   0  0  0  0  0  0  0  0  0  0  0  0
  -21.6748    3.3186   17.6024 H   0  0  0  0  0  0  0  0  0  0  0  0
  -23.4560    5.5534   14.2151 H   0  0  0  0  0  0  0  0  0  0  0  0
  -24.5226    4.1102   14.0172 H   0  0  0  0  0  0  0  0  0  0  0  0
  -25.7899    6.2878   14.2520 H   0  0  0  0  0  0  0  0  0  0  0  0
  -26.1784    5.0516   15.5254 H   0  0  0  0  0  0  0  0  0  0  0  0
  1  2  1  0
  2  3  1  0
  3  4  1  0
  4  5  1  0
  5  6  1  0
  6  7  2  0
  7  8  1  0
  8  9  2  0
  9 10  1  0
 10 11  1  0
 11 12  1  0
 10 13  2  0
  5 14  1  0
 14 15  1  0
 15  2  1  0
 13  6  1  0
  1 16  1  0
  1 17  1  0
  1 18  1  0
  2 19  1  0
  3 20  1  0
  3 21  1  0
  4 22  1  0
  4 23  1  0
  7 24  1  0
  8 25  1  0
  9 26  1  0
 11 27  1  0
 11 28  1  0
 12 29  1  0
 12 30  1  0
 12 31  1  0
 13 32  1  0
 14 33  1  0
 14 34  1  0
 15 35  1  0
 15 36  1  0
M  CHG  2   2   1  12   1
M  END
>  <meeko>  (2) 
{"is_sidechain": [false], "free_energy": -5.764, "intermolecular_energy": -6.602, "internal_energy": -0.215}

$$$$
4abg_ligand
     RDKit          3D

 36 37  0  0  0  0  0  0  0  0999 V2000
  -16.4780   13.3560    3.3590 C   0  0  0  0  0  0  0  0  0  0  0  0
  -17.6450   12.9610    2.5050 N   0  0  0  0  0  0  0  0  0  0  0  0
  -18.9520   13.6410    2.8980 C   0  0  0  0  0  0  0  0  0  0  0  0
  -19.5780   13.0060    4.1600 C   0  0  0  0  0  0  0  0  0  0  0  0
  -19.7200   11.5390    3.9960 N   0  0  0  0  0  0  0  0  0  0  0  0
  -20.6790   10.9130    4.7960 C   0  0  0  0  0  0  0  0  0  0  0  0
  -20.7020    9.5120    4.8830 C   0  0  0  0  0  0  0  0  0  0  0  0
  -21.6000    8.8350    5.7110 C   0  0  0  0  0  0  0  0  0  0  0  0
  -22.5060    9.5460    6.4880 C   0  0  0  0  0  0  0  0  0  0  0  0
  -22.5250   10.9450    6.4340 C   0  0  0  0  0  0  0  0  0  0  0  0
  -23.4990   11.7140    7.2820 C   0  0  0  0  0  0  0  0  0  0  0  0
  -24.0590   10.8880    8.3740 N   0  0  0  0  0  0  0  0  0  0  0  0
  -21.6090   11.6120    5.5880 C   0  0  0  0  0  0  0  0  0  0  0  0
  -18.4720   10.8350    3.6420 C   0  0  0  0  0  0  0  0  0  0  0  0
  -17.8350   11.4540    2.3750 C   0  0  0  0  0  0  0  0  0  0  0  0
  -16.7522   13.2632    4.4202 H   0  0  0  0  0  0  0  0  0  0  0  0
  -15.6248   12.6966    3.1417 H   0  0  0  0  0  0  0  0  0  0  0  0
  -16.2007   14.3981    3.1417 H   0  0  0  0  0  0  0  0  0  0  0  0
  -17.4280   13.3000    1.5570 H   0  0  0  0  0  0  0  0  0  0  0  0
  -18.7533   14.7045    3.0968 H   0  0  0  0  0  0  0  0  0  0  0  0
  -19.6625   13.5176    2.0673 H   0  0  0  0  0  0  0  0  0  0  0  0
  -18.9311   13.2112    5.0257 H   0  0  0  0  0  0  0  0  0  0  0  0
  -20.5759   13.4416    4.3160 H   0  0  0  0  0  0  0  0  0  0  0  0
  -19.9902    8.9291    4.2800 H   0  0  0  0  0  0  0  0  0  0  0  0
  -21.5899    7.7357    5.7481 H   0  0  0  0  0  0  0  0  0  0  0  0
  -23.2075    9.0106    7.1447 H   0  0  0  0  0  0  0  0  0  0  0  0
  -22.9808   12.5790    7.7215 H   0  0  0  0  0  0  0  0  0  0  0  0
  -24.3314   12.0328    6.6374 H   0  0  0  0  0  0  0  0  0  0  0  0
  -23.3180   10.5070    8.9770 H   0  0  0  0  0  0  0  0  0  0  0  0
  -24.6990   11.4340    8.9620 H   0  0  0  0  0  0  0  0  0  0  0  0
  -24.5920   10.0920    8.0020 H   0  0  0  0  0  0  0  0  0  0  0  0
  -21.6238   12.7112    5.5477 H   0  0  0  0  0  0  0  0  0  0  0  0
  -17.7625   10.9151    4.4788 H   0  0  0  0  0  0  0  0  0  0  0  0
  -18.7066    9.7795    3.4401 H   0  0  0  0  0  0  0  0  0  0  0  0
  -16.8537   10.9862    2.2069 H   0  0  0  0  0  0  0  0  0  0  0  0
  -18.5153   11.2705    1.5303 H   0  0  0  0  0  0  0  0  0  0  0  0
  1  2  1  0
  2  3  1  0
  3  4  1  0
  4  5  1  0
  5  6  1  0
  6  7  2  0
  7  8  1  0
  8  9  2  0
  9 10  1  0
 10 11  1  0
 11 12  1  0
 10 13  2  0
  5 14  1  0
 14 15  1  0
 15  2  1  0
 13  6  1  0
  1 16  1  0
  1 17  1  0
  1 18  1  0
  2 19  1  0
  3 20  1  0
  3 21  1  0
  4 22  1  0
  4 23  1  0
  7 24  1  0
  8 25  1  0
  9 26  1  0
 11 27  1  0
 11 28  1  0
 12 29  1  0
 12 30  1  0
 12 31  1  0
 13 32  1  0
 14 33  1  0
 14 34  1  0
 15 35  1  0
 15 36  1  0
M  CHG  2   2   1  12   1
M  END
>  <meeko>  (3) 
{"is_sidechain": [false], "free_energy": -5.464, "intermolecular_energy": -6.265, "internal_energy": -0.209}

$$$$
4abg_ligand
     RDKit          3D

 36 37  0  0  0  0  0  0  0  0999 V2000
  -27.8410    4.2980   13.9380 C   0  0  0  0  0  0  0  0  0  0  0  0
  -26.9940    4.8730   15.0340 N   0  0  0  0  0  0  0  0  0  0  0  0
  -25.6970    5.5040   14.5410 C   0  0  0  0  0  0  0  0  0  0  0  0
  -24.6320    4.4410   14.1900 C   0  0  0  0  0  0  0  0  0  0  0  0
  -24.4240    3.5100   15.3260 N   0  0  0  0  0  0  0  0  0  0  0  0
  -23.2020    2.8340   15.3610 C   0  0  0  0  0  0  0  0  0  0  0  0
  -22.6960    2.2550   14.1860 C   0  0  0  0  0  0  0  0  0  0  0  0
  -21.4550    1.6180   14.1480 C   0  0  0  0  0  0  0  0  0  0  0  0
  -20.6710    1.5460   15.2930 C   0  0  0  0  0  0  0  0  0  0  0  0
  -21.1330    2.1050   16.4910 C   0  0  0  0  0  0  0  0  0  0  0  0
  -20.2810    2.0350   17.7280 C   0  0  0  0  0  0  0  0  0  0  0  0
  -19.0520    1.2410   17.5110 N   0  0  0  0  0  0  0  0  0  0  0  0
  -22.3930    2.7450   16.5090 C   0  0  0  0  0  0  0  0  0  0  0  0
  -25.6510    2.8540   15.8190 C   0  0  0  0  0  0  0  0  0  0  0  0
  -26.7250    3.9060   16.1820 C   0  0  0  0  0  0  0  0  0  0  0  0
  -28.6751    3.7317   14.3780 H   0  0  0  0  0  0  0  0  0  0  0  0
  -28.2390    5.1134   13.3161 H   0  0  0  0  0  0  0  0  0  0  0  0
  -27.2301    3.6272   13.3161 H   0  0  0  0  0  0  0  0  0  0  0  0
  -27.5440    5.6450   15.4380 H   0  0  0  0  0  0  0  0  0  0  0  0
  -25.9119    6.1013   13.6426 H   0  0  0  0  0  0  0  0  0  0  0  0
  -25.2960    6.1319   15.3503 H   0  0  0  0  0  0  0  0  0  0  0  0
  -24.9681    3.8697   13.3122 H   0  0  0  0  0  0  0  0  0  0  0  0
  -23.6819    4.9513   13.9733 H   0  0  0  0  0  0  0  0  0  0  0  0
  -23.2971    2.3052   13.2661 H   0  0  0  0  0  0  0  0  0  0  0  0
  -21.0963    1.1715   13.2088 H   0  0  0  0  0  0  0  0  0  0  0  0
  -19.6893    1.0509   15.2585 H   0  0  0  0  0  0  0  0  0  0  0  0
  -19.9966    3.0563   18.0215 H   0  0  0  0  0  0  0  0  0  0  0  0
  -20.8682    1.5428   18.5172 H   0  0  0  0  0  0  0  0  0  0  0  0
  -18.5870    1.0140   18.4000 H   0  0  0  0  0  0  0  0  0  0  0  0
  -19.2590    0.3600   17.0260 H   0  0  0  0  0  0  0  0  0  0  0  0
  -18.3750    1.7530   16.9320 H   0  0  0  0  0  0  0  0  0  0  0  0
  -22.7525    3.1874   17.4498 H   0  0  0  0  0  0  0  0  0  0  0  0
  -26.0456    2.1906   15.0353 H   0  0  0  0  0  0  0  0  0  0  0  0
  -25.4044    2.2745   16.7209 H   0  0  0  0  0  0  0  0  0  0  0  0
  -27.6607    3.3851   16.4332 H   0  0  0  0  0  0  0  0  0  0  0  0
  -26.3510    4.4903   17.0356 H   0  0  0  0  0  0  0  0  0  0  0  0
  1  2  1  0
  2  3  1  0
  3  4  1  0
  4  5  1  0
  5  6  1  0
  6  7  2  0
  7  8  1  0
  8  9  2  0
  9 10  1  0
 10 11  1  0
 11 12  1  0
 10 13  2  0
  5 14  1  0
 14 15  1  0
 15  2  1  0
 13  6  1  0
  1 16  1  0
  1 17  1  0
  1 18  1  0
  2 19  1  0
  3 20  1  0
  3 21  1  0
  4 22  1  0
  4 23  1  0
  7 24  1  0
  8 25  1  0
  9 26  1  0
 11 27  1  0
 11 28  1  0
 12 29  1  0
 12 30  1  0
 12 31  1  0
 13 32  1  0
 14 33  1  0
 14 34  1  0
 15 35  1  0
 15 36  1  0
M  CHG  2   2   1  12   1
M  END
>  <meeko>  (4) 
{"is_sidechain": [false], "free_energy": -5.35, "intermolecular_energy": -6.162, "internal_energy": -0.181}

$$$$
4abg_ligand
     RDKit          3D

 36 37  0  0  0  0  0  0  0  0999 V2000
  -28.2500    4.5780   12.8110 C   0  0  0  0  0  0  0  0  0  0  0  0
  -27.5100    3.3400   12.4010 N   0  0  0  0  0  0  0  0  0  0  0  0
  -27.2990    2.3460   13.5380 C   0  0  0  0  0  0  0  0  0  0  0  0
  -26.1640    2.7860   14.4890 C   0  0  0  0  0  0  0  0  0  0  0  0
  -24.9210    3.0660   13.7300 N   0  0  0  0  0  0  0  0  0  0  0  0
  -23.7240    2.9920   14.4480 C   0  0  0  0  0  0  0  0  0  0  0  0
  -23.3010    4.0950   15.2070 C   0  0  0  0  0  0  0  0  0  0  0  0
  -22.1450    4.0580   15.9880 C   0  0  0  0  0  0  0  0  0  0  0  0
  -21.3740    2.9030   16.0400 C   0  0  0  0  0  0  0  0  0  0  0  0
  -21.7520    1.7770   15.2990 C   0  0  0  0  0  0  0  0  0  0  0  0
  -20.9220    0.5250   15.3620 C   0  0  0  0  0  0  0  0  0  0  0  0
  -20.1870    0.4100   16.6410 N   0  0  0  0  0  0  0  0  0  0  0  0
  -22.9250    1.8360   14.5120 C   0  0  0  0  0  0  0  0  0  0  0  0
  -25.0720    4.0460   12.6370 C   0  0  0  0  0  0  0  0  0  0  0  0
  -26.2010    3.6150   11.6700 C   0  0  0  0  0  0  0  0  0  0  0  0
  -28.2855    4.6373   13.9088 H   0  0  0  0  0  0  0  0  0  0  0  0
  -27.7328    5.4632   12.4125 H   0  0  0  0  0  0  0  0  0  0  0  0
  -29.2746    4.5416   12.4125 H   0  0  0  0  0  0  0  0  0  0  0  0
  -28.1180    2.8610   11.7210 H   0  0  0  0  0  0  0  0  0  0  0  0
  -28.2323    2.2622   14.1141 H   0  0  0  0  0  0  0  0  0  0  0  0
  -27.0158    1.3794   13.0958 H   0  0  0  0  0  0  0  0  0  0  0  0
  -26.4734    3.6965   15.0231 H   0  0  0  0  0  0  0  0  0  0  0  0
  -25.9662    1.9726   15.2026 H   0  0  0  0  0  0  0  0  0  0  0  0
  -23.8998    5.0175   15.1853 H   0  0  0  0  0  0  0  0  0  0  0  0
  -21.8434    4.9453   16.5639 H   0  0  0  0  0  0  0  0  0  0  0  0
  -20.4677    2.8735   16.6627 H   0  0  0  0  0  0  0  0  0  0  0  0
  -21.5849   -0.3462   15.2540 H   0  0  0  0  0  0  0  0  0  0  0  0
  -20.1829    0.5665   14.5484 H   0  0  0  0  0  0  0  0  0  0  0  0
  -19.2650    0.8600   16.5890 H   0  0  0  0  0  0  0  0  0  0  0  0
  -20.7110    0.8430   17.4100 H   0  0  0  0  0  0  0  0  0  0  0  0
  -20.0340   -0.5740   16.8940 H   0  0  0  0  0  0  0  0  0  0  0  0
  -23.2222    0.9502   13.9315 H   0  0  0  0  0  0  0  0  0  0  0  0
  -25.3182    5.0291   13.0646 H   0  0  0  0  0  0  0  0  0  0  0  0
  -24.1270    4.1002   12.0766 H   0  0  0  0  0  0  0  0  0  0  0  0
  -26.3662    4.4187   10.9374 H   0  0  0  0  0  0  0  0  0  0  0  0
  -25.8867    2.6832   11.1771 H   0  0  0  0  0  0  0  0  0  0  0  0
  1  2  1  0
  2  3  1  0
  3  4  1  0
  4  5  1  0
  5  6  1  0
  6  7  2  0
  7  8  1  0
  8  9  2  0
  9 10  1  0
 10 11  1  0
 11 12  1  0
 10 13  2  0
  5 14  1  0
 14 15  1  0
 15  2  1  0
 13  6  1  0
  1 16  1  0
  1 17  1  0
  1 18  1  0
  2 19  1  0
  3 20  1  0
  3 21  1  0
  4 22  1  0
  4 23  1  0
  7 24  1  0
  8 25  1  0
  9 26  1  0
 11 27  1  0
 11 28  1  0
 12 29  1  0
 12 30  1  0
 12 31  1  0
 13 32  1  0
 14 33  1  0
 14 34  1  0
 15 35  1  0
 15 36  1  0
M  CHG  2   2   1  12   1
M  END
>  <meeko>  (5) 
{"is_sidechain": [false], "free_energy": -5.115, "intermolecular_energy": -5.899, "internal_energy": -0.174}

$$$$
4abg_ligand
     RDKit          3D

 36 37  0  0  0  0  0  0  0  0999 V2000
  -25.0220    9.6400    7.3730 C   0  0  0  0  0  0  0  0  0  0  0  0
  -24.6440    8.9370    6.1040 N   0  0  0  0  0  0  0  0  0  0  0  0
  -23.4400    8.0120    6.2490 C   0  0  0  0  0  0  0  0  0  0  0  0
  -22.1090    8.7960    6.2860 C   0  0  0  0  0  0  0  0  0  0  0  0
  -22.0010    9.7040    5.1180 N   0  0  0  0  0  0  0  0  0  0  0  0
  -20.7100   10.0910    4.7500 C   0  0  0  0  0  0  0  0  0  0  0  0
  -19.6730    9.1450    4.7560 C   0  0  0  0  0  0  0  0  0  0  0  0
  -18.3770    9.4600    4.3430 C   0  0  0  0  0  0  0  0  0  0  0  0
  -18.0790   10.7430    3.9010 C   0  0  0  0  0  0  0  0  0  0  0  0
  -19.0770   11.7250    3.8780 C   0  0  0  0  0  0  0  0  0  0  0  0
  -18.7550   13.1090    3.3910 C   0  0  0  0  0  0  0  0  0  0  0  0
  -18.0560   13.0920    2.0870 N   0  0  0  0  0  0  0  0  0  0  0  0
  -20.3820   11.3850    4.3020 C   0  0  0  0  0  0  0  0  0  0  0  0
  -23.1320   10.6370    4.9550 C   0  0  0  0  0  0  0  0  0  0  0  0
  -24.4730    9.8670    4.9080 C   0  0  0  0  0  0  0  0  0  0  0  0
  -24.6987    9.0387    8.2355 H   0  0  0  0  0  0  0  0  0  0  0  0
  -24.5313   10.6239    7.4073 H   0  0  0  0  0  0  0  0  0  0  0  0
  -26.1134    9.7732    7.4073 H   0  0  0  0  0  0  0  0  0  0  0  0
  -25.4400    8.3250    5.8730 H   0  0  0  0  0  0  0  0  0  0  0  0
  -23.5417    7.4405    7.1834 H   0  0  0  0  0  0  0  0  0  0  0  0
  -23.4170    7.3446    5.3749 H   0  0  0  0  0  0  0  0  0  0  0  0
  -22.0661    9.3906    7.2104 H   0  0  0  0  0  0  0  0  0  0  0  0
  -21.2757    8.0786    6.2537 H   0  0  0  0  0  0  0  0  0  0  0  0
  -19.8885    8.1217    5.0973 H   0  0  0  0  0  0  0  0  0  0  0  0
  -17.5907    8.6912    4.3676 H   0  0  0  0  0  0  0  0  0  0  0  0
  -17.0591   10.9874    3.5691 H   0  0  0  0  0  0  0  0  0  0  0  0
  -19.6926   13.6742    3.2834 H   0  0  0  0  0  0  0  0  0  0  0  0
  -18.0870   13.5801    4.1271 H   0  0  0  0  0  0  0  0  0  0  0  0
  -18.2990   13.9120    1.5170 H   0  0  0  0  0  0  0  0  0  0  0  0
  -17.0370   13.0820    2.2130 H   0  0  0  0  0  0  0  0  0  0  0  0
  -18.3030   12.2560    1.5440 H   0  0  0  0  0  0  0  0  0  0  0  0
  -21.1663   12.1560    4.2813 H   0  0  0  0  0  0  0  0  0  0  0  0
  -23.1473   11.3376    5.8029 H   0  0  0  0  0  0  0  0  0  0  0  0
  -23.0053   11.1850    4.0097 H   0  0  0  0  0  0  0  0  0  0  0  0
  -25.2989   10.5935    4.9030 H   0  0  0  0  0  0  0  0  0  0  0  0
  -24.4773    9.2506    3.9969 H   0  0  0  0  0  0  0  0  0  0  0  0
  1  2  1  0
  2  3  1  0
  3  4  1  0
  4  5  1  0
  5  6  1  0
  6  7  2  0
  7  8  1  0
  8  9  2  0
  9 10  1  0
 10 11  1  0
 11 12  1  0
 10 13  2  0
  5 14  1  0
 14 15  1  0
 15  2  1  0
 13  6  1  0
  1 16  1  0
  1 17  1  0
  1 18  1  0
  2 19  1  0
  3 20  1  0
  3 21  1  0
  4 22  1  0
  4 23  1  0
  7 24  1  0
  8 25  1  0
  9 26  1  0
 11 27  1  0
 11 28  1  0
 12 29  1  0
 12 30  1  0
 12 31  1  0
 13 32  1  0
 14 33  1  0
 14 34  1  0
 15 35  1  0
 15 36  1  0
M  CHG  2   2   1  12   1
M  END
>  <meeko>  (6) 
{"is_sidechain": [false], "free_energy": -5.049, "intermolecular_energy": -5.8, "internal_energy": -0.197}

$$$$
4abg_ligand
     RDKit          3D

 36 37  0  0  0  0  0  0  0  0999 V2000
  -28.8290    0.8210   13.7420 C   0  0  0  0  0  0  0  0  0  0  0  0
  -28.5150    2.2470   14.0840 N   0  0  0  0  0  0  0  0  0  0  0  0
  -27.4150    2.8580   13.2220 C   0  0  0  0  0  0  0  0  0  0  0  0
  -26.0110    2.3790   13.6520 C   0  0  0  0  0  0  0  0  0  0  0  0
  -25.7980    2.6050   15.1020 N   0  0  0  0  0  0  0  0  0  0  0  0
  -24.4710    2.6900   15.5310 C   0  0  0  0  0  0  0  0  0  0  0  0
  -24.1490    3.4940   16.6350 C   0  0  0  0  0  0  0  0  0  0  0  0
  -22.8510    3.5730   17.1430 C   0  0  0  0  0  0  0  0  0  0  0  0
  -21.8280    2.8360   16.5590 C   0  0  0  0  0  0  0  0  0  0  0  0
  -22.0970    2.0200   15.4530 C   0  0  0  0  0  0  0  0  0  0  0  0
  -20.9910    1.2170   14.8280 C   0  0  0  0  0  0  0  0  0  0  0  0
  -20.5890    0.0720   15.6740 N   0  0  0  0  0  0  0  0  0  0  0  0
  -23.4180    1.9570   14.9540 C   0  0  0  0  0  0  0  0  0  0  0  0
  -26.8250    2.0060   15.9770 C   0  0  0  0  0  0  0  0  0  0  0  0
  -28.2390    2.4820   15.5640 C   0  0  0  0  0  0  0  0  0  0  0  0
  -28.9566    0.2414   14.6681 H   0  0  0  0  0  0  0  0  0  0  0  0
  -29.7575    0.7810   13.1535 H   0  0  0  0  0  0  0  0  0  0  0  0
  -28.0032    0.3947   13.1535 H   0  0  0  0  0  0  0  0  0  0  0  0
  -29.3680    2.7820   13.8680 H   0  0  0  0  0  0  0  0  0  0  0  0
  -27.5833    2.5694   12.1740 H   0  0  0  0  0  0  0  0  0  0  0  0
  -27.4541    3.9504   13.3446 H   0  0  0  0  0  0  0  0  0  0  0  0
  -25.9150    1.3046   13.4367 H   0  0  0  0  0  0  0  0  0  0  0  0
  -25.2567    2.9510   13.0918 H   0  0  0  0  0  0  0  0  0  0  0  0
  -24.9452    4.0812   17.1159 H   0  0  0  0  0  0  0  0  0  0  0  0
  -22.6378    4.2197   18.0069 H   0  0  0  0  0  0  0  0  0  0  0  0
  -20.8073    2.8934   16.9652 H   0  0  0  0  0  0  0  0  0  0  0  0
  -21.3353    0.8358   13.8553 H   0  0  0  0  0  0  0  0  0  0  0  0
  -20.1177    1.8757   14.7117 H   0  0  0  0  0  0  0  0  0  0  0  0
  -21.3820   -0.2960   16.2140 H   0  0  0  0  0  0  0  0  0  0  0  0
  -20.2080   -0.6940   15.1050 H   0  0  0  0  0  0  0  0  0  0  0  0
  -19.8590    0.3430   16.3450 H   0  0  0  0  0  0  0  0  0  0  0  0
  -23.6294    1.3142   14.0867 H   0  0  0  0  0  0  0  0  0  0  0  0
  -26.7745    0.9102   15.8957 H   0  0  0  0  0  0  0  0  0  0  0  0
  -26.6342    2.3203   17.0137 H   0  0  0  0  0  0  0  0  0  0  0  0
  -28.9852    1.9312   16.1555 H   0  0  0  0  0  0  0  0  0  0  0  0
  -28.2996    3.5642   15.7515 H   0  0  0  0  0  0  0  0  0  0  0  0
  1  2  1  0
  2  3  1  0
  3  4  1  0
  4  5  1  0
  5  6  1  0
  6  7  2  0
  7  8  1  0
  8  9  2  0
  9 10  1  0
 10 11  1  0
 11 12  1  0
 10 13  2  0
  5 14  1  0
 14 15  1  0
 15  2  1  0
 13  6  1  0
  1 16  1  0
  1 17  1  0
  1 18  1  0
  2 19  1  0
  3 20  1  0
  3 21  1  0
  4 22  1  0
  4 23  1  0
  7 24  1  0
  8 25  1  0
  9 26  1  0
 11 27  1  0
 11 28  1  0
 12 29  1  0
 12 30  1  0
 12 31  1  0
 13 32  1  0
 14 33  1  0
 14 34  1  0
 15 35  1  0
 15 36  1  0
M  CHG  2   2   1  12   1
M  END
>  <meeko>  (7) 
{"is_sidechain": [false], "free_energy": -4.995, "intermolecular_energy": -5.755, "internal_energy": -0.181}

$$$$
4abg_ligand
     RDKit          3D

 36 37  0  0  0  0  0  0  0  0999 V2000
  -26.5190    8.8530    7.5100 C   0  0  0  0  0  0  0  0  0  0  0  0
  -26.0360    8.3780    6.1720 N   0  0  0  0  0  0  0  0  0  0  0  0
  -24.7090    7.6300    6.2280 C   0  0  0  0  0  0  0  0  0  0  0  0
  -23.5090    8.5900    6.3920 C   0  0  0  0  0  0  0  0  0  0  0  0
  -23.5330    9.6440    5.3480 N   0  0  0  0  0  0  0  0  0  0  0  0
  -22.3130   10.2600    5.0590 C   0  0  0  0  0  0  0  0  0  0  0  0
  -22.1530   11.6330    5.3060 C   0  0  0  0  0  0  0  0  0  0  0  0
  -20.9400   12.2890    5.0910 C   0  0  0  0  0  0  0  0  0  0  0  0
  -19.8380   11.5840    4.6240 C   0  0  0  0  0  0  0  0  0  0  0  0
  -19.9460   10.2130    4.3590 C   0  0  0  0  0  0  0  0  0  0  0  0
  -18.7510    9.4500    3.8620 C   0  0  0  0  0  0  0  0  0  0  0  0
  -17.5800    9.6090    4.7520 N   0  0  0  0  0  0  0  0  0  0  0  0
  -21.1840    9.5680    4.5820 C   0  0  0  0  0  0  0  0  0  0  0  0
  -24.7900   10.4130    5.2770 C   0  0  0  0  0  0  0  0  0  0  0  0
  -26.0010    9.4660    5.1050 C   0  0  0  0  0  0  0  0  0  0  0  0
  -25.9774    8.3204    8.3056 H   0  0  0  0  0  0  0  0  0  0  0  0
  -26.3372    9.9339    7.6029 H   0  0  0  0  0  0  0  0  0  0  0  0
  -27.5967    8.6532    7.6029 H   0  0  0  0  0  0  0  0  0  0  0  0
  -26.7310    7.6900    5.8500 H   0  0  0  0  0  0  0  0  0  0  0  0
  -24.7281    6.9365    7.0817 H   0  0  0  0  0  0  0  0  0  0  0  0
  -24.5838    7.0892    5.2783 H   0  0  0  0  0  0  0  0  0  0  0  0
  -23.5583    9.0632    7.3838 H   0  0  0  0  0  0  0  0  0  0  0  0
  -22.5782    8.0127    6.2899 H   0  0  0  0  0  0  0  0  0  0  0  0
  -23.0112   12.2100    5.6810 H   0  0  0  0  0  0  0  0  0  0  0  0
  -20.8564   13.3673    5.2919 H   0  0  0  0  0  0  0  0  0  0  0  0
  -18.8812   12.1021    4.4624 H   0  0  0  0  0  0  0  0  0  0  0  0
  -19.0105    8.3826    3.8044 H   0  0  0  0  0  0  0  0  0  0  0  0
  -18.4816    9.8490    2.8730 H   0  0  0  0  0  0  0  0  0  0  0  0
  -16.7970   10.0660    4.2670 H   0  0  0  0  0  0  0  0  0  0  0  0
  -17.8150   10.1720    5.5780 H   0  0  0  0  0  0  0  0  0  0  0  0
  -17.2430    8.7000    5.0910 H   0  0  0  0  0  0  0  0  0  0  0  0
  -21.2677    8.4907    4.3761 H   0  0  0  0  0  0  0  0  0  0  0  0
  -24.9126   10.9911    6.2048 H   0  0  0  0  0  0  0  0  0  0  0  0
  -24.7431   11.0884    4.4100 H   0  0  0  0  0  0  0  0  0  0  0  0
  -26.9259   10.0577    5.1717 H   0  0  0  0  0  0  0  0  0  0  0  0
  -25.9100    8.9754    4.1247 H   0  0  0  0  0  0  0  0  0  0  0  0
  1  2  1  0
  2  3  1  0
  3  4  1  0
  4  5  1  0
  5  6  1  0
  6  7  2  0
  7  8  1  0
  8  9  2  0
  9 10  1  0
 10 11  1  0
 11 12  1  0
 10 13  2  0
  5 14  1  0
 14 15  1  0
 15  2  1  0
 13  6  1  0
  1 16  1  0
  1 17  1  0
  1 18  1  0
  2 19  1  0
  3 20  1  0
  3 21  1  0
  4 22  1  0
  4 23  1  0
  7 24  1  0
  8 25  1  0
  9 26  1  0
 11 27  1  0
 11 28  1  0
 12 29  1  0
 12 30  1  0
 12 31  1  0
 13 32  1  0
 14 33  1  0
 14 34  1  0
 15 35  1  0
 15 36  1  0
M  CHG  2   2   1  12   1
M  END
>  <meeko>  (8) 
{"is_sidechain": [false], "free_energy": -4.943, "intermolecular_energy": -5.691, "internal_energy": -0.185}

$$$$
4abg_ligand
     RDKit          3D

 36 37  0  0  0  0  0  0  0  0999 V2000
  -24.4230    8.3210    6.2190 C   0  0  0  0  0  0  0  0  0  0  0  0
  -23.2740    9.0480    6.8500 N   0  0  0  0  0  0  0  0  0  0  0  0
  -23.1780   10.5150    6.4460 C   0  0  0  0  0  0  0  0  0  0  0  0
  -22.5910   10.6870    5.0280 C   0  0  0  0  0  0  0  0  0  0  0  0
  -21.2990    9.9700    4.9020 N   0  0  0  0  0  0  0  0  0  0  0  0
  -20.4350   10.4160    3.8990 C   0  0  0  0  0  0  0  0  0  0  0  0
  -20.7690   10.2060    2.5520 C   0  0  0  0  0  0  0  0  0  0  0  0
  -19.9730   10.6800    1.5070 C   0  0  0  0  0  0  0  0  0  0  0  0
  -18.8110   11.3900    1.7810 C   0  0  0  0  0  0  0  0  0  0  0  0
  -18.4310   11.6220    3.1090 C   0  0  0  0  0  0  0  0  0  0  0  0
  -17.1780   12.3980    3.4050 C   0  0  0  0  0  0  0  0  0  0  0  0
  -16.1090   12.1240    2.4200 N   0  0  0  0  0  0  0  0  0  0  0  0
  -19.2500   11.1330    4.1520 C   0  0  0  0  0  0  0  0  0  0  0  0
  -21.3510    8.5380    5.2570 C   0  0  0  0  0  0  0  0  0  0  0  0
  -21.9300    8.3480    6.6790 C   0  0  0  0  0  0  0  0  0  0  0  0
  -25.0730    7.9097    7.0054 H   0  0  0  0  0  0  0  0  0  0  0  0
  -24.9998    9.0189    5.5943 H   0  0  0  0  0  0  0  0  0  0  0  0
  -24.0394    7.5009    5.5943 H   0  0  0  0  0  0  0  0  0  0  0  0
  -23.4640    9.0490    7.8630 H   0  0  0  0  0  0  0  0  0  0  0  0
  -24.1852   10.9565    6.4694 H   0  0  0  0  0  0  0  0  0  0  0  0
  -22.5059   11.0197    7.1556 H   0  0  0  0  0  0  0  0  0  0  0  0
  -23.3013   10.2821    4.2921 H   0  0  0  0  0  0  0  0  0  0  0  0
  -22.4190   11.7580    4.8453 H   0  0  0  0  0  0  0  0  0  0  0  0
  -21.6873    9.6502    2.3117 H   0  0  0  0  0  0  0  0  0  0  0  0
  -20.2670   10.4906    0.4641 H   0  0  0  0  0  0  0  0  0  0  0  0
  -18.1901   11.7695    0.9561 H   0  0  0  0  0  0  0  0  0  0  0  0
  -17.4128   13.4724    3.3842 H   0  0  0  0  0  0  0  0  0  0  0  0
  -16.8136   12.0886    4.3957 H   0  0  0  0  0  0  0  0  0  0  0  0
  -16.0290   11.1190    2.2190 H   0  0  0  0  0  0  0  0  0  0  0  0
  -16.2860   12.6130    1.5340 H   0  0  0  0  0  0  0  0  0  0  0  0
  -15.1950   12.4420    2.7640 H   0  0  0  0  0  0  0  0  0  0  0  0
  -18.9521   11.3185    5.1945 H   0  0  0  0  0  0  0  0  0  0  0  0
  -21.9893    8.0096    4.5336 H   0  0  0  0  0  0  0  0  0  0  0  0
  -20.3296    8.1304    5.2336 H   0  0  0  0  0  0  0  0  0  0  0  0
  -22.0640    7.2724    6.8665 H   0  0  0  0  0  0  0  0  0  0  0  0
  -21.2230    8.7931    7.3946 H   0  0  0  0  0  0  0  0  0  0  0  0
  1  2  1  0
  2  3  1  0
  3  4  1  0
  4  5  1  0
  5  6  1  0
  6  7  2  0
  7  8  1  0
  8  9  2  0
  9 10  1  0
 10 11  1  0
 11 12  1  0
 10 13  2  0
  5 14  1  0
 14 15  1  0
 15  2  1  0
 13  6  1  0
  1 16  1  0
  1 17  1  0
  1 18  1  0
  2 19  1  0
  3 20  1  0
  3 21  1  0
  4 22  1  0
  4 23  1  0
  7 24  1  0
  8 25  1  0
  9 26  1  0
 11 27  1  0
 11 28  1  0
 12 29  1  0
 12 30  1  0
 12 31  1  0
 13 32  1  0
 14 33  1  0
 14 34  1  0
 15 35  1  0
 15 36  1  0
M  CHG  2   2   1  12   1
M  END
>  <meeko>  (9) 
{"is_sidechain": [false], "free_energy": -4.925, "intermolecular_energy": -5.687, "internal_energy": -0.169}

$$$$
