4dld_ligand
     RDKit          3D

 33 33  0  0  0  0  0  0  0  0999 V2000
   -1.6980   34.2170  105.2390 N   0  0  0  0  0  0  0  0  0  0  0  0
   -2.5240   34.5730  104.0400 C   0  0  1  0  0  0  0  0  0  0  0  0
   -1.9510   33.9320  102.7620 C   0  0  0  0  0  0  0  0  0  0  0  0
   -0.5120   34.3410  102.4550 C   0  0  0  0  0  0  0  0  0  0  0  0
    0.5040   33.5290  103.0150 C   0  0  0  0  0  0  0  0  0  0  0  0
    1.8590   33.7880  102.7990 C   0  0  0  0  0  0  0  0  0  0  0  0
    3.0160   32.7580  103.5590 Cl  0  0  0  0  0  0  0  0  0  0  0  0
    2.2020   34.8790  102.0130 C   0  0  0  0  0  0  0  0  0  0  0  0
    3.5860   35.1940  101.7510 N   0  0  0  0  0  0  0  0  0  0  0  0
    4.3270   34.2690  101.3910 O   0  0  0  0  0  0  0  0  0  0  0  0
    3.9240   36.3800  101.8730 O   0  0  0  0  0  0  0  0  0  0  0  0
    1.2270   35.7250  101.4710 C   0  0  0  0  0  0  0  0  0  0  0  0
   -0.1420   35.4760  101.6950 C   0  0  0  0  0  0  0  0  0  0  0  0
   -1.1200   36.4650  101.0830 C   0  0  0  0  0  0  0  0  0  0  0  0
   -0.6840   37.9230  101.2130 C   0  0  0  0  0  0  0  0  0  0  0  0
   -1.7900   38.6550  101.9240 C   0  0  0  0  0  0  0  0  0  0  0  0
   -2.1460   39.7730  101.4450 O   0  0  0  0  0  0  0  0  0  0  0  0
   -2.1840   38.1880  103.0320 O   0  0  0  0  0  0  0  0  0  0  0  0
   -4.0250   34.2310  104.2670 C   0  0  0  0  0  0  0  0  0  0  0  0
   -4.3220   33.6200  105.3250 O   0  0  0  0  0  0  0  0  0  0  0  0
   -4.7500   34.6010  103.2890 O   0  0  0  0  0  0  0  0  0  0  0  0
   -2.2340   33.8430  106.0510 H   0  0  0  0  0  0  0  0  0  0  0  0
   -1.2140   35.0330  105.6760 H   0  0  0  0  0  0  0  0  0  0  0  0
   -0.9560   33.5780  104.9220 H   0  0  0  0  0  0  0  0  0  0  0  0
   -2.4723   35.6622  103.8952 H   0  0  0  0  0  0  0  0  0  0  0  0
   -1.9827   32.8387  102.8790 H   0  0  0  0  0  0  0  0  0  0  0  0
   -2.5688   34.2856  101.9234 H   0  0  0  0  0  0  0  0  0  0  0  0
    0.2175   32.6691  103.6383 H   0  0  0  0  0  0  0  0  0  0  0  0
    1.5319   36.5911  100.8654 H   0  0  0  0  0  0  0  0  0  0  0  0
   -1.2284   36.2293  100.0140 H   0  0  0  0  0  0  0  0  0  0  0  0
   -2.0663   36.3630  101.6344 H   0  0  0  0  0  0  0  0  0  0  0  0
    0.2467   37.9878  101.7958 H   0  0  0  0  0  0  0  0  0  0  0  0
   -0.4959   38.3646  100.2233 H   0  0  0  0  0  0  0  0  0  0  0  0
  1  2  1  0
  2  3  1  0
  3  4  1  0
  4  5  2  0
  5  6  1  0
  6  7  1  0
  6  8  2  0
  8  9  1  0
  9 10  2  0
  9 11  1  0
  8 12  1  0
 12 13  2  0
 13 14  1  0
 14 15  1  0
 15 16  1  0
 16 17  2  0
 16 18  1  0
  2 19  1  0
 19 20  2  0
 19 21  1  0
 13  4  1  0
  1 22  1  0
  1 23  1  0
  1 24  1  0
  2 25  1  6
  3 26  1  0
  3 27  1  0
  5 28  1  0
 12 29  1  0
 14 30  1  0
 14 31  1  0
 15 32  1  0
 15 33  1  0
M  CHG  5   1   1   9   1  11  -1  18  -1  21  -1
M  END
>  <meeko>  (1) 
{"is_sidechain": [false], "free_energy": -8.358, "intermolecular_energy": -12.023, "internal_energy": -0.206}

$$$$
4dld_ligand
     RDKit          3D

 33 33  0  0  0  0  0  0  0  0999 V2000
   -1.9530   34.0980  105.3400 N   0  0  0  0  0  0  0  0  0  0  0  0
   -2.8060   34.6290  104.2280 C   0  0  1  0  0  0  0  0  0  0  0  0
   -2.0600   34.5700  102.8820 C   0  0  0  0  0  0  0  0  0  0  0  0
   -1.0680   35.7120  102.6720 C   0  0  0  0  0  0  0  0  0  0  0  0
   -1.6160   36.9480  102.2450 C   0  0  0  0  0  0  0  0  0  0  0  0
   -0.8180   38.0730  102.0290 C   0  0  0  0  0  0  0  0  0  0  0  0
   -1.5820   39.5170  101.4750 Cl  0  0  0  0  0  0  0  0  0  0  0  0
    0.5480   37.9590  102.2390 C   0  0  0  0  0  0  0  0  0  0  0  0
    1.4230   39.0900  102.0370 N   0  0  0  0  0  0  0  0  0  0  0  0
    1.4260   39.9760  102.9030 O   0  0  0  0  0  0  0  0  0  0  0  0
    2.1340   39.0730  101.0230 O   0  0  0  0  0  0  0  0  0  0  0  0
    1.1310   36.7460  102.6270 C   0  0  0  0  0  0  0  0  0  0  0  0
    0.3320   35.6030  102.8360 C   0  0  0  0  0  0  0  0  0  0  0  0
    1.0620   34.3310  103.2320 C   0  0  0  0  0  0  0  0  0  0  0  0
    2.3750   34.1140  102.4810 C   0  0  0  0  0  0  0  0  0  0  0  0
    3.2310   33.2200  103.3360 C   0  0  0  0  0  0  0  0  0  0  0  0
    2.9160   33.1140  104.5590 O   0  0  0  0  0  0  0  0  0  0  0  0
    4.2930   32.7610  102.8240 O   0  0  0  0  0  0  0  0  0  0  0  0
   -4.1880   33.9140  104.1850 C   0  0  0  0  0  0  0  0  0  0  0  0
   -4.3720   32.9700  104.9940 O   0  0  0  0  0  0  0  0  0  0  0  0
   -4.9390   34.3860  103.2730 O   0  0  0  0  0  0  0  0  0  0  0  0
   -0.9250   34.1750  105.1860 H   0  0  0  0  0  0  0  0  0  0  0  0
   -2.0560   33.0700  105.4970 H   0  0  0  0  0  0  0  0  0  0  0  0
   -2.2630   34.5550  106.2090 H   0  0  0  0  0  0  0  0  0  0  0  0
   -3.0126   35.6909  104.4270 H   0  0  0  0  0  0  0  0  0  0  0  0
   -1.5087   33.6194  102.8333 H   0  0  0  0  0  0  0  0  0  0  0  0
   -2.8204   34.6591  102.0921 H   0  0  0  0  0  0  0  0  0  0  0  0
   -2.7009   37.0226  102.0792 H   0  0  0  0  0  0  0  0  0  0  0  0
    2.2200   36.6845  102.7697 H   0  0  0  0  0  0  0  0  0  0  0  0
    1.2821   34.3784  104.3087 H   0  0  0  0  0  0  0  0  0  0  0  0
    0.4024   33.4895  102.9737 H   0  0  0  0  0  0  0  0  0  0  0  0
    2.1798   33.6340  101.5107 H   0  0  0  0  0  0  0  0  0  0  0  0
    2.8795   35.0725  102.2893 H   0  0  0  0  0  0  0  0  0  0  0  0
  1  2  1  0
  2  3  1  0
  3  4  1  0
  4  5  2  0
  5  6  1  0
  6  7  1  0
  6  8  2  0
  8  9  1  0
  9 10  2  0
  9 11  1  0
  8 12  1  0
 12 13  2  0
 13 14  1  0
 14 15  1  0
 15 16  1  0
 16 17  2  0
 16 18  1  0
  2 19  1  0
 19 20  2  0
 19 21  1  0
 13  4  1  0
  1 22  1  0
  1 23  1  0
  1 24  1  0
  2 25  1  1
  3 26  1  0
  3 27  1  0
  5 28  1  0
 12 29  1  0
 14 30  1  0
 14 31  1  0
 15 32  1  0
 15 33  1  0
M  CHG  5   1   1   9   1  11  -1  18  -1  21  -1
M  END
>  <meeko>  (2) 
{"is_sidechain": [false], "free_energy": -8.19, "intermolecular_energy": -11.306, "internal_energy": -0.681}

$$$$
4dld_ligand
     RDKit          3D

 33 33  0  0  0  0  0  0  0  0999 V2000
    0.5610   36.2940   98.8180 N   0  0  0  0  0  0  0  0  0  0  0  0
   -0.1120   36.3600  100.1550 C   0  0  1  0  0  0  0  0  0  0  0  0
    0.1630   35.0860  100.9770 C   0  0  0  0  0  0  0  0  0  0  0  0
   -0.9120   34.7760  102.0160 C   0  0  0  0  0  0  0  0  0  0  0  0
   -2.2490   35.0580  101.6400 C   0  0  0  0  0  0  0  0  0  0  0  0
   -3.3240   34.8070  102.4950 C   0  0  0  0  0  0  0  0  0  0  0  0
   -4.9080   35.2230  101.9520 Cl  0  0  0  0  0  0  0  0  0  0  0  0
   -3.0570   34.2700  103.7460 C   0  0  0  0  0  0  0  0  0  0  0  0
   -4.1290   33.9860  104.6710 N   0  0  0  0  0  0  0  0  0  0  0  0
   -4.6640   32.8710  104.6030 O   0  0  0  0  0  0  0  0  0  0  0  0
   -4.4100   34.8710  105.4910 O   0  0  0  0  0  0  0  0  0  0  0  0
   -1.7470   34.0110  104.1660 C   0  0  0  0  0  0  0  0  0  0  0  0
   -0.6560   34.2720  103.3130 C   0  0  0  0  0  0  0  0  0  0  0  0
    0.7260   33.9770  103.8710 C   0  0  0  0  0  0  0  0  0  0  0  0
    1.5160   32.9550  103.0540 C   0  0  0  0  0  0  0  0  0  0  0  0
    2.9390   33.0060  103.5370 C   0  0  0  0  0  0  0  0  0  0  0  0
    3.1230   33.1360  104.7840 O   0  0  0  0  0  0  0  0  0  0  0  0
    3.8530   33.0750  102.6640 O   0  0  0  0  0  0  0  0  0  0  0  0
    0.2690   37.6640  100.9160 C   0  0  0  0  0  0  0  0  0  0  0  0
    1.4920   37.8820  101.1060 O   0  0  0  0  0  0  0  0  0  0  0  0
   -0.7590   38.3190  101.2800 O   0  0  0  0  0  0  0  0  0  0  0  0
   -0.0790   36.3440   97.9970 H   0  0  0  0  0  0  0  0  0  0  0  0
    1.0510   35.3890   98.6360 H   0  0  0  0  0  0  0  0  0  0  0  0
    1.2870   37.0230   98.8030 H   0  0  0  0  0  0  0  0  0  0  0  0
   -1.1992   36.4016   99.9932 H   0  0  0  0  0  0  0  0  0  0  0  0
    0.2306   34.2345  100.2839 H   0  0  0  0  0  0  0  0  0  0  0  0
    1.0995   35.2575  101.5279 H   0  0  0  0  0  0  0  0  0  0  0  0
   -2.4455   35.4868  100.6463 H   0  0  0  0  0  0  0  0  0  0  0  0
   -1.5676   33.6002  105.1705 H   0  0  0  0  0  0  0  0  0  0  0  0
    1.2974   34.9166  103.8969 H   0  0  0  0  0  0  0  0  0  0  0  0
    0.5816   33.5443  104.8720 H   0  0  0  0  0  0  0  0  0  0  0  0
    1.1015   31.9478  103.2076 H   0  0  0  0  0  0  0  0  0  0  0  0
    1.4592   33.1850  101.9798 H   0  0  0  0  0  0  0  0  0  0  0  0
  1  2  1  0
  2  3  1  0
  3  4  1  0
  4  5  2  0
  5  6  1  0
  6  7  1  0
  6  8  2  0
  8  9  1  0
  9 10  2  0
  9 11  1  0
  8 12  1  0
 12 13  2  0
 13 14  1  0
 14 15  1  0
 15 16  1  0
 16 17  2  0
 16 18  1  0
  2 19  1  0
 19 20  2  0
 19 21  1  0
 13  4  1  0
  1 22  1  0
  1 23  1  0
  1 24  1  0
  2 25  1  6
  3 26  1  0
  3 27  1  0
  5 28  1  0
 12 29  1  0
 14 30  1  0
 14 31  1  0
 15 32  1  0
 15 33  1  0
M  CHG  5   1   1   9   1  11  -1  18  -1  21  -1
M  END
>  <meeko>  (3) 
{"is_sidechain": [false], "free_energy": -7.708, "intermolecular_energy": -10.795, "internal_energy": -0.498}

$$$$
4dld_ligand
     RDKit          3D

 33 33  0  0  0  0  0  0  0  0999 V2000
   -1.7790   34.2330  105.2720 N   0  0  0  0  0  0  0  0  0  0  0  0
   -2.5770   34.5510  104.0440 C   0  0  1  0  0  0  0  0  0  0  0  0
   -1.9580   33.8940  102.7960 C   0  0  0  0  0  0  0  0  0  0  0  0
   -0.5440   34.3740  102.4790 C   0  0  0  0  0  0  0  0  0  0  0  0
    0.5150   33.6350  103.0630 C   0  0  0  0  0  0  0  0  0  0  0  0
    1.8540   33.9630  102.8410 C   0  0  0  0  0  0  0  0  0  0  0  0
    3.0640   33.0190  103.6300 Cl  0  0  0  0  0  0  0  0  0  0  0  0
    2.1370   35.0500  102.0260 C   0  0  0  0  0  0  0  0  0  0  0  0
    3.5030   35.4330  101.7570 N   0  0  0  0  0  0  0  0  0  0  0  0
    4.2220   34.6190  101.1630 O   0  0  0  0  0  0  0  0  0  0  0  0
    3.8450   36.5700  102.1120 O   0  0  0  0  0  0  0  0  0  0  0  0
    1.1180   35.8250  101.4610 C   0  0  0  0  0  0  0  0  0  0  0  0
   -0.2350   35.5060  101.6900 C   0  0  0  0  0  0  0  0  0  0  0  0
   -1.2650   36.4220  101.0500 C   0  0  0  0  0  0  0  0  0  0  0  0
   -1.7850   35.9200   99.7040 C   0  0  0  0  0  0  0  0  0  0  0  0
   -3.2870   35.9060   99.7860 C   0  0  0  0  0  0  0  0  0  0  0  0
   -3.8080   36.1970  100.9040 O   0  0  0  0  0  0  0  0  0  0  0  0
   -3.9240   35.4560   98.7900 O   0  0  0  0  0  0  0  0  0  0  0  0
   -4.0790   34.1900  104.2360 C   0  0  0  0  0  0  0  0  0  0  0  0
   -4.8740   34.5360  103.3260 O   0  0  0  0  0  0  0  0  0  0  0  0
   -4.2900   33.6100  105.3490 O   0  0  0  0  0  0  0  0  0  0  0  0
   -2.3360   33.8990  106.0880 H   0  0  0  0  0  0  0  0  0  0  0  0
   -1.2940   35.0600  105.6860 H   0  0  0  0  0  0  0  0  0  0  0  0
   -1.0400   33.5730  104.9960 H   0  0  0  0  0  0  0  0  0  0  0  0
   -2.5389   35.6378  103.8786 H   0  0  0  0  0  0  0  0  0  0  0  0
   -1.9261   32.8064  102.9574 H   0  0  0  0  0  0  0  0  0  0  0  0
   -2.5895   34.1768  101.9409 H   0  0  0  0  0  0  0  0  0  0  0  0
    0.2752   32.7782  103.7099 H   0  0  0  0  0  0  0  0  0  0  0  0
    1.3755   36.6905  100.8328 H   0  0  0  0  0  0  0  0  0  0  0  0
   -2.1183   36.5181  101.7374 H   0  0  0  0  0  0  0  0  0  0  0  0
   -0.7654   37.3838  100.8619 H   0  0  0  0  0  0  0  0  0  0  0  0
   -1.4576   36.5935   98.8983 H   0  0  0  0  0  0  0  0  0  0  0  0
   -1.3960   34.9147   99.4849 H   0  0  0  0  0  0  0  0  0  0  0  0
  1  2  1  0
  2  3  1  0
  3  4  1  0
  4  5  2  0
  5  6  1  0
  6  7  1  0
  6  8  2  0
  8  9  1  0
  9 10  2  0
  9 11  1  0
  8 12  1  0
 12 13  2  0
 13 14  1  0
 14 15  1  0
 15 16  1  0
 16 17  2  0
 16 18  1  0
  2 19  1  0
 19 20  2  0
 19 21  1  0
 13  4  1  0
  1 22  1  0
  1 23  1  0
  1 24  1  0
  2 25  1  6
  3 26  1  0
  3 27  1  0
  5 28  1  0
 12 29  1  0
 14 30  1  0
 14 31  1  0
 15 32  1  0
 15 33  1  0
M  CHG  5   1   1   9   1  11  -1  18  -1  21  -1
M  END
>  <meeko>  (4) 
{"is_sidechain": [false], "free_energy": -7.641, "intermolecular_energy": -10.731, "internal_energy": -0.465}

$$$$
4dld_ligand
     RDKit          3D

 33 33  0  0  0  0  0  0  0  0999 V2000
    0.1520   33.6360  104.4880 N   0  0  0  0  0  0  0  0  0  0  0  0
    1.1080   33.1640  103.4350 C   0  0  1  0  0  0  0  0  0  0  0  0
    0.6520   33.6090  102.0330 C   0  0  0  0  0  0  0  0  0  0  0  0
    0.1140   35.0370  101.9800 C   0  0  0  0  0  0  0  0  0  0  0  0
    1.0780   36.0660  101.8400 C   0  0  0  0  0  0  0  0  0  0  0  0
    0.7150   37.4120  101.7660 C   0  0  0  0  0  0  0  0  0  0  0  0
    1.9710   38.5870  101.6320 Cl  0  0  0  0  0  0  0  0  0  0  0  0
   -0.6330   37.7340  101.8380 C   0  0  0  0  0  0  0  0  0  0  0  0
   -1.0690   39.1080  101.7630 N   0  0  0  0  0  0  0  0  0  0  0  0
   -2.2880   39.3240  101.7520 O   0  0  0  0  0  0  0  0  0  0  0  0
   -0.1840   39.9760  101.7490 O   0  0  0  0  0  0  0  0  0  0  0  0
   -1.6120   36.7480  102.0130 C   0  0  0  0  0  0  0  0  0  0  0  0
   -1.2510   35.3880  102.0990 C   0  0  0  0  0  0  0  0  0  0  0  0
   -2.3850   34.3990  102.3100 C   0  0  0  0  0  0  0  0  0  0  0  0
   -3.5540   34.9640  103.1150 C   0  0  0  0  0  0  0  0  0  0  0  0
   -3.5800   34.2360  104.4310 C   0  0  0  0  0  0  0  0  0  0  0  0
   -2.5990   34.4180  105.2120 O   0  0  0  0  0  0  0  0  0  0  0  0
   -4.4900   33.3750  104.6070 O   0  0  0  0  0  0  0  0  0  0  0  0
    2.5670   33.5970  103.7620 C   0  0  0  0  0  0  0  0  0  0  0  0
    2.7160   34.6090  104.4940 O   0  0  0  0  0  0  0  0  0  0  0  0
    3.4240   32.8560  103.1830 O   0  0  0  0  0  0  0  0  0  0  0  0
   -0.1700   32.9030  105.1550 H   0  0  0  0  0  0  0  0  0  0  0  0
   -0.7600   33.9760  104.1080 H   0  0  0  0  0  0  0  0  0  0  0  0
    0.5870   34.4410  104.9590 H   0  0  0  0  0  0  0  0  0  0  0  0
    1.1040   32.0640  103.4320 H   0  0  0  0  0  0  0  0  0  0  0  0
    1.5118   33.5376  101.3506 H   0  0  0  0  0  0  0  0  0  0  0  0
   -0.1757   32.9457  101.7417 H   0  0  0  0  0  0  0  0  0  0  0  0
    2.1432   35.7965  101.7881 H   0  0  0  0  0  0  0  0  0  0  0  0
   -2.6710   37.0370  102.0839 H   0  0  0  0  0  0  0  0  0  0  0  0
   -2.7611   34.0872  101.3245 H   0  0  0  0  0  0  0  0  0  0  0  0
   -1.9738   33.5588  102.8888 H   0  0  0  0  0  0  0  0  0  0  0  0
   -3.4102   36.0415  103.2830 H   0  0  0  0  0  0  0  0  0  0  0  0
   -4.5024   34.8283  102.5745 H   0  0  0  0  0  0  0  0  0  0  0  0
  1  2  1  0
  2  3  1  0
  3  4  1  0
  4  5  2  0
  5  6  1  0
  6  7  1  0
  6  8  2  0
  8  9  1  0
  9 10  2  0
  9 11  1  0
  8 12  1  0
 12 13  2  0
 13 14  1  0
 14 15  1  0
 15 16  1  0
 16 17  2  0
 16 18  1  0
  2 19  1  0
 19 20  2  0
 19 21  1  0
 13  4  1  0
  1 22  1  0
  1 23  1  0
  1 24  1  0
  2 25  1  6
  3 26  1  0
  3 27  1  0
  5 28  1  0
 12 29  1  0
 14 30  1  0
 14 31  1  0
 15 32  1  0
 15 33  1  0
M  CHG  5   1   1   9   1  11  -1  18  -1  21  -1
M  END
>  <meeko>  (5) 
{"is_sidechain": [false], "free_energy": -7.578, "intermolecular_energy": -11.099, "internal_energy": -0.006}

$$$$
4dld_ligand
     RDKit          3D

 33 33  0  0  0  0  0  0  0  0999 V2000
   -1.8430   39.5540  101.3400 N   0  0  0  0  0  0  0  0  0  0  0  0
   -0.8640   38.6050  101.9620 C   0  0  1  0  0  0  0  0  0  0  0  0
   -0.7300   37.3200  101.1240 C   0  0  0  0  0  0  0  0  0  0  0  0
    0.0420   36.2030  101.8220 C   0  0  0  0  0  0  0  0  0  0  0  0
    1.4070   36.0640  101.4640 C   0  0  0  0  0  0  0  0  0  0  0  0
    2.2250   35.0900  102.0390 C   0  0  0  0  0  0  0  0  0  0  0  0
    3.8620   34.9840  101.5040 Cl  0  0  0  0  0  0  0  0  0  0  0  0
    1.6690   34.2390  102.9830 C   0  0  0  0  0  0  0  0  0  0  0  0
    2.4680   33.2160  103.6150 N   0  0  0  0  0  0  0  0  0  0  0  0
    2.5390   32.1150  103.0540 O   0  0  0  0  0  0  0  0  0  0  0  0
    3.0550   33.5300  104.6610 O   0  0  0  0  0  0  0  0  0  0  0  0
    0.3170   34.3220  103.3370 C   0  0  0  0  0  0  0  0  0  0  0  0
   -0.5170   35.2960  102.7520 C   0  0  0  0  0  0  0  0  0  0  0  0
   -1.9730   35.2890  103.1860 C   0  0  0  0  0  0  0  0  0  0  0  0
   -2.4520   33.9390  103.7180 C   0  0  0  0  0  0  0  0  0  0  0  0
   -3.9100   34.0880  104.0580 C   0  0  0  0  0  0  0  0  0  0  0  0
   -4.6580   34.6140  103.1810 O   0  0  0  0  0  0  0  0  0  0  0  0
   -4.2640   33.8280  105.2440 O   0  0  0  0  0  0  0  0  0  0  0  0
    0.5040   39.2990  102.2280 C   0  0  0  0  0  0  0  0  0  0  0  0
    1.0700   39.8480  101.2480 O   0  0  0  0  0  0  0  0  0  0  0  0
    0.8780   39.1660  103.4360 O   0  0  0  0  0  0  0  0  0  0  0  0
   -1.4240   40.4110  100.9190 H   0  0  0  0  0  0  0  0  0  0  0  0
   -2.5150   39.9740  102.0210 H   0  0  0  0  0  0  0  0  0  0  0  0
   -2.4090   39.0160  100.6700 H   0  0  0  0  0  0  0  0  0  0  0  0
   -1.2534   38.3002  102.9446 H   0  0  0  0  0  0  0  0  0  0  0  0
   -1.7400   36.9506  100.8927 H   0  0  0  0  0  0  0  0  0  0  0  0
   -0.1601   37.5858  100.2215 H   0  0  0  0  0  0  0  0  0  0  0  0
    1.8336   36.7434  100.7114 H   0  0  0  0  0  0  0  0  0  0  0  0
   -0.0975   33.6218  104.0772 H   0  0  0  0  0  0  0  0  0  0  0  0
   -2.1019   36.0399  103.9795 H   0  0  0  0  0  0  0  0  0  0  0  0
   -2.5745   35.5127  102.2926 H   0  0  0  0  0  0  0  0  0  0  0  0
   -2.3214   33.1630  102.9494 H   0  0  0  0  0  0  0  0  0  0  0  0
   -1.8726   33.6400  104.6039 H   0  0  0  0  0  0  0  0  0  0  0  0
  1  2  1  0
  2  3  1  0
  3  4  1  0
  4  5  2  0
  5  6  1  0
  6  7  1  0
  6  8  2  0
  8  9  1  0
  9 10  2  0
  9 11  1  0
  8 12  1  0
 12 13  2  0
 13 14  1  0
 14 15  1  0
 15 16  1  0
 16 17  2  0
 16 18  1  0
  2 19  1  0
 19 20  2  0
 19 21  1  0
 13  4  1  0
  1 22  1  0
  1 23  1  0
  1 24  1  0
  2 25  1  1
  3 26  1  0
  3 27  1  0
  5 28  1  0
 12 29  1  0
 14 30  1  0
 14 31  1  0
 15 32  1  0
 15 33  1  0
M  CHG  5   1   1   9   1  11  -1  18  -1  21  -1
M  END
>  <meeko>  (6) 
{"is_sidechain": [false], "free_energy": -7.356, "intermolecular_energy": -10.139, "internal_energy": -0.647}

$$$$
4dld_ligand
     RDKit          3D

 33 33  0  0  0  0  0  0  0  0999 V2000
    1.9060   34.5900  101.1400 N   0  0  0  0  0  0  0  0  0  0  0  0
    2.2000   34.7970  102.5950 C   0  0  1  0  0  0  0  0  0  0  0  0
    1.2800   35.8740  103.1980 C   0  0  0  0  0  0  0  0  0  0  0  0
   -0.1680   35.7920  102.7200 C   0  0  0  0  0  0  0  0  0  0  0  0
   -0.9980   34.8610  103.3920 C   0  0  0  0  0  0  0  0  0  0  0  0
   -2.3440   34.6990  103.0590 C   0  0  0  0  0  0  0  0  0  0  0  0
   -3.2570   33.5110  103.9150 Cl  0  0  0  0  0  0  0  0  0  0  0  0
   -2.8660   35.4770  102.0350 C   0  0  0  0  0  0  0  0  0  0  0  0
   -4.2520   35.3560  101.6500 N   0  0  0  0  0  0  0  0  0  0  0  0
   -4.5110   35.3290  100.4390 O   0  0  0  0  0  0  0  0  0  0  0  0
   -5.0810   35.2520  102.5650 O   0  0  0  0  0  0  0  0  0  0  0  0
   -2.0680   36.3810  101.3250 C   0  0  0  0  0  0  0  0  0  0  0  0
   -0.7060   36.5420  101.6480 C   0  0  0  0  0  0  0  0  0  0  0  0
    0.0790   37.5320  100.8040 C   0  0  0  0  0  0  0  0  0  0  0  0
    0.0250   38.9670  101.3260 C   0  0  0  0  0  0  0  0  0  0  0  0
    1.3220   39.2270  102.0420 C   0  0  0  0  0  0  0  0  0  0  0  0
    2.3860   39.1540  101.3570 O   0  0  0  0  0  0  0  0  0  0  0  0
    1.2840   39.3460  103.3010 O   0  0  0  0  0  0  0  0  0  0  0  0
    2.1520   33.4520  103.3780 C   0  0  0  0  0  0  0  0  0  0  0  0
    2.8780   33.3560  104.4000 O   0  0  0  0  0  0  0  0  0  0  0  0
    1.3830   32.6050  102.8210 O   0  0  0  0  0  0  0  0  0  0  0  0
    1.1900   33.8610  100.9320 H   0  0  0  0  0  0  0  0  0  0  0  0
    2.7200   34.2330  100.5920 H   0  0  0  0  0  0  0  0  0  0  0  0
    1.6690   35.5080  100.7410 H   0  0  0  0  0  0  0  0  0  0  0  0
    3.2289   35.1742  102.6901 H   0  0  0  0  0  0  0  0  0  0  0  0
    1.2898   35.7641  104.2925 H   0  0  0  0  0  0  0  0  0  0  0  0
    1.6700   36.8477  102.8667 H   0  0  0  0  0  0  0  0  0  0  0  0
   -0.5697   34.2484  104.1990 H   0  0  0  0  0  0  0  0  0  0  0  0
   -2.5079   36.9711  100.5075 H   0  0  0  0  0  0  0  0  0  0  0  0
    1.1308   37.2107  100.7812 H   0  0  0  0  0  0  0  0  0  0  0  0
   -0.3817   37.5371   99.8051 H   0  0  0  0  0  0  0  0  0  0  0  0
   -0.0903   39.6694  100.4873 H   0  0  0  0  0  0  0  0  0  0  0  0
   -0.8304   39.1049  102.0036 H   0  0  0  0  0  0  0  0  0  0  0  0
  1  2  1  0
  2  3  1  0
  3  4  1  0
  4  5  2  0
  5  6  1  0
  6  7  1  0
  6  8  2  0
  8  9  1  0
  9 10  2  0
  9 11  1  0
  8 12  1  0
 12 13  2  0
 13 14  1  0
 14 15  1  0
 15 16  1  0
 16 17  2  0
 16 18  1  0
  2 19  1  0
 19 20  2  0
 19 21  1  0
 13  4  1  0
  1 22  1  0
  1 23  1  0
  1 24  1  0
  2 25  1  6
  3 26  1  0
  3 27  1  0
  5 28  1  0
 12 29  1  0
 14 30  1  0
 14 31  1  0
 15 32  1  0
 15 33  1  0
M  CHG  5   1   1   9   1  11  -1  18  -1  21  -1
M  END
>  <meeko>  (7) 
{"is_sidechain": [false], "free_energy": -7.319, "intermolecular_energy": -10.546, "internal_energy": -0.188}

$$$$
4dld_ligand
     RDKit          3D

 33 33  0  0  0  0  0  0  0  0999 V2000
    2.3520   36.1360  103.8240 N   0  0  0  0  0  0  0  0  0  0  0  0
    1.4350   35.3730  102.9160 C   0  0  1  0  0  0  0  0  0  0  0  0
    1.3390   36.0440  101.5340 C   0  0  0  0  0  0  0  0  0  0  0  0
   -0.0770   36.0950  100.9660 C   0  0  0  0  0  0  0  0  0  0  0  0
   -0.3850   35.1450   99.9610 C   0  0  0  0  0  0  0  0  0  0  0  0
   -1.6490   35.0790   99.3710 C   0  0  0  0  0  0  0  0  0  0  0  0
   -1.9060   33.9080   98.1300 Cl  0  0  0  0  0  0  0  0  0  0  0  0
   -2.6170   35.9800   99.7890 C   0  0  0  0  0  0  0  0  0  0  0  0
   -3.9430   35.9560   99.2180 N   0  0  0  0  0  0  0  0  0  0  0  0
   -4.1230   36.5690   98.1580 O   0  0  0  0  0  0  0  0  0  0  0  0
   -4.7990   35.2900   99.8170 O   0  0  0  0  0  0  0  0  0  0  0  0
   -2.3410   36.9560  100.7540 C   0  0  0  0  0  0  0  0  0  0  0  0
   -1.0640   37.0350  101.3460 C   0  0  0  0  0  0  0  0  0  0  0  0
   -0.8580   38.1430  102.3660 C   0  0  0  0  0  0  0  0  0  0  0  0
   -0.2330   39.4090  101.7820 C   0  0  0  0  0  0  0  0  0  0  0  0
    1.2080   39.4310  102.2140 C   0  0  0  0  0  0  0  0  0  0  0  0
    1.4640   39.0530  103.3960 O   0  0  0  0  0  0  0  0  0  0  0  0
    2.0460   39.9680  101.4330 O   0  0  0  0  0  0  0  0  0  0  0  0
    1.8430   33.8730  102.8330 C   0  0  0  0  0  0  0  0  0  0  0  0
    3.0700   33.6060  102.8940 O   0  0  0  0  0  0  0  0  0  0  0  0
    0.8350   33.1140  102.6690 O   0  0  0  0  0  0  0  0  0  0  0  0
    3.3590   36.1160  103.5550 H   0  0  0  0  0  0  0  0  0  0  0  0
    2.3960   35.7550  104.7950 H   0  0  0  0  0  0  0  0  0  0  0  0
    1.9790   37.0910  103.9040 H   0  0  0  0  0  0  0  0  0  0  0  0
    0.4231   35.3963  103.3468 H   0  0  0  0  0  0  0  0  0  0  0  0
    1.7134   37.0745  101.6230 H   0  0  0  0  0  0  0  0  0  0  0  0
    1.9380   35.4342  100.8417 H   0  0  0  0  0  0  0  0  0  0  0  0
    0.3938   34.4393   99.6362 H   0  0  0  0  0  0  0  0  0  0  0  0
   -3.1261   37.6663  101.0524 H   0  0  0  0  0  0  0  0  0  0  0  0
   -1.8360   38.4053  102.7957 H   0  0  0  0  0  0  0  0  0  0  0  0
   -0.1567   37.7578  103.1209 H   0  0  0  0  0  0  0  0  0  0  0  0
   -0.2975   39.3897  100.6841 H   0  0  0  0  0  0  0  0  0  0  0  0
   -0.7617   40.3060  102.1367 H   0  0  0  0  0  0  0  0  0  0  0  0
  1  2  1  0
  2  3  1  0
  3  4  1  0
  4  5  2  0
  5  6  1  0
  6  7  1  0
  6  8  2  0
  8  9  1  0
  9 10  2  0
  9 11  1  0
  8 12  1  0
 12 13  2  0
 13 14  1  0
 14 15  1  0
 15 16  1  0
 16 17  2  0
 16 18  1  0
  2 19  1  0
 19 20  2  0
 19 21  1  0
 13  4  1  0
  1 22  1  0
  1 23  1  0
  1 24  1  0
  2 25  1  1
  3 26  1  0
  3 27  1  0
  5 28  1  0
 12 29  1  0
 14 30  1  0
 14 31  1  0
 15 32  1  0
 15 33  1  0
M  CHG  5   1   1   9   1  11  -1  18  -1  21  -1
M  END
>  <meeko>  (8) 
{"is_sidechain": [false], "free_energy": -7.151, "intermolecular_energy": -9.434, "internal_energy": -1.058}

$$$$
4dld_ligand
     RDKit          3D

 33 33  0  0  0  0  0  0  0  0999 V2000
    3.6540   32.9300  103.0920 N   0  0  0  0  0  0  0  0  0  0  0  0
    2.6240   33.8960  102.5900 C   0  0  1  0  0  0  0  0  0  0  0  0
    1.2070   33.3040  102.7080 C   0  0  0  0  0  0  0  0  0  0  0  0
    0.1400   34.0970  101.9570 C   0  0  0  0  0  0  0  0  0  0  0  0
    0.4940   34.5580  100.6650 C   0  0  0  0  0  0  0  0  0  0  0  0
   -0.3960   35.2840   99.8700 C   0  0  0  0  0  0  0  0  0  0  0  0
    0.1490   35.8290   98.3270 Cl  0  0  0  0  0  0  0  0  0  0  0  0
   -1.6580   35.5560  100.3790 C   0  0  0  0  0  0  0  0  0  0  0  0
   -2.6230   36.2970   99.6010 N   0  0  0  0  0  0  0  0  0  0  0  0
   -2.8060   37.4860   99.8960 O   0  0  0  0  0  0  0  0  0  0  0  0
   -3.1730   35.6950   98.6690 O   0  0  0  0  0  0  0  0  0  0  0  0
   -2.0320   35.1480  101.6650 C   0  0  0  0  0  0  0  0  0  0  0  0
   -1.1350   34.4250  102.4760 C   0  0  0  0  0  0  0  0  0  0  0  0
   -1.6280   34.0480  103.8630 C   0  0  0  0  0  0  0  0  0  0  0  0
   -2.7660   34.9310  104.3730 C   0  0  0  0  0  0  0  0  0  0  0  0
   -4.0270   34.1140  104.3000 C   0  0  0  0  0  0  0  0  0  0  0  0
   -4.8510   34.4030  103.3820 O   0  0  0  0  0  0  0  0  0  0  0  0
   -4.2570   33.3040  105.2450 O   0  0  0  0  0  0  0  0  0  0  0  0
    2.7610   35.2810  103.2880 C   0  0  0  0  0  0  0  0  0  0  0  0
    2.9710   36.2770  102.5500 O   0  0  0  0  0  0  0  0  0  0  0  0
    2.6760   35.1870  104.5530 O   0  0  0  0  0  0  0  0  0  0  0  0
    3.9240   33.0490  104.0910 H   0  0  0  0  0  0  0  0  0  0  0  0
    4.5830   33.0220  102.6220 H   0  0  0  0  0  0  0  0  0  0  0  0
    3.3160   31.9820  102.8800 H   0  0  0  0  0  0  0  0  0  0  0  0
    2.8043   34.0696  101.5189 H   0  0  0  0  0  0  0  0  0  0  0  0
    1.2248   32.2804  102.3057 H   0  0  0  0  0  0  0  0  0  0  0  0
    0.9362   33.3346  103.7737 H   0  0  0  0  0  0  0  0  0  0  0  0
    1.4993   34.3378  100.2765 H   0  0  0  0  0  0  0  0  0  0  0  0
   -3.0344   35.3939  102.0453 H   0  0  0  0  0  0  0  0  0  0  0  0
   -1.9826   33.0071  103.8342 H   0  0  0  0  0  0  0  0  0  0  0  0
   -0.7819   34.1850  104.5525 H   0  0  0  0  0  0  0  0  0  0  0  0
   -2.5720   35.2333  105.4127 H   0  0  0  0  0  0  0  0  0  0  0  0
   -2.8554   35.8438  103.7657 H   0  0  0  0  0  0  0  0  0  0  0  0
  1  2  1  0
  2  3  1  0
  3  4  1  0
  4  5  2  0
  5  6  1  0
  6  7  1  0
  6  8  2  0
  8  9  1  0
  9 10  2  0
  9 11  1  0
  8 12  1  0
 12 13  2  0
 13 14  1  0
 14 15  1  0
 15 16  1  0
 16 17  2  0
 16 18  1  0
  2 19  1  0
 19 20  2  0
 19 21  1  0
 13  4  1  0
  1 22  1  0
  1 23  1  0
  1 24  1  0
  2 25  1  6
  3 26  1  0
  3 27  1  0
  5 28  1  0
 12 29  1  0
 14 30  1  0
 14 31  1  0
 15 32  1  0
 15 33  1  0
M  CHG  5   1   1   9   1  11  -1  18  -1  21  -1
M  END
>  <meeko>  (9) 
{"is_sidechain": [false], "free_energy": -6.824, "intermolecular_energy": -9.443, "internal_energy": -0.579}

$$$$
