3wtj_ligand
     RDKit          3D

 25 26  0  0  0  0  0  0  0  0999 V2000
   30.7780  -31.1260  -26.3500 N   0  0  0  0  0  0  0  0  0  0  0  0
   30.5860  -30.0390  -26.7040 C   0  0  0  0  0  0  0  0  0  0  0  0
   30.3260  -28.7980  -27.1290 N   0  0  0  0  0  0  0  0  0  0  0  0
   31.2220  -27.8780  -27.0050 C   0  0  0  0  0  0  0  0  0  0  0  0
   32.8300  -28.0990  -26.3000 S   0  0  0  0  0  0  0  0  0  0  0  0
   33.4040  -26.4820  -26.8930 C   0  0  0  0  0  0  0  0  0  0  0  0
   32.1310  -25.6540  -27.0010 C   0  0  0  0  0  0  0  0  0  0  0  0
   31.0720  -26.5690  -27.4060 N   0  0  0  0  0  0  0  0  0  0  0  0
   29.8100  -26.0180  -27.8680 C   0  0  0  0  0  0  0  0  0  0  0  0
   29.8530  -25.7910  -29.3560 C   0  0  0  0  0  0  0  0  0  0  0  0
   29.6920  -24.5150  -29.9060 C   0  0  0  0  0  0  0  0  0  0  0  0
   29.7320  -24.3470  -31.2870 C   0  0  0  0  0  0  0  0  0  0  0  0
   29.9320  -25.4710  -32.0700 C   0  0  0  0  0  0  0  0  0  0  0  0
   29.9900  -25.3550  -33.7780 Cl  0  0  0  0  0  0  0  0  0  0  0  0
   30.0940  -26.7180  -31.5840 N   0  0  0  0  0  0  0  0  0  0  0  0
   30.0530  -26.8480  -30.2400 C   0  0  0  0  0  0  0  0  0  0  0  0
   34.1048  -26.0293  -26.1762 H   0  0  0  0  0  0  0  0  0  0  0  0
   33.9461  -26.5501  -27.8477 H   0  0  0  0  0  0  0  0  0  0  0  0
   31.8895  -25.2007  -26.0283 H   0  0  0  0  0  0  0  0  0  0  0  0
   32.2495  -24.8376  -27.7287 H   0  0  0  0  0  0  0  0  0  0  0  0
   28.9984  -26.7218  -27.6315 H   0  0  0  0  0  0  0  0  0  0  0  0
   29.6333  -25.0563  -27.3641 H   0  0  0  0  0  0  0  0  0  0  0  0
   29.5343  -23.6470  -29.2490 H   0  0  0  0  0  0  0  0  0  0  0  0
   29.6087  -23.3530  -31.7417 H   0  0  0  0  0  0  0  0  0  0  0  0
   30.1863  -27.8544  -29.8164 H   0  0  0  0  0  0  0  0  0  0  0  0
  1  2  3  0
  2  3  1  0
  3  4  2  0
  4  5  1  0
  5  6  1  0
  6  7  1  0
  7  8  1  0
  8  9  1  0
  9 10  1  0
 10 11  2  0
 11 12  1  0
 12 13  2  0
 13 14  1  0
 13 15  1  0
 15 16  2  0
  8  4  1  0
 16 10  1  0
  6 17  1  0
  6 18  1  0
  7 19  1  0
  7 20  1  0
  9 21  1  0
  9 22  1  0
 11 23  1  0
 12 24  1  0
 16 25  1  0
M  END
>  <meeko>  (1) 
{"is_sidechain": [false], "free_energy": -7.068, "intermolecular_energy": -7.894, "internal_energy": -0.295}

$$$$
3wtj_ligand
     RDKit          3D

 25 26  0  0  0  0  0  0  0  0999 V2000
   29.6070  -21.8770  -32.2860 N   0  0  0  0  0  0  0  0  0  0  0  0
   29.4470  -22.9070  -31.7800 C   0  0  0  0  0  0  0  0  0  0  0  0
   29.2550  -24.0750  -31.1590 N   0  0  0  0  0  0  0  0  0  0  0  0
   29.4500  -25.1800  -31.7980 C   0  0  0  0  0  0  0  0  0  0  0  0
   29.9690  -25.3130  -33.4850 S   0  0  0  0  0  0  0  0  0  0  0  0
   30.3040  -27.0900  -33.3290 C   0  0  0  0  0  0  0  0  0  0  0  0
   29.3760  -27.5450  -32.2120 C   0  0  0  0  0  0  0  0  0  0  0  0
   29.2890  -26.4400  -31.2660 N   0  0  0  0  0  0  0  0  0  0  0  0
   28.7080  -26.6830  -29.9580 C   0  0  0  0  0  0  0  0  0  0  0  0
   29.7700  -26.6070  -28.8930 C   0  0  0  0  0  0  0  0  0  0  0  0
   29.7130  -25.6550  -27.8690 C   0  0  0  0  0  0  0  0  0  0  0  0
   30.7170  -25.6130  -26.9070 C   0  0  0  0  0  0  0  0  0  0  0  0
   31.7470  -26.5320  -27.0060 C   0  0  0  0  0  0  0  0  0  0  0  0
   33.0260  -26.5490  -25.8660 Cl  0  0  0  0  0  0  0  0  0  0  0  0
   31.8410  -27.4680  -27.9730 N   0  0  0  0  0  0  0  0  0  0  0  0
   30.8500  -27.4850  -28.8900 C   0  0  0  0  0  0  0  0  0  0  0  0
   30.0725  -27.6150  -34.2675 H   0  0  0  0  0  0  0  0  0  0  0  0
   31.3613  -27.3033  -33.1132 H   0  0  0  0  0  0  0  0  0  0  0  0
   28.3800  -27.7770  -32.6171 H   0  0  0  0  0  0  0  0  0  0  0  0
   29.7579  -28.4545  -31.7252 H   0  0  0  0  0  0  0  0  0  0  0  0
   27.9370  -25.9247  -29.7567 H   0  0  0  0  0  0  0  0  0  0  0  0
   28.2600  -27.6876  -29.9461 H   0  0  0  0  0  0  0  0  0  0  0  0
   28.8767  -24.9419  -27.8248 H   0  0  0  0  0  0  0  0  0  0  0  0
   30.6930  -24.8729  -26.0936 H   0  0  0  0  0  0  0  0  0  0  0  0
   30.8994  -28.2420  -29.6865 H   0  0  0  0  0  0  0  0  0  0  0  0
  1  2  3  0
  2  3  1  0
  3  4  2  0
  4  5  1  0
  5  6  1  0
  6  7  1  0
  7  8  1  0
  8  9  1  0
  9 10  1  0
 10 11  2  0
 11 12  1  0
 12 13  2  0
 13 14  1  0
 13 15  1  0
 15 16  2  0
  8  4  1  0
 16 10  1  0
  6 17  1  0
  6 18  1  0
  7 19  1  0
  7 20  1  0
  9 21  1  0
  9 22  1  0
 11 23  1  0
 12 24  1  0
 16 25  1  0
M  END
>  <meeko>  (2) 
{"is_sidechain": [false], "free_energy": -6.509, "intermolecular_energy": -7.305, "internal_energy": -0.26}

$$$$
3wtj_ligand
     RDKit          3D

 25 26  0  0  0  0  0  0  0  0999 V2000
   29.5870  -28.9710  -33.7780 N   0  0  0  0  0  0  0  0  0  0  0  0
   29.3590  -28.3870  -32.8030 C   0  0  0  0  0  0  0  0  0  0  0  0
   29.0790  -27.7480  -31.6630 N   0  0  0  0  0  0  0  0  0  0  0  0
   29.3450  -26.4900  -31.5510 C   0  0  0  0  0  0  0  0  0  0  0  0
   30.0730  -25.4790  -32.8080 S   0  0  0  0  0  0  0  0  0  0  0  0
   29.7000  -23.9470  -31.9080 C   0  0  0  0  0  0  0  0  0  0  0  0
   29.6490  -24.3770  -30.4490 C   0  0  0  0  0  0  0  0  0  0  0  0
   29.0990  -25.7260  -30.4310 N   0  0  0  0  0  0  0  0  0  0  0  0
   28.6640  -26.2880  -29.1650 C   0  0  0  0  0  0  0  0  0  0  0  0
   29.8430  -26.4860  -28.2490 C   0  0  0  0  0  0  0  0  0  0  0  0
   29.9820  -25.7480  -27.0670 C   0  0  0  0  0  0  0  0  0  0  0  0
   31.0890  -25.9550  -26.2500 C   0  0  0  0  0  0  0  0  0  0  0  0
   32.0200  -26.8980  -26.6480 C   0  0  0  0  0  0  0  0  0  0  0  0
   33.4150  -27.2130  -25.7040 Cl  0  0  0  0  0  0  0  0  0  0  0  0
   31.9260  -27.6320  -27.7750 N   0  0  0  0  0  0  0  0  0  0  0  0
   30.8390  -27.4100  -28.5470 C   0  0  0  0  0  0  0  0  0  0  0  0
   30.4901  -23.1983  -32.0671 H   0  0  0  0  0  0  0  0  0  0  0  0
   28.7632  -23.4779  -32.2430 H   0  0  0  0  0  0  0  0  0  0  0  0
   30.6606  -24.3739  -30.0169 H   0  0  0  0  0  0  0  0  0  0  0  0
   29.0305  -23.6887  -29.8542 H   0  0  0  0  0  0  0  0  0  0  0  0
   27.9469  -25.6019  -28.6906 H   0  0  0  0  0  0  0  0  0  0  0  0
   28.1872  -27.2618  -29.3505 H   0  0  0  0  0  0  0  0  0  0  0  0
   29.2189  -25.0075  -26.7855 H   0  0  0  0  0  0  0  0  0  0  0  0
   31.2199  -25.3869  -25.3172 H   0  0  0  0  0  0  0  0  0  0  0  0
   30.7353  -27.9981  -29.4708 H   0  0  0  0  0  0  0  0  0  0  0  0
  1  2  3  0
  2  3  1  0
  3  4  2  0
  4  5  1  0
  5  6  1  0
  6  7  1  0
  7  8  1  0
  8  9  1  0
  9 10  1  0
 10 11  2  0
 11 12  1  0
 12 13  2  0
 13 14  1  0
 13 15  1  0
 15 16  2  0
  8  4  1  0
 16 10  1  0
  6 17  1  0
  6 18  1  0
  7 19  1  0
  7 20  1  0
  9 21  1  0
  9 22  1  0
 11 23  1  0
 12 24  1  0
 16 25  1  0
M  END
>  <meeko>  (3) 
{"is_sidechain": [false], "free_energy": -6.191, "intermolecular_energy": -6.986, "internal_energy": -0.223}

$$$$
3wtj_ligand
     RDKit          3D

 25 26  0  0  0  0  0  0  0  0999 V2000
   33.9740  -27.7200  -26.1500 N   0  0  0  0  0  0  0  0  0  0  0  0
   33.2180  -27.5250  -27.0070 C   0  0  0  0  0  0  0  0  0  0  0  0
   32.3750  -27.3140  -28.0220 N   0  0  0  0  0  0  0  0  0  0  0  0
   31.2390  -26.7420  -27.8030 C   0  0  0  0  0  0  0  0  0  0  0  0
   30.6570  -26.1820  -26.2280 S   0  0  0  0  0  0  0  0  0  0  0  0
   29.2810  -25.2600  -26.9700 C   0  0  0  0  0  0  0  0  0  0  0  0
   29.0050  -25.9930  -28.2750 C   0  0  0  0  0  0  0  0  0  0  0  0
   30.2920  -26.4690  -28.7660 N   0  0  0  0  0  0  0  0  0  0  0  0
   30.3850  -26.9520  -30.1320 C   0  0  0  0  0  0  0  0  0  0  0  0
   29.9830  -25.8680  -31.0970 C   0  0  0  0  0  0  0  0  0  0  0  0
   29.6950  -26.1520  -32.4370 C   0  0  0  0  0  0  0  0  0  0  0  0
   29.3330  -25.1210  -33.3000 C   0  0  0  0  0  0  0  0  0  0  0  0
   29.2740  -23.8380  -32.7850 C   0  0  0  0  0  0  0  0  0  0  0  0
   28.8410  -22.5110  -33.7780 Cl  0  0  0  0  0  0  0  0  0  0  0  0
   29.5400  -23.5190  -31.5030 N   0  0  0  0  0  0  0  0  0  0  0  0
   29.8860  -24.5410  -30.6900 C   0  0  0  0  0  0  0  0  0  0  0  0
   28.3976  -25.2824  -26.3150 H   0  0  0  0  0  0  0  0  0  0  0  0
   29.5191  -24.1973  -27.1245 H   0  0  0  0  0  0  0  0  0  0  0  0
   28.3289  -26.8423  -28.0975 H   0  0  0  0  0  0  0  0  0  0  0  0
   28.5217  -25.3299  -29.0077 H   0  0  0  0  0  0  0  0  0  0  0  0
   31.4213  -27.2568  -30.3396 H   0  0  0  0  0  0  0  0  0  0  0  0
   29.7084  -27.8105  -30.2553 H   0  0  0  0  0  0  0  0  0  0  0  0
   29.7544  -27.1862  -32.8070 H   0  0  0  0  0  0  0  0  0  0  0  0
   29.1015  -25.3199  -34.3568 H   0  0  0  0  0  0  0  0  0  0  0  0
   30.1054  -24.3089  -29.6374 H   0  0  0  0  0  0  0  0  0  0  0  0
  1  2  3  0
  2  3  1  0
  3  4  2  0
  4  5  1  0
  5  6  1  0
  6  7  1  0
  7  8  1  0
  8  9  1  0
  9 10  1  0
 10 11  2  0
 11 12  1  0
 12 13  2  0
 13 14  1  0
 13 15  1  0
 15 16  2  0
  8  4  1  0
 16 10  1  0
  6 17  1  0
  6 18  1  0
  7 19  1  0
  7 20  1  0
  9 21  1  0
  9 22  1  0
 11 23  1  0
 12 24  1  0
 16 25  1  0
M  END
>  <meeko>  (4) 
{"is_sidechain": [false], "free_energy": -5.008, "intermolecular_energy": -6.191, "internal_energy": 0.303}

$$$$
3wtj_ligand
     RDKit          3D

 25 26  0  0  0  0  0  0  0  0999 V2000
   34.3450  -27.0590  -27.0640 N   0  0  0  0  0  0  0  0  0  0  0  0
   33.3060  -26.5830  -27.2590 C   0  0  0  0  0  0  0  0  0  0  0  0
   32.1280  -26.0000  -27.5030 N   0  0  0  0  0  0  0  0  0  0  0  0
   31.0420  -26.5450  -27.0680 C   0  0  0  0  0  0  0  0  0  0  0  0
   30.9480  -28.0500  -26.1400 S   0  0  0  0  0  0  0  0  0  0  0  0
   29.2060  -27.7740  -25.7110 C   0  0  0  0  0  0  0  0  0  0  0  0
   28.6770  -26.9070  -26.8460 C   0  0  0  0  0  0  0  0  0  0  0  0
   29.7740  -26.0390  -27.2520 N   0  0  0  0  0  0  0  0  0  0  0  0
   29.4880  -24.9070  -28.1160 C   0  0  0  0  0  0  0  0  0  0  0  0
   29.7050  -25.2820  -29.5580 C   0  0  0  0  0  0  0  0  0  0  0  0
   29.7570  -24.3120  -30.5650 C   0  0  0  0  0  0  0  0  0  0  0  0
   29.9530  -24.7000  -31.8880 C   0  0  0  0  0  0  0  0  0  0  0  0
   30.0920  -26.0510  -32.1520 C   0  0  0  0  0  0  0  0  0  0  0  0
   30.3330  -26.6150  -33.7520 Cl  0  0  0  0  0  0  0  0  0  0  0  0
   30.0520  -27.0190  -31.2140 N   0  0  0  0  0  0  0  0  0  0  0  0
   29.8620  -26.6110  -29.9400 C   0  0  0  0  0  0  0  0  0  0  0  0
   28.6602  -28.7278  -25.6611 H   0  0  0  0  0  0  0  0  0  0  0  0
   29.0837  -27.3005  -24.7257 H   0  0  0  0  0  0  0  0  0  0  0  0
   28.3599  -27.5378  -27.6895 H   0  0  0  0  0  0  0  0  0  0  0  0
   27.8047  -26.3197  -26.5234 H   0  0  0  0  0  0  0  0  0  0  0  0
   28.4417  -24.5981  -27.9749 H   0  0  0  0  0  0  0  0  0  0  0  0
   30.1638  -24.0789  -27.8561 H   0  0  0  0  0  0  0  0  0  0  0  0
   29.6435  -23.2474  -30.3127 H   0  0  0  0  0  0  0  0  0  0  0  0
   29.9959  -23.9562  -32.6972 H   0  0  0  0  0  0  0  0  0  0  0  0
   29.8293  -27.3793  -29.1535 H   0  0  0  0  0  0  0  0  0  0  0  0
  1  2  3  0
  2  3  1  0
  3  4  2  0
  4  5  1  0
  5  6  1  0
  6  7  1  0
  7  8  1  0
  8  9  1  0
  9 10  1  0
 10 11  2  0
 11 12  1  0
 12 13  2  0
 13 14  1  0
 13 15  1  0
 15 16  2  0
  8  4  1  0
 16 10  1  0
  6 17  1  0
  6 18  1  0
  7 19  1  0
  7 20  1  0
  9 21  1  0
  9 22  1  0
 11 23  1  0
 12 24  1  0
 16 25  1  0
M  END
>  <meeko>  (5) 
{"is_sidechain": [false], "free_energy": -4.932, "intermolecular_energy": -6.326, "internal_energy": 0.523}

$$$$
