4k77_ligand
     RDKit          3D

 34 36  0  0  0  0  0  0  0  0999 V2000
   19.0820   19.9300    7.3080 O   0  0  0  0  0  0  0  0  0  0  0  0
   19.9840   19.3170    6.7470 C   0  0  0  0  0  0  0  0  0  0  0  0
   21.3090   19.6260    7.0000 N   0  0  0  0  0  0  0  0  0  0  0  0
   22.3740   18.9880    6.4270 C   0  0  0  0  0  0  0  0  0  0  0  0
   22.1980   18.0030    5.5400 C   0  0  0  0  0  0  0  0  0  0  0  0
   20.8350   17.6000    5.1710 C   0  0  0  0  0  0  0  0  0  0  0  0
   20.5260   16.5990    4.2520 C   0  0  0  0  0  0  0  0  0  0  0  0
   21.5730   15.9270    3.5830 N   0  0  0  0  0  0  0  0  0  0  0  0
   21.9360   14.5910    4.0890 C   0  0  0  0  0  0  0  0  0  0  0  0
   21.6830   13.5540    2.9720 C   0  0  0  0  0  0  0  0  0  0  0  0
   22.8910   13.3940    2.0540 C   0  0  0  0  0  0  0  0  0  0  0  0
   24.1190   12.8950    2.8160 C   0  0  0  0  0  0  0  0  0  0  0  0
   24.0980   13.2530    4.3010 C   0  0  0  0  0  0  0  0  0  0  0  0
   23.4100   14.5900    4.5490 C   0  0  0  0  0  0  0  0  0  0  0  0
   19.2510   16.2520    3.9940 N   0  0  0  0  0  0  0  0  0  0  0  0
   18.2770   16.9150    4.6370 C   0  0  0  0  0  0  0  0  0  0  0  0
   18.4490   17.9000    5.5150 N   0  0  0  0  0  0  0  0  0  0  0  0
   19.7390   18.2150    5.7620 C   0  0  0  0  0  0  0  0  0  0  0  0
   21.4560   20.3680    7.6750 H   0  0  0  0  0  0  0  0  0  0  0  0
   23.3954   19.2909    6.7010 H   0  0  0  0  0  0  0  0  0  0  0  0
   23.0665   17.4991    5.0907 H   0  0  0  0  0  0  0  0  0  0  0  0
   21.3340   15.9010    2.5940 H   0  0  0  0  0  0  0  0  0  0  0  0
   21.3188   14.3252    4.9598 H   0  0  0  0  0  0  0  0  0  0  0  0
   21.4578   12.5818    3.4348 H   0  0  0  0  0  0  0  0  0  0  0  0
   20.8393   13.9107    2.3630 H   0  0  0  0  0  0  0  0  0  0  0  0
   22.6441   12.6705    1.2630 H   0  0  0  0  0  0  0  0  0  0  0  0
   23.1297   14.3792    1.6270 H   0  0  0  0  0  0  0  0  0  0  0  0
   24.1667   11.8001    2.7219 H   0  0  0  0  0  0  0  0  0  0  0  0
   24.9976   13.3887    2.3752 H   0  0  0  0  0  0  0  0  0  0  0  0
   23.5581   12.4671    4.8495 H   0  0  0  0  0  0  0  0  0  0  0  0
   25.1384   13.3330    4.6491 H   0  0  0  0  0  0  0  0  0  0  0  0
   23.4434   14.8094    5.6264 H   0  0  0  0  0  0  0  0  0  0  0  0
   23.9432   15.3538    3.9639 H   0  0  0  0  0  0  0  0  0  0  0  0
   17.2412   16.6166    4.4180 H   0  0  0  0  0  0  0  0  0  0  0  0
  1  2  2  0
  2  3  1  0
  3  4  1  0
  4  5  2  0
  5  6  1  0
  6  7  2  0
  7  8  1  0
  8  9  1  0
  9 10  1  0
 10 11  1  0
 11 12  1  0
 12 13  1  0
 13 14  1  0
  7 15  1  0
 15 16  2  0
 16 17  1  0
 17 18  2  0
 18  2  1  0
 18  6  1  0
 14  9  1  0
  3 19  1  0
  4 20  1  0
  5 21  1  0
  8 22  1  0
  9 23  1  0
 10 24  1  0
 10 25  1  0
 11 26  1  0
 11 27  1  0
 12 28  1  0
 12 29  1  0
 13 30  1  0
 13 31  1  0
 14 32  1  0
 14 33  1  0
 16 34  1  0
M  END
>  <meeko>  (1) 
{"is_sidechain": [false], "free_energy": -7.714, "intermolecular_energy": -8.616, "internal_energy": -0.433}

$$$$
4k77_ligand
     RDKit          3D

 34 36  0  0  0  0  0  0  0  0999 V2000
   15.4360   15.8900    5.0640 O   0  0  0  0  0  0  0  0  0  0  0  0
   16.4610   15.2190    5.0110 C   0  0  0  0  0  0  0  0  0  0  0  0
   16.3970   13.8380    4.9520 N   0  0  0  0  0  0  0  0  0  0  0  0
   17.4870   13.0160    4.8800 C   0  0  0  0  0  0  0  0  0  0  0  0
   18.7300   13.5100    4.8800 C   0  0  0  0  0  0  0  0  0  0  0  0
   18.9290   14.9620    4.9630 C   0  0  0  0  0  0  0  0  0  0  0  0
   20.1710   15.5920    4.9840 C   0  0  0  0  0  0  0  0  0  0  0  0
   21.3450   14.8070    4.9600 N   0  0  0  0  0  0  0  0  0  0  0  0
   22.2180   14.9500    3.7810 C   0  0  0  0  0  0  0  0  0  0  0  0
   23.6850   14.7540    4.2240 C   0  0  0  0  0  0  0  0  0  0  0  0
   24.1010   13.2860    4.1950 C   0  0  0  0  0  0  0  0  0  0  0  0
   24.0090   12.7000    2.7860 C   0  0  0  0  0  0  0  0  0  0  0  0
   22.9940   13.4150    1.8960 C   0  0  0  0  0  0  0  0  0  0  0  0
   21.8050   13.9290    2.6980 C   0  0  0  0  0  0  0  0  0  0  0  0
   20.2780   16.9340    5.0160 N   0  0  0  0  0  0  0  0  0  0  0  0
   19.1460   17.6540    5.0470 C   0  0  0  0  0  0  0  0  0  0  0  0
   17.9090   17.1650    5.0550 N   0  0  0  0  0  0  0  0  0  0  0  0
   17.8350   15.8170    5.0080 C   0  0  0  0  0  0  0  0  0  0  0  0
   15.4590   13.4510    4.9470 H   0  0  0  0  0  0  0  0  0  0  0  0
   17.3390   11.9276    4.8209 H   0  0  0  0  0  0  0  0  0  0  0  0
   19.5956   12.8340    4.8183 H   0  0  0  0  0  0  0  0  0  0  0  0
   21.8500   14.9900    5.8240 H   0  0  0  0  0  0  0  0  0  0  0  0
   22.1160   15.9541    3.3436 H   0  0  0  0  0  0  0  0  0  0  0  0
   24.3393   15.3218    3.5461 H   0  0  0  0  0  0  0  0  0  0  0  0
   23.7773   15.1123    5.2599 H   0  0  0  0  0  0  0  0  0  0  0  0
   25.1393   13.2026    4.5487 H   0  0  0  0  0  0  0  0  0  0  0  0
   23.4164   12.7226    4.8461 H   0  0  0  0  0  0  0  0  0  0  0  0
   24.9994   12.7725    2.3130 H   0  0  0  0  0  0  0  0  0  0  0  0
   23.6725   11.6578    2.8894 H   0  0  0  0  0  0  0  0  0  0  0  0
   23.4878   14.2666    1.4051 H   0  0  0  0  0  0  0  0  0  0  0  0
   22.6210   12.6941    1.1536 H   0  0  0  0  0  0  0  0  0  0  0  0
   21.0974   14.4129    2.0087 H   0  0  0  0  0  0  0  0  0  0  0  0
   21.3487   13.0677    3.2078 H   0  0  0  0  0  0  0  0  0  0  0  0
   19.2506   18.7488    5.0677 H   0  0  0  0  0  0  0  0  0  0  0  0
  1  2  2  0
  2  3  1  0
  3  4  1  0
  4  5  2  0
  5  6  1  0
  6  7  2  0
  7  8  1  0
  8  9  1  0
  9 10  1  0
 10 11  1  0
 11 12  1  0
 12 13  1  0
 13 14  1  0
  7 15  1  0
 15 16  2  0
 16 17  1  0
 17 18  2  0
 18  2  1  0
 18  6  1  0
 14  9  1  0
  3 19  1  0
  4 20  1  0
  5 21  1  0
  8 22  1  0
  9 23  1  0
 10 24  1  0
 10 25  1  0
 11 26  1  0
 11 27  1  0
 12 28  1  0
 12 29  1  0
 13 30  1  0
 13 31  1  0
 14 32  1  0
 14 33  1  0
 16 34  1  0
M  END
>  <meeko>  (2) 
{"is_sidechain": [false], "free_energy": -7.487, "intermolecular_energy": -8.339, "internal_energy": -0.456}

$$$$
4k77_ligand
     RDKit          3D

 34 36  0  0  0  0  0  0  0  0999 V2000
   18.3430   11.5400    2.4380 O   0  0  0  0  0  0  0  0  0  0  0  0
   18.5120   12.3580    3.3360 C   0  0  0  0  0  0  0  0  0  0  0  0
   17.5860   12.4830    4.3560 N   0  0  0  0  0  0  0  0  0  0  0  0
   17.7000   13.3590    5.4000 C   0  0  0  0  0  0  0  0  0  0  0  0
   18.7410   14.1940    5.4950 C   0  0  0  0  0  0  0  0  0  0  0  0
   19.7800   14.1720    4.4570 C   0  0  0  0  0  0  0  0  0  0  0  0
   20.9010   14.9990    4.4400 C   0  0  0  0  0  0  0  0  0  0  0  0
   21.0640   15.9630    5.4600 N   0  0  0  0  0  0  0  0  0  0  0  0
   20.9460   17.3780    5.0640 C   0  0  0  0  0  0  0  0  0  0  0  0
   19.4750   17.6640    4.6850 C   0  0  0  0  0  0  0  0  0  0  0  0
   18.6390   18.0660    5.8960 C   0  0  0  0  0  0  0  0  0  0  0  0
   19.1600   19.3490    6.5440 C   0  0  0  0  0  0  0  0  0  0  0  0
   20.6480   19.5920    6.2970 C   0  0  0  0  0  0  0  0  0  0  0  0
   21.4270   18.2850    6.2180 C   0  0  0  0  0  0  0  0  0  0  0  0
   21.8370   14.8930    3.4780 N   0  0  0  0  0  0  0  0  0  0  0  0
   21.6500   13.9750    2.5180 C   0  0  0  0  0  0  0  0  0  0  0  0
   20.6130   13.1490    2.4180 N   0  0  0  0  0  0  0  0  0  0  0  0
   19.6990   13.2700    3.4040 C   0  0  0  0  0  0  0  0  0  0  0  0
   16.7940   11.8520    4.2990 H   0  0  0  0  0  0  0  0  0  0  0  0
   16.9210   13.3774    6.1764 H   0  0  0  0  0  0  0  0  0  0  0  0
   18.8181   14.8907    6.3428 H   0  0  0  0  0  0  0  0  0  0  0  0
   20.4140   15.7270    6.2070 H   0  0  0  0  0  0  0  0  0  0  0  0
   21.5806   17.5906    4.1910 H   0  0  0  0  0  0  0  0  0  0  0  0
   19.4506   18.4818    3.9497 H   0  0  0  0  0  0  0  0  0  0  0  0
   19.0464   16.7405    4.2686 H   0  0  0  0  0  0  0  0  0  0  0  0
   17.5995   18.2264    5.5739 H   0  0  0  0  0  0  0  0  0  0  0  0
   18.7020   17.2573    6.6390 H   0  0  0  0  0  0  0  0  0  0  0  0
   18.5952   20.2001    6.1359 H   0  0  0  0  0  0  0  0  0  0  0  0
   19.0241   19.2427    7.6304 H   0  0  0  0  0  0  0  0  0  0  0  0
   20.7677   20.1362    5.3486 H   0  0  0  0  0  0  0  0  0  0  0  0
   21.0444   20.1770    7.1400 H   0  0  0  0  0  0  0  0  0  0  0  0
   22.4911   18.5174    6.0639 H   0  0  0  0  0  0  0  0  0  0  0  0
   21.2639   17.7414    7.1603 H   0  0  0  0  0  0  0  0  0  0  0  0
   22.4260   13.8986    1.7421 H   0  0  0  0  0  0  0  0  0  0  0  0
  1  2  2  0
  2  3  1  0
  3  4  1  0
  4  5  2  0
  5  6  1  0
  6  7  2  0
  7  8  1  0
  8  9  1  0
  9 10  1  0
 10 11  1  0
 11 12  1  0
 12 13  1  0
 13 14  1  0
  7 15  1  0
 15 16  2  0
 16 17  1  0
 17 18  2  0
 18  2  1  0
 18  6  1  0
 14  9  1  0
  3 19  1  0
  4 20  1  0
  5 21  1  0
  8 22  1  0
  9 23  1  0
 10 24  1  0
 10 25  1  0
 11 26  1  0
 11 27  1  0
 12 28  1  0
 12 29  1  0
 13 30  1  0
 13 31  1  0
 14 32  1  0
 14 33  1  0
 16 34  1  0
M  END
>  <meeko>  (3) 
{"is_sidechain": [false], "free_energy": -7.449, "intermolecular_energy": -8.257, "internal_energy": -0.495}

$$$$
4k77_ligand
     RDKit          3D

 34 36  0  0  0  0  0  0  0  0999 V2000
   23.5970   12.4040    2.2330 O   0  0  0  0  0  0  0  0  0  0  0  0
   23.3530   13.5320    2.6490 C   0  0  0  0  0  0  0  0  0  0  0  0
   24.3780   14.3760    3.0360 N   0  0  0  0  0  0  0  0  0  0  0  0
   24.1960   15.6500    3.5010 C   0  0  0  0  0  0  0  0  0  0  0  0
   22.9720   16.1720    3.6340 C   0  0  0  0  0  0  0  0  0  0  0  0
   21.8000   15.3620    3.2770 C   0  0  0  0  0  0  0  0  0  0  0  0
   20.4790   15.7910    3.3830 C   0  0  0  0  0  0  0  0  0  0  0  0
   20.2080   17.0780    3.9000 N   0  0  0  0  0  0  0  0  0  0  0  0
   19.9490   17.1730    5.3470 C   0  0  0  0  0  0  0  0  0  0  0  0
   21.0740   18.0080    5.9980 C   0  0  0  0  0  0  0  0  0  0  0  0
   20.7670   19.5020    5.9740 C   0  0  0  0  0  0  0  0  0  0  0  0
   19.4970   19.8320    6.7590 C   0  0  0  0  0  0  0  0  0  0  0  0
   18.5160   18.6630    6.8430 C   0  0  0  0  0  0  0  0  0  0  0  0
   18.5580   17.8000    5.5880 C   0  0  0  0  0  0  0  0  0  0  0  0
   19.4530   15.0090    2.9950 N   0  0  0  0  0  0  0  0  0  0  0  0
   19.7400   13.7890    2.5170 C   0  0  0  0  0  0  0  0  0  0  0  0
   20.9560   13.2640    2.3910 N   0  0  0  0  0  0  0  0  0  0  0  0
   21.9630   14.0770    2.7760 C   0  0  0  0  0  0  0  0  0  0  0  0
   25.3120   13.9940    2.9360 H   0  0  0  0  0  0  0  0  0  0  0  0
   25.0733   16.2564    3.7706 H   0  0  0  0  0  0  0  0  0  0  0  0
   22.8441   17.1988    4.0074 H   0  0  0  0  0  0  0  0  0  0  0  0
   20.9740   17.6860    3.6150 H   0  0  0  0  0  0  0  0  0  0  0  0
   19.9450   16.1733    5.8060 H   0  0  0  0  0  0  0  0  0  0  0  0
   21.1942   17.6873    7.0433 H   0  0  0  0  0  0  0  0  0  0  0  0
   21.9959   17.8423    5.4212 H   0  0  0  0  0  0  0  0  0  0  0  0
   21.6127   20.0467    6.4191 H   0  0  0  0  0  0  0  0  0  0  0  0
   20.6107   19.8028    4.9275 H   0  0  0  0  0  0  0  0  0  0  0  0
   19.7836   20.1211    7.7809 H   0  0  0  0  0  0  0  0  0  0  0  0
   18.9869   20.6471    6.2247 H   0  0  0  0  0  0  0  0  0  0  0  0
   18.7764   18.0410    7.7121 H   0  0  0  0  0  0  0  0  0  0  0  0
   17.5006   19.0742    6.9422 H   0  0  0  0  0  0  0  0  0  0  0  0
   17.8197   16.9912    5.6913 H   0  0  0  0  0  0  0  0  0  0  0  0
   18.3305   18.4483    4.7290 H   0  0  0  0  0  0  0  0  0  0  0  0
   18.8915   13.1649    2.1999 H   0  0  0  0  0  0  0  0  0  0  0  0
  1  2  2  0
  2  3  1  0
  3  4  1  0
  4  5  2  0
  5  6  1  0
  6  7  2  0
  7  8  1  0
  8  9  1  0
  9 10  1  0
 10 11  1  0
 11 12  1  0
 12 13  1  0
 13 14  1  0
  7 15  1  0
 15 16  2  0
 16 17  1  0
 17 18  2  0
 18  2  1  0
 18  6  1  0
 14  9  1  0
  3 19  1  0
  4 20  1  0
  5 21  1  0
  8 22  1  0
  9 23  1  0
 10 24  1  0
 10 25  1  0
 11 26  1  0
 11 27  1  0
 12 28  1  0
 12 29  1  0
 13 30  1  0
 13 31  1  0
 14 32  1  0
 14 33  1  0
 16 34  1  0
M  END
>  <meeko>  (4) 
{"is_sidechain": [false], "free_energy": -7.425, "intermolecular_energy": -8.344, "internal_energy": -0.381}

$$$$
4k77_ligand
     RDKit          3D

 34 36  0  0  0  0  0  0  0  0999 V2000
   18.9510   12.6670    3.8910 O   0  0  0  0  0  0  0  0  0  0  0  0
   17.8500   12.1540    3.7190 C   0  0  0  0  0  0  0  0  0  0  0  0
   16.8590   12.2760    4.6760 N   0  0  0  0  0  0  0  0  0  0  0  0
   15.6030   11.7460    4.5610 C   0  0  0  0  0  0  0  0  0  0  0  0
   15.2460   11.0360    3.4860 C   0  0  0  0  0  0  0  0  0  0  0  0
   16.2210   10.8170    2.4100 C   0  0  0  0  0  0  0  0  0  0  0  0
   15.9710   10.0850    1.2500 C   0  0  0  0  0  0  0  0  0  0  0  0
   14.7120    9.4670    1.0800 N   0  0  0  0  0  0  0  0  0  0  0  0
   14.5110    8.1700    1.7500 C   0  0  0  0  0  0  0  0  0  0  0  0
   13.4840    7.3490    0.9390 C   0  0  0  0  0  0  0  0  0  0  0  0
   14.1470    6.5310   -0.1640 C   0  0  0  0  0  0  0  0  0  0  0  0
   15.1400    5.5150    0.4010 C   0  0  0  0  0  0  0  0  0  0  0  0
   15.7170    5.9210    1.7560 C   0  0  0  0  0  0  0  0  0  0  0  0
   15.8630    7.4330    1.8770 C   0  0  0  0  0  0  0  0  0  0  0  0
   16.9000    9.9620    0.2830 N   0  0  0  0  0  0  0  0  0  0  0  0
   18.0900   10.5520    0.4770 C   0  0  0  0  0  0  0  0  0  0  0  0
   18.4500   11.2530    1.5480 N   0  0  0  0  0  0  0  0  0  0  0  0
   17.4920   11.3700    2.4930 C   0  0  0  0  0  0  0  0  0  0  0  0
   17.1150   12.8170    5.4950 H   0  0  0  0  0  0  0  0  0  0  0  0
   14.8732   11.9071    5.3682 H   0  0  0  0  0  0  0  0  0  0  0  0
   14.2309   10.6195    3.4082 H   0  0  0  0  0  0  0  0  0  0  0  0
   14.0030   10.1440    1.3540 H   0  0  0  0  0  0  0  0  0  0  0  0
   14.1181    8.3154    2.7671 H   0  0  0  0  0  0  0  0  0  0  0  0
   12.9586    6.6646    1.6213 H   0  0  0  0  0  0  0  0  0  0  0  0
   12.7851    8.0538    0.4649 H   0  0  0  0  0  0  0  0  0  0  0  0
   13.3686    5.9937   -0.7256 H   0  0  0  0  0  0  0  0  0  0  0  0
   14.6997    7.2224   -0.8170 H   0  0  0  0  0  0  0  0  0  0  0  0
   14.6244    4.5502    0.5163 H   0  0  0  0  0  0  0  0  0  0  0  0
   15.9809    5.4546   -0.3056 H   0  0  0  0  0  0  0  0  0  0  0  0
   15.0460    5.5630    2.5508 H   0  0  0  0  0  0  0  0  0  0  0  0
   16.7165    5.4716    1.8513 H   0  0  0  0  0  0  0  0  0  0  0  0
   16.3019    7.6676    2.8580 H   0  0  0  0  0  0  0  0  0  0  0  0
   16.5079    7.7735    1.0535 H   0  0  0  0  0  0  0  0  0  0  0  0
   18.8363   10.4458   -0.3241 H   0  0  0  0  0  0  0  0  0  0  0  0
  1  2  2  0
  2  3  1  0
  3  4  1  0
  4  5  2  0
  5  6  1  0
  6  7  2  0
  7  8  1  0
  8  9  1  0
  9 10  1  0
 10 11  1  0
 11 12  1  0
 12 13  1  0
 13 14  1  0
  7 15  1  0
 15 16  2  0
 16 17  1  0
 17 18  2  0
 18  2  1  0
 18  6  1  0
 14  9  1  0
  3 19  1  0
  4 20  1  0
  5 21  1  0
  8 22  1  0
  9 23  1  0
 10 24  1  0
 10 25  1  0
 11 26  1  0
 11 27  1  0
 12 28  1  0
 12 29  1  0
 13 30  1  0
 13 31  1  0
 14 32  1  0
 14 33  1  0
 16 34  1  0
M  END
>  <meeko>  (5) 
{"is_sidechain": [false], "free_energy": -7.295, "intermolecular_energy": -8.548, "internal_energy": -0.032}

$$$$
4k77_ligand
     RDKit          3D

 34 36  0  0  0  0  0  0  0  0999 V2000
   19.1870   19.8090    7.6150 O   0  0  0  0  0  0  0  0  0  0  0  0
   19.2480   18.9360    6.7550 C   0  0  0  0  0  0  0  0  0  0  0  0
   18.1050   18.2870    6.3280 N   0  0  0  0  0  0  0  0  0  0  0  0
   18.0820   17.3110    5.3690 C   0  0  0  0  0  0  0  0  0  0  0  0
   19.2060   16.8960    4.7760 C   0  0  0  0  0  0  0  0  0  0  0  0
   20.4900   17.4940    5.1630 C   0  0  0  0  0  0  0  0  0  0  0  0
   21.7250   17.1360    4.6270 C   0  0  0  0  0  0  0  0  0  0  0  0
   21.7880   16.1030    3.6650 N   0  0  0  0  0  0  0  0  0  0  0  0
   22.0860   14.7480    4.1620 C   0  0  0  0  0  0  0  0  0  0  0  0
   21.6950   13.7240    3.0730 C   0  0  0  0  0  0  0  0  0  0  0  0
   22.8310   13.4740    2.0870 C   0  0  0  0  0  0  0  0  0  0  0  0
   24.0650   12.8950    2.7790 C   0  0  0  0  0  0  0  0  0  0  0  0
   24.1590   13.2630    4.2590 C   0  0  0  0  0  0  0  0  0  0  0  0
   23.5820   14.6460    4.5340 C   0  0  0  0  0  0  0  0  0  0  0  0
   22.8590   17.7600    4.9980 N   0  0  0  0  0  0  0  0  0  0  0  0
   22.7690   18.7300    5.9200 C   0  0  0  0  0  0  0  0  0  0  0  0
   21.6540   19.1410    6.5170 N   0  0  0  0  0  0  0  0  0  0  0  0
   20.5320   18.5060    6.1140 C   0  0  0  0  0  0  0  0  0  0  0  0
   17.2440   18.5960    6.7670 H   0  0  0  0  0  0  0  0  0  0  0  0
   17.1211   16.8597    5.0808 H   0  0  0  0  0  0  0  0  0  0  0  0
   19.1692   16.1129    4.0044 H   0  0  0  0  0  0  0  0  0  0  0  0
   20.9170   16.1260    3.1380 H   0  0  0  0  0  0  0  0  0  0  0  0
   21.5044   14.5318    5.0703 H   0  0  0  0  0  0  0  0  0  0  0  0
   21.4310   12.7730    3.5587 H   0  0  0  0  0  0  0  0  0  0  0  0
   20.8431   14.1351    2.5115 H   0  0  0  0  0  0  0  0  0  0  0  0
   22.4871   12.7647    1.3198 H   0  0  0  0  0  0  0  0  0  0  0  0
   23.1116   14.4375    1.6366 H   0  0  0  0  0  0  0  0  0  0  0  0
   24.0305   11.7989    2.6937 H   0  0  0  0  0  0  0  0  0  0  0  0
   24.9475   13.3231    2.2811 H   0  0  0  0  0  0  0  0  0  0  0  0
   23.6001   12.5202    4.8471 H   0  0  0  0  0  0  0  0  0  0  0  0
   25.2217   13.2723    4.5430 H   0  0  0  0  0  0  0  0  0  0  0  0
   23.6950   14.8687    5.6053 H   0  0  0  0  0  0  0  0  0  0  0  0
   24.1311   15.3671    3.9107 H   0  0  0  0  0  0  0  0  0  0  0  0
   23.7041   19.2320    6.2091 H   0  0  0  0  0  0  0  0  0  0  0  0
  1  2  2  0
  2  3  1  0
  3  4  1  0
  4  5  2  0
  5  6  1  0
  6  7  2  0
  7  8  1  0
  8  9  1  0
  9 10  1  0
 10 11  1  0
 11 12  1  0
 12 13  1  0
 13 14  1  0
  7 15  1  0
 15 16  2  0
 16 17  1  0
 17 18  2  0
 18  2  1  0
 18  6  1  0
 14  9  1  0
  3 19  1  0
  4 20  1  0
  5 21  1  0
  8 22  1  0
  9 23  1  0
 10 24  1  0
 10 25  1  0
 11 26  1  0
 11 27  1  0
 12 28  1  0
 12 29  1  0
 13 30  1  0
 13 31  1  0
 14 32  1  0
 14 33  1  0
 16 34  1  0
M  END
>  <meeko>  (6) 
{"is_sidechain": [false], "free_energy": -7.26, "intermolecular_energy": -8.342, "internal_energy": -0.199}

$$$$
4k77_ligand
     RDKit          3D

 34 36  0  0  0  0  0  0  0  0999 V2000
   15.5060   16.2560    6.8300 O   0  0  0  0  0  0  0  0  0  0  0  0
   16.5620   16.5210    6.2660 C   0  0  0  0  0  0  0  0  0  0  0  0
   17.1110   17.7870    6.3590 N   0  0  0  0  0  0  0  0  0  0  0  0
   18.2870   18.1650    5.7710 C   0  0  0  0  0  0  0  0  0  0  0  0
   18.9970   17.3090    5.0290 C   0  0  0  0  0  0  0  0  0  0  0  0
   18.5040   15.9390    4.8360 C   0  0  0  0  0  0  0  0  0  0  0  0
   19.1470   14.9650    4.0760 C   0  0  0  0  0  0  0  0  0  0  0  0
   20.3430   15.2930    3.4000 N   0  0  0  0  0  0  0  0  0  0  0  0
   21.6010   15.1150    4.1470 C   0  0  0  0  0  0  0  0  0  0  0  0
   22.3340   13.8720    3.5940 C   0  0  0  0  0  0  0  0  0  0  0  0
   23.2340   14.2160    2.4120 C   0  0  0  0  0  0  0  0  0  0  0  0
   24.3310   15.2060    2.8040 C   0  0  0  0  0  0  0  0  0  0  0  0
   23.9570   16.0840    3.9980 C   0  0  0  0  0  0  0  0  0  0  0  0
   22.4650   16.3900    4.0260 C   0  0  0  0  0  0  0  0  0  0  0  0
   18.6590   13.7140    3.9790 N   0  0  0  0  0  0  0  0  0  0  0  0
   17.5160   13.4340    4.6250 C   0  0  0  0  0  0  0  0  0  0  0  0
   16.8040   14.2850    5.3590 N   0  0  0  0  0  0  0  0  0  0  0  0
   17.3270   15.5270    5.4470 C   0  0  0  0  0  0  0  0  0  0  0  0
   16.5850   18.4450    6.9230 H   0  0  0  0  0  0  0  0  0  0  0  0
   18.6551   19.1920    5.9113 H   0  0  0  0  0  0  0  0  0  0  0  0
   19.9428   17.6282    4.5668 H   0  0  0  0  0  0  0  0  0  0  0  0
   20.3500   14.7720    2.5250 H   0  0  0  0  0  0  0  0  0  0  0  0
   21.3969   14.9544    5.2159 H   0  0  0  0  0  0  0  0  0  0  0  0
   22.9506   13.4382    4.3950 H   0  0  0  0  0  0  0  0  0  0  0  0
   21.5738   13.1578    3.2446 H   0  0  0  0  0  0  0  0  0  0  0  0
   23.7032   13.2928    2.0411 H   0  0  0  0  0  0  0  0  0  0  0  0
   22.6131   14.6837    1.6337 H   0  0  0  0  0  0  0  0  0  0  0  0
   25.2382   14.6385    3.0589 H   0  0  0  0  0  0  0  0  0  0  0  0
   24.4872   15.8750    1.9449 H   0  0  0  0  0  0  0  0  0  0  0  0
   24.2311   15.5601    4.9256 H   0  0  0  0  0  0  0  0  0  0  0  0
   24.5009   17.0358    3.9078 H   0  0  0  0  0  0  0  0  0  0  0  0
   22.2547   17.0415    4.8870 H   0  0  0  0  0  0  0  0  0  0  0  0
   22.2066   16.8795    3.0754 H   0  0  0  0  0  0  0  0  0  0  0  0
   17.1329   12.4064    4.5396 H   0  0  0  0  0  0  0  0  0  0  0  0
  1  2  2  0
  2  3  1  0
  3  4  1  0
  4  5  2  0
  5  6  1  0
  6  7  2  0
  7  8  1  0
  8  9  1  0
  9 10  1  0
 10 11  1  0
 11 12  1  0
 12 13  1  0
 13 14  1  0
  7 15  1  0
 15 16  2  0
 16 17  1  0
 17 18  2  0
 18  2  1  0
 18  6  1  0
 14  9  1  0
  3 19  1  0
  4 20  1  0
  5 21  1  0
  8 22  1  0
  9 23  1  0
 10 24  1  0
 10 25  1  0
 11 26  1  0
 11 27  1  0
 12 28  1  0
 12 29  1  0
 13 30  1  0
 13 31  1  0
 14 32  1  0
 14 33  1  0
 16 34  1  0
M  END
>  <meeko>  (7) 
{"is_sidechain": [false], "free_energy": -7.228, "intermolecular_energy": -8.133, "internal_energy": -0.372}

$$$$
4k77_ligand
     RDKit          3D

 34 36  0  0  0  0  0  0  0  0999 V2000
   19.4430   19.9560    9.5010 O   0  0  0  0  0  0  0  0  0  0  0  0
   19.7000   19.5550    8.3710 C   0  0  0  0  0  0  0  0  0  0  0  0
   18.6910   19.3660    7.4440 N   0  0  0  0  0  0  0  0  0  0  0  0
   18.8900   18.9330    6.1620 C   0  0  0  0  0  0  0  0  0  0  0  0
   20.1140   18.6360    5.7130 C   0  0  0  0  0  0  0  0  0  0  0  0
   21.2660   18.7740    6.6120 C   0  0  0  0  0  0  0  0  0  0  0  0
   22.5840   18.4840    6.2640 C   0  0  0  0  0  0  0  0  0  0  0  0
   22.8630   17.9860    4.9710 N   0  0  0  0  0  0  0  0  0  0  0  0
   23.2360   16.5640    4.8720 C   0  0  0  0  0  0  0  0  0  0  0  0
   21.9560   15.7070    4.9880 C   0  0  0  0  0  0  0  0  0  0  0  0
   21.2850   15.4940    3.6350 C   0  0  0  0  0  0  0  0  0  0  0  0
   22.1980   14.7490    2.6600 C   0  0  0  0  0  0  0  0  0  0  0  0
   23.6840   14.9320    2.9620 C   0  0  0  0  0  0  0  0  0  0  0  0
   23.9770   16.3110    3.5400 C   0  0  0  0  0  0  0  0  0  0  0  0
   23.5980   18.6760    7.1280 N   0  0  0  0  0  0  0  0  0  0  0  0
   23.3010   19.1410    8.3510 C   0  0  0  0  0  0  0  0  0  0  0  0
   22.0840   19.4310    8.8030 N   0  0  0  0  0  0  0  0  0  0  0  0
   21.0910   19.2400    7.9090 C   0  0  0  0  0  0  0  0  0  0  0  0
   17.7580   19.5920    7.7710 H   0  0  0  0  0  0  0  0  0  0  0  0
   18.0272   18.8271    5.4879 H   0  0  0  0  0  0  0  0  0  0  0  0
   20.2564   18.2910    4.6782 H   0  0  0  0  0  0  0  0  0  0  0  0
   22.0630   18.2060    4.3820 H   0  0  0  0  0  0  0  0  0  0  0  0
   23.9186   16.2845    5.6880 H   0  0  0  0  0  0  0  0  0  0  0  0
   22.2222   14.7268    5.4104 H   0  0  0  0  0  0  0  0  0  0  0  0
   21.2474   16.2417    5.6376 H   0  0  0  0  0  0  0  0  0  0  0  0
   20.3661   14.9073    3.7816 H   0  0  0  0  0  0  0  0  0  0  0  0
   21.0591   16.4813    3.2058 H   0  0  0  0  0  0  0  0  0  0  0  0
   21.9612   13.6760    2.7108 H   0  0  0  0  0  0  0  0  0  0  0  0
   22.0156   15.1675    1.6592 H   0  0  0  0  0  0  0  0  0  0  0  0
   23.9967   14.1674    3.6884 H   0  0  0  0  0  0  0  0  0  0  0  0
   24.2402   14.8309    2.0184 H   0  0  0  0  0  0  0  0  0  0  0  0
   25.0593   16.3967    3.7166 H   0  0  0  0  0  0  0  0  0  0  0  0
   23.6251   17.0591    2.8145 H   0  0  0  0  0  0  0  0  0  0  0  0
   24.1412   19.2968    9.0437 H   0  0  0  0  0  0  0  0  0  0  0  0
  1  2  2  0
  2  3  1  0
  3  4  1  0
  4  5  2  0
  5  6  1  0
  6  7  2  0
  7  8  1  0
  8  9  1  0
  9 10  1  0
 10 11  1  0
 11 12  1  0
 12 13  1  0
 13 14  1  0
  7 15  1  0
 15 16  2  0
 16 17  1  0
 17 18  2  0
 18  2  1  0
 18  6  1  0
 14  9  1  0
  3 19  1  0
  4 20  1  0
  5 21  1  0
  8 22  1  0
  9 23  1  0
 10 24  1  0
 10 25  1  0
 11 26  1  0
 11 27  1  0
 12 28  1  0
 12 29  1  0
 13 30  1  0
 13 31  1  0
 14 32  1  0
 14 33  1  0
 16 34  1  0
M  END
>  <meeko>  (8) 
{"is_sidechain": [false], "free_energy": -7.199, "intermolecular_energy": -8.037, "internal_energy": -0.436}

$$$$
4k77_ligand
     RDKit          3D

 34 36  0  0  0  0  0  0  0  0999 V2000
   19.8510   15.1070    2.4540 O   0  0  0  0  0  0  0  0  0  0  0  0
   20.7980   15.5090    3.1220 C   0  0  0  0  0  0  0  0  0  0  0  0
   22.0560   14.9560    2.9640 N   0  0  0  0  0  0  0  0  0  0  0  0
   23.1670   15.3510    3.6580 C   0  0  0  0  0  0  0  0  0  0  0  0
   23.1010   16.3180    4.5790 C   0  0  0  0  0  0  0  0  0  0  0  0
   21.8130   16.9670    4.8540 C   0  0  0  0  0  0  0  0  0  0  0  0
   21.6180   17.9740    5.7970 C   0  0  0  0  0  0  0  0  0  0  0  0
   22.7080   18.4030    6.5860 N   0  0  0  0  0  0  0  0  0  0  0  0
   22.7340   17.9500    7.9880 C   0  0  0  0  0  0  0  0  0  0  0  0
   24.1290   17.3620    8.2930 C   0  0  0  0  0  0  0  0  0  0  0  0
   25.1140   18.4310    8.7540 C   0  0  0  0  0  0  0  0  0  0  0  0
   24.6550   19.1050   10.0480 C   0  0  0  0  0  0  0  0  0  0  0  0
   23.1410   19.0600   10.2500 C   0  0  0  0  0  0  0  0  0  0  0  0
   22.3930   19.1310    8.9240 C   0  0  0  0  0  0  0  0  0  0  0  0
   20.4150   18.5550    5.9650 N   0  0  0  0  0  0  0  0  0  0  0  0
   19.3960   18.1210    5.2080 C   0  0  0  0  0  0  0  0  0  0  0  0
   19.4570   17.1540    4.2960 N   0  0  0  0  0  0  0  0  0  0  0  0
   20.6790   16.6010    4.1410 C   0  0  0  0  0  0  0  0  0  0  0  0
   22.1200   14.2250    2.2640 H   0  0  0  0  0  0  0  0  0  0  0  0
   24.1322   14.8641    3.4545 H   0  0  0  0  0  0  0  0  0  0  0  0
   24.0045   16.6249    5.1263 H   0  0  0  0  0  0  0  0  0  0  0  0
   23.5600   18.1440    6.0930 H   0  0  0  0  0  0  0  0  0  0  0  0
   21.9802   17.1667    8.1559 H   0  0  0  0  0  0  0  0  0  0  0  0
   24.0296   16.6058    9.0857 H   0  0  0  0  0  0  0  0  0  0  0  0
   24.5199   16.9188    7.3652 H   0  0  0  0  0  0  0  0  0  0  0  0
   26.0943   17.9622    8.9249 H   0  0  0  0  0  0  0  0  0  0  0  0
   25.1755   19.2005    7.9704 H   0  0  0  0  0  0  0  0  0  0  0  0
   25.1355   18.5955   10.8963 H   0  0  0  0  0  0  0  0  0  0  0  0
   24.9432   20.1646    9.9829 H   0  0  0  0  0  0  0  0  0  0  0  0
   22.8770   18.1210   10.7584 H   0  0  0  0  0  0  0  0  0  0  0  0
   22.8498   19.9313   10.8551 H   0  0  0  0  0  0  0  0  0  0  0  0
   21.3121   19.1189    9.1277 H   0  0  0  0  0  0  0  0  0  0  0  0
   22.6988   20.0581    8.4171 H   0  0  0  0  0  0  0  0  0  0  0  0
   18.4212   18.6090    5.3546 H   0  0  0  0  0  0  0  0  0  0  0  0
  1  2  2  0
  2  3  1  0
  3  4  1  0
  4  5  2  0
  5  6  1  0
  6  7  2  0
  7  8  1  0
  8  9  1  0
  9 10  1  0
 10 11  1  0
 11 12  1  0
 12 13  1  0
 13 14  1  0
  7 15  1  0
 15 16  2  0
 16 17  1  0
 17 18  2  0
 18  2  1  0
 18  6  1  0
 14  9  1  0
  3 19  1  0
  4 20  1  0
  5 21  1  0
  8 22  1  0
  9 23  1  0
 10 24  1  0
 10 25  1  0
 11 26  1  0
 11 27  1  0
 12 28  1  0
 12 29  1  0
 13 30  1  0
 13 31  1  0
 14 32  1  0
 14 33  1  0
 16 34  1  0
M  END
>  <meeko>  (9) 
{"is_sidechain": [false], "free_energy": -7.195, "intermolecular_energy": -8.041, "internal_energy": -0.429}

$$$$
