2v7a_ligand
     RDKit          3D

 67 71  0  0  0  0  0  0  0  0999 V2000
  -44.8870  -44.7900   -7.0310 C   0  0  0  0  0  0  0  0  0  0  0  0
  -44.1150  -45.5720   -7.9380 O   0  0  0  0  0  0  0  0  0  0  0  0
  -42.7100  -45.4850   -7.6700 C   0  0  1  0  0  0  0  0  0  0  0  0
  -42.2720  -46.6720   -6.7710 C   0  0  0  0  0  0  0  0  0  0  0  0
  -41.2000  -46.6380   -6.1560 O   0  0  0  0  0  0  0  0  0  0  0  0
  -43.0700  -47.7980   -6.6830 N   0  0  0  0  0  0  0  0  0  0  0  0
  -44.1620  -48.0220   -5.7070 C   0  0  0  0  0  0  0  0  0  0  0  0
  -44.6690  -49.3190   -6.1640 C   0  0  0  0  0  0  0  0  0  0  0  0
  -45.6810  -50.2120   -5.8330 N   0  0  0  0  0  0  0  0  0  0  0  0
  -45.5360  -51.3800   -6.8390 N   0  0  0  0  0  0  0  0  0  0  0  0
  -44.4360  -51.0710   -7.6910 C   0  0  0  0  0  0  0  0  0  0  0  0
  -43.9800  -51.9340   -8.7790 N   0  0  0  0  0  0  0  0  0  0  0  0
  -44.7250  -51.9850   -9.9400 C   0  0  0  0  0  0  0  0  0  0  0  0
  -45.7600  -51.3250  -10.0410 O   0  0  0  0  0  0  0  0  0  0  0  0
  -44.2580  -52.8740  -11.0390 C   0  0  0  0  0  0  0  0  0  0  0  0
  -43.5520  -52.4060  -12.1490 C   0  0  0  0  0  0  0  0  0  0  0  0
  -43.1490  -53.3010  -13.1530 C   0  0  0  0  0  0  0  0  0  0  0  0
  -43.4390  -54.6750  -13.0890 C   0  0  0  0  0  0  0  0  0  0  0  0
  -43.0010  -55.5290  -14.1200 N   0  0  0  0  0  0  0  0  0  0  0  0
  -43.0290  -54.8750  -15.4610 C   0  0  0  0  0  0  0  0  0  0  0  0
  -42.7000  -55.8770  -16.5970 C   0  0  0  0  0  0  0  0  0  0  0  0
  -41.8480  -57.0040  -16.0440 N   0  0  0  0  0  0  0  0  0  0  0  0
  -41.1950  -57.8390  -17.0960 C   0  0  0  0  0  0  0  0  0  0  0  0
  -42.6240  -57.8270  -15.0240 C   0  0  0  0  0  0  0  0  0  0  0  0
  -43.4980  -56.9250  -14.1170 C   0  0  0  0  0  0  0  0  0  0  0  0
  -44.1530  -55.1210  -11.9670 C   0  0  0  0  0  0  0  0  0  0  0  0
  -44.5640  -54.2350  -10.9610 C   0  0  0  0  0  0  0  0  0  0  0  0
  -43.9130  -49.8170   -7.2720 C   0  0  0  0  0  0  0  0  0  0  0  0
  -42.8530  -48.8960   -7.6380 C   0  0  0  0  0  0  0  0  0  0  0  0
  -41.8820  -45.4180   -8.9480 C   0  0  0  0  0  0  0  0  0  0  0  0
  -40.5170  -45.0860   -8.9390 C   0  0  0  0  0  0  0  0  0  0  0  0
  -39.7830  -45.0420  -10.1260 C   0  0  0  0  0  0  0  0  0  0  0  0
  -40.4000  -45.3390  -11.3400 C   0  0  0  0  0  0  0  0  0  0  0  0
  -41.7480  -45.6830  -11.3660 C   0  0  0  0  0  0  0  0  0  0  0  0
  -42.4820  -45.7260  -10.1810 C   0  0  0  0  0  0  0  0  0  0  0  0
  -44.6219  -45.0586   -5.9978 H   0  0  0  0  0  0  0  0  0  0  0  0
  -44.6784  -43.7229   -7.1975 H   0  0  0  0  0  0  0  0  0  0  0  0
  -45.9567  -44.9848   -7.1975 H   0  0  0  0  0  0  0  0  0  0  0  0
  -42.5232  -44.5436   -7.1325 H   0  0  0  0  0  0  0  0  0  0  0  0
  -43.7807  -48.0755   -4.6766 H   0  0  0  0  0  0  0  0  0  0  0  0
  -44.9163  -47.2221   -5.6724 H   0  0  0  0  0  0  0  0  0  0  0  0
  -46.3930  -50.1650   -5.1010 H   0  0  0  0  0  0  0  0  0  0  0  0
  -46.1020  -52.2350   -6.9090 H   0  0  0  0  0  0  0  0  0  0  0  0
  -43.1640  -52.5150   -8.6390 H   0  0  0  0  0  0  0  0  0  0  0  0
  -43.3115  -51.3362  -12.2369 H   0  0  0  0  0  0  0  0  0  0  0  0
  -42.5885  -52.9147  -14.0171 H   0  0  0  0  0  0  0  0  0  0  0  0
  -44.0324  -54.4585  -15.6331 H   0  0  0  0  0  0  0  0  0  0  0  0
  -42.2653  -54.0834  -15.4714 H   0  0  0  0  0  0  0  0  0  0  0  0
  -43.6347  -56.2896  -17.0045 H   0  0  0  0  0  0  0  0  0  0  0  0
  -42.1498  -55.3586  -17.3961 H   0  0  0  0  0  0  0  0  0  0  0  0
  -41.1140  -56.5400  -15.4900 H   0  0  0  0  0  0  0  0  0  0  0  0
  -40.5846  -58.6195  -16.6182 H   0  0  0  0  0  0  0  0  0  0  0  0
  -41.9672  -58.3096  -17.7223 H   0  0  0  0  0  0  0  0  0  0  0  0
  -40.5522  -57.2030  -17.7223 H   0  0  0  0  0  0  0  0  0  0  0  0
  -43.2745  -58.5363  -15.5567 H   0  0  0  0  0  0  0  0  0  0  0  0
  -41.9020  -58.3609  -14.3886 H   0  0  0  0  0  0  0  0  0  0  0  0
  -44.5339  -56.9389  -14.4868 H   0  0  0  0  0  0  0  0  0  0  0  0
  -43.4510  -57.3117  -13.0883 H   0  0  0  0  0  0  0  0  0  0  0  0
  -44.3959  -56.1898  -11.8743 H   0  0  0  0  0  0  0  0  0  0  0  0
  -45.1338  -54.6158  -10.1006 H   0  0  0  0  0  0  0  0  0  0  0  0
  -41.8612  -49.3528   -7.5054 H   0  0  0  0  0  0  0  0  0  0  0  0
  -42.8775  -48.5827   -8.6922 H   0  0  0  0  0  0  0  0  0  0  0  0
  -40.0200  -44.8578   -7.9846 H   0  0  0  0  0  0  0  0  0  0  0  0
  -38.7167  -44.7727  -10.1030 H   0  0  0  0  0  0  0  0  0  0  0  0
  -39.8226  -45.3015  -12.2755 H   0  0  0  0  0  0  0  0  0  0  0  0
  -42.2355  -45.9214  -12.3228 H   0  0  0  0  0  0  0  0  0  0  0  0
  -43.5456  -46.0049  -10.2118 H   0  0  0  0  0  0  0  0  0  0  0  0
  1  2  1  0
  2  3  1  0
  3  4  1  0
  4  5  2  0
  4  6  1  0
  6  7  1  0
  7  8  1  0
  8  9  1  0
  9 10  1  0
 10 11  2  0
 11 12  1  0
 12 13  1  0
 13 14  2  0
 13 15  1  0
 15 16  2  0
 16 17  1  0
 17 18  2  0
 18 19  1  0
 19 20  1  0
 20 21  1  0
 21 22  1  0
 22 23  1  0
 22 24  1  0
 24 25  1  0
 18 26  1  0
 26 27  2  0
 11 28  1  0
 28 29  1  0
  3 30  1  0
 30 31  2  0
 31 32  1  0
 32 33  2  0
 33 34  1  0
 34 35  2  0
 29  6  1  0
 35 30  1  0
 28  8  2  0
 27 15  1  0
 25 19  1  0
  1 36  1  0
  1 37  1  0
  1 38  1  0
  3 39  1  1
  7 40  1  0
  7 41  1  0
  9 42  1  0
 10 43  1  0
 12 44  1  0
 16 45  1  0
 17 46  1  0
 20 47  1  0
 20 48  1  0
 21 49  1  0
 21 50  1  0
 22 51  1  0
 23 52  1  0
 23 53  1  0
 23 54  1  0
 24 55  1  0
 24 56  1  0
 25 57  1  0
 25 58  1  0
 26 59  1  0
 27 60  1  0
 29 61  1  0
 29 62  1  0
 31 63  1  0
 32 64  1  0
 33 65  1  0
 34 66  1  0
 35 67  1  0
M  CHG  2  10   1  22   1
M  END
>  <meeko>  (1) 
{"is_sidechain": [false], "free_energy": -9.008, "intermolecular_energy": -12.694, "internal_energy": -1.17}

$$$$
2v7a_ligand
     RDKit          3D

 67 71  0  0  0  0  0  0  0  0999 V2000
  -44.9060  -44.9560   -7.0990 C   0  0  0  0  0  0  0  0  0  0  0  0
  -43.5120  -44.7300   -7.2880 O   0  0  0  0  0  0  0  0  0  0  0  0
  -42.9100  -45.7230   -8.1280 C   0  0  1  0  0  0  0  0  0  0  0  0
  -41.7030  -45.1070   -8.8870 C   0  0  0  0  0  0  0  0  0  0  0  0
  -41.2930  -43.9730   -8.6100 O   0  0  0  0  0  0  0  0  0  0  0  0
  -41.1030  -45.8150   -9.9100 N   0  0  0  0  0  0  0  0  0  0  0  0
  -39.7680  -45.5450  -10.4950 C   0  0  0  0  0  0  0  0  0  0  0  0
  -39.6620  -46.6520  -11.4480 C   0  0  0  0  0  0  0  0  0  0  0  0
  -38.7400  -47.1510  -12.3600 N   0  0  0  0  0  0  0  0  0  0  0  0
  -39.4180  -48.3950  -12.9840 N   0  0  0  0  0  0  0  0  0  0  0  0
  -40.7020  -48.5260  -12.3780 C   0  0  0  0  0  0  0  0  0  0  0  0
  -41.6520  -49.5870  -12.7030 N   0  0  0  0  0  0  0  0  0  0  0  0
  -41.4590  -50.8390  -12.1550 C   0  0  0  0  0  0  0  0  0  0  0  0
  -40.4930  -51.0520  -11.4210 O   0  0  0  0  0  0  0  0  0  0  0  0
  -42.4270  -51.9170  -12.4990 C   0  0  0  0  0  0  0  0  0  0  0  0
  -43.7070  -51.9970  -11.9460 C   0  0  0  0  0  0  0  0  0  0  0  0
  -44.5650  -53.0460  -12.3110 C   0  0  0  0  0  0  0  0  0  0  0  0
  -44.1790  -54.0440  -13.2240 C   0  0  0  0  0  0  0  0  0  0  0  0
  -45.0860  -55.0680  -13.5610 N   0  0  0  0  0  0  0  0  0  0  0  0
  -44.7670  -55.7130  -14.8670 C   0  0  0  0  0  0  0  0  0  0  0  0
  -45.8650  -56.7210  -15.2940 C   0  0  0  0  0  0  0  0  0  0  0  0
  -46.5770  -57.2440  -14.0600 N   0  0  0  0  0  0  0  0  0  0  0  0
  -47.4130  -58.4550  -14.3130 C   0  0  0  0  0  0  0  0  0  0  0  0
  -47.3380  -56.1290  -13.3540 C   0  0  0  0  0  0  0  0  0  0  0  0
  -46.5290  -54.8080  -13.3490 C   0  0  0  0  0  0  0  0  0  0  0  0
  -42.8890  -53.9450  -13.7620 C   0  0  0  0  0  0  0  0  0  0  0  0
  -42.0210  -52.9040  -13.4010 C   0  0  0  0  0  0  0  0  0  0  0  0
  -40.8420  -47.4600  -11.4470 C   0  0  0  0  0  0  0  0  0  0  0  0
  -41.8180  -46.9590  -10.4960 C   0  0  0  0  0  0  0  0  0  0  0  0
  -42.5040  -46.9690   -7.3510 C   0  0  0  0  0  0  0  0  0  0  0  0
  -43.2590  -48.1520   -7.3850 C   0  0  0  0  0  0  0  0  0  0  0  0
  -42.8550  -49.2810   -6.6690 C   0  0  0  0  0  0  0  0  0  0  0  0
  -41.6850  -49.2470   -5.9140 C   0  0  0  0  0  0  0  0  0  0  0  0
  -40.9160  -48.0860   -5.8790 C   0  0  0  0  0  0  0  0  0  0  0  0
  -41.3190  -46.9580   -6.5940 C   0  0  0  0  0  0  0  0  0  0  0  0
  -45.1289  -44.9921   -6.0224 H   0  0  0  0  0  0  0  0  0  0  0  0
  -45.4764  -44.1386   -7.5643 H   0  0  0  0  0  0  0  0  0  0  0  0
  -45.1889  -45.9117   -7.5643 H   0  0  0  0  0  0  0  0  0  0  0  0
  -43.6622  -46.0506   -8.8607 H   0  0  0  0  0  0  0  0  0  0  0  0
  -39.7371  -44.5692  -11.0018 H   0  0  0  0  0  0  0  0  0  0  0  0
  -38.9496  -45.4929   -9.7618 H   0  0  0  0  0  0  0  0  0  0  0  0
  -37.8060  -46.8170  -12.6080 H   0  0  0  0  0  0  0  0  0  0  0  0
  -39.0500  -49.0290  -13.7040 H   0  0  0  0  0  0  0  0  0  0  0  0
  -42.3960  -49.3990  -13.3630 H   0  0  0  0  0  0  0  0  0  0  0  0
  -44.0427  -51.2378  -11.2243 H   0  0  0  0  0  0  0  0  0  0  0  0
  -45.5714  -53.0891  -11.8690 H   0  0  0  0  0  0  0  0  0  0  0  0
  -44.6804  -54.9330  -15.6377 H   0  0  0  0  0  0  0  0  0  0  0  0
  -43.8216  -56.2640  -14.7547 H   0  0  0  0  0  0  0  0  0  0  0  0
  -46.5901  -56.2175  -15.9503 H   0  0  0  0  0  0  0  0  0  0  0  0
  -45.4030  -57.5601  -15.8348 H   0  0  0  0  0  0  0  0  0  0  0  0
  -45.8260  -57.4950  -13.4020 H   0  0  0  0  0  0  0  0  0  0  0  0
  -47.7181  -58.8970  -13.3530 H   0  0  0  0  0  0  0  0  0  0  0  0
  -48.3075  -58.1698  -14.8862 H   0  0  0  0  0  0  0  0  0  0  0  0
  -46.8292  -59.1903  -14.8862 H   0  0  0  0  0  0  0  0  0  0  0  0
  -48.2927  -55.9621  -13.8743 H   0  0  0  0  0  0  0  0  0  0  0  0
  -47.5100  -56.4336  -12.3111 H   0  0  0  0  0  0  0  0  0  0  0  0
  -46.8992  -54.1565  -14.1543 H   0  0  0  0  0  0  0  0  0  0  0  0
  -46.6574  -54.3223  -12.3704 H   0  0  0  0  0  0  0  0  0  0  0  0
  -42.5490  -54.7015  -14.4845 H   0  0  0  0  0  0  0  0  0  0  0  0
  -41.0100  -52.8642  -13.8325 H   0  0  0  0  0  0  0  0  0  0  0  0
  -42.7417  -46.6389  -11.0003 H   0  0  0  0  0  0  0  0  0  0  0  0
  -42.1468  -47.7057   -9.7582 H   0  0  0  0  0  0  0  0  0  0  0  0
  -44.1811  -48.1903   -7.9836 H   0  0  0  0  0  0  0  0  0  0  0  0
  -43.4615  -50.1981   -6.7014 H   0  0  0  0  0  0  0  0  0  0  0  0
  -41.3690  -50.1349   -5.3467 H   0  0  0  0  0  0  0  0  0  0  0  0
  -39.9895  -48.0586   -5.2866 H   0  0  0  0  0  0  0  0  0  0  0  0
  -40.7017  -46.0480   -6.5653 H   0  0  0  0  0  0  0  0  0  0  0  0
  1  2  1  0
  2  3  1  0
  3  4  1  0
  4  5  2  0
  4  6  1  0
  6  7  1  0
  7  8  1  0
  8  9  1  0
  9 10  1  0
 10 11  2  0
 11 12  1  0
 12 13  1  0
 13 14  2  0
 13 15  1  0
 15 16  2  0
 16 17  1  0
 17 18  2  0
 18 19  1  0
 19 20  1  0
 20 21  1  0
 21 22  1  0
 22 23  1  0
 22 24  1  0
 24 25  1  0
 18 26  1  0
 26 27  2  0
 11 28  1  0
 28 29  1  0
  3 30  1  0
 30 31  2  0
 31 32  1  0
 32 33  2  0
 33 34  1  0
 34 35  2  0
 29  6  1  0
 35 30  1  0
 28  8  2  0
 27 15  1  0
 25 19  1  0
  1 36  1  0
  1 37  1  0
  1 38  1  0
  3 39  1  6
  7 40  1  0
  7 41  1  0
  9 42  1  0
 10 43  1  0
 12 44  1  0
 16 45  1  0
 17 46  1  0
 20 47  1  0
 20 48  1  0
 21 49  1  0
 21 50  1  0
 22 51  1  0
 23 52  1  0
 23 53  1  0
 23 54  1  0
 24 55  1  0
 24 56  1  0
 25 57  1  0
 25 58  1  0
 26 59  1  0
 27 60  1  0
 29 61  1  0
 29 62  1  0
 31 63  1  0
 32 64  1  0
 33 65  1  0
 34 66  1  0
 35 67  1  0
M  CHG  2  10   1  22   1
M  END
>  <meeko>  (2) 
{"is_sidechain": [false], "free_energy": -8.99, "intermolecular_energy": -12.695, "internal_energy": -1.144}

$$$$
2v7a_ligand
     RDKit          3D

 67 71  0  0  0  0  0  0  0  0999 V2000
  -45.4200  -45.0450   -6.2070 C   0  0  0  0  0  0  0  0  0  0  0  0
  -45.2200  -46.1470   -5.3260 O   0  0  0  0  0  0  0  0  0  0  0  0
  -44.8470  -47.3400   -6.0260 C   0  0  1  0  0  0  0  0  0  0  0  0
  -43.3150  -47.3420   -6.2800 C   0  0  0  0  0  0  0  0  0  0  0  0
  -42.5170  -47.4240   -5.3390 O   0  0  0  0  0  0  0  0  0  0  0  0
  -42.8330  -47.2100   -7.5690 N   0  0  0  0  0  0  0  0  0  0  0  0
  -42.3340  -45.9620   -8.1920 C   0  0  0  0  0  0  0  0  0  0  0  0
  -41.8980  -46.4680   -9.4960 C   0  0  0  0  0  0  0  0  0  0  0  0
  -41.2960  -45.9800  -10.6510 N   0  0  0  0  0  0  0  0  0  0  0  0
  -41.1740  -47.2020  -11.5920 N   0  0  0  0  0  0  0  0  0  0  0  0
  -41.7210  -48.3240  -10.9030 C   0  0  0  0  0  0  0  0  0  0  0  0
  -41.7880  -49.6720  -11.4640 N   0  0  0  0  0  0  0  0  0  0  0  0
  -43.0240  -50.1910  -11.7930 C   0  0  0  0  0  0  0  0  0  0  0  0
  -44.0450  -49.5300  -11.6000 O   0  0  0  0  0  0  0  0  0  0  0  0
  -43.0830  -51.5680  -12.3560 C   0  0  0  0  0  0  0  0  0  0  0  0
  -42.0600  -52.1200  -13.1290 C   0  0  0  0  0  0  0  0  0  0  0  0
  -42.1880  -53.4240  -13.6340 C   0  0  0  0  0  0  0  0  0  0  0  0
  -43.3290  -54.2100  -13.3950 C   0  0  0  0  0  0  0  0  0  0  0  0
  -43.3980  -55.5160  -13.9180 N   0  0  0  0  0  0  0  0  0  0  0  0
  -44.6260  -55.7460  -14.7330 C   0  0  0  0  0  0  0  0  0  0  0  0
  -44.7620  -57.2300  -15.1630 C   0  0  0  0  0  0  0  0  0  0  0  0
  -43.3870  -57.8690  -15.2110 N   0  0  0  0  0  0  0  0  0  0  0  0
  -43.3540  -59.1790  -15.9270 C   0  0  0  0  0  0  0  0  0  0  0  0
  -42.7620  -57.9300  -13.8230 C   0  0  0  0  0  0  0  0  0  0  0  0
  -43.0500  -56.6390  -13.0170 C   0  0  0  0  0  0  0  0  0  0  0  0
  -44.3450  -53.6330  -12.6200 C   0  0  0  0  0  0  0  0  0  0  0  0
  -44.2300  -52.3300  -12.1140 C   0  0  0  0  0  0  0  0  0  0  0  0
  -42.1610  -47.8680   -9.6310 C   0  0  0  0  0  0  0  0  0  0  0  0
  -42.7860  -48.3990   -8.4330 C   0  0  0  0  0  0  0  0  0  0  0  0
  -45.2920  -48.6010   -5.2960 C   0  0  0  0  0  0  0  0  0  0  0  0
  -45.8850  -48.5600   -4.0230 C   0  0  0  0  0  0  0  0  0  0  0  0
  -46.2920  -49.7340   -3.3840 C   0  0  0  0  0  0  0  0  0  0  0  0
  -46.1210  -50.9650   -4.0120 C   0  0  0  0  0  0  0  0  0  0  0  0
  -45.5470  -51.0240   -5.2790 C   0  0  0  0  0  0  0  0  0  0  0  0
  -45.1410  -49.8530   -5.9180 C   0  0  0  0  0  0  0  0  0  0  0  0
  -45.5860  -44.1306   -5.6186 H   0  0  0  0  0  0  0  0  0  0  0  0
  -44.5305  -44.9165   -6.8413 H   0  0  0  0  0  0  0  0  0  0  0  0
  -46.2979  -45.2373   -6.8413 H   0  0  0  0  0  0  0  0  0  0  0  0
  -45.3695  -47.3445   -6.9940 H   0  0  0  0  0  0  0  0  0  0  0  0
  -43.1323  -45.2121   -8.2940 H   0  0  0  0  0  0  0  0  0  0  0  0
  -41.5518  -45.4446   -7.6171 H   0  0  0  0  0  0  0  0  0  0  0  0
  -40.9810  -45.0360  -10.8850 H   0  0  0  0  0  0  0  0  0  0  0  0
  -40.7830  -47.2390  -12.5420 H   0  0  0  0  0  0  0  0  0  0  0  0
  -40.9380  -50.2150  -11.5470 H   0  0  0  0  0  0  0  0  0  0  0  0
  -41.1540  -51.5337  -13.3424 H   0  0  0  0  0  0  0  0  0  0  0  0
  -41.3690  -53.8442  -14.2362 H   0  0  0  0  0  0  0  0  0  0  0  0
  -45.5068  -55.4659  -14.1366 H   0  0  0  0  0  0  0  0  0  0  0  0
  -44.5529  -55.1317  -15.6425 H   0  0  0  0  0  0  0  0  0  0  0  0
  -45.3907  -57.7663  -14.4370 H   0  0  0  0  0  0  0  0  0  0  0  0
  -45.2266  -57.2828  -16.1587 H   0  0  0  0  0  0  0  0  0  0  0  0
  -42.7960  -57.1990  -15.7260 H   0  0  0  0  0  0  0  0  0  0  0  0
  -43.3334  -59.9978  -15.1927 H   0  0  0  0  0  0  0  0  0  0  0  0
  -44.2500  -59.2747  -16.5579 H   0  0  0  0  0  0  0  0  0  0  0  0
  -42.4543  -59.2295  -16.5579 H   0  0  0  0  0  0  0  0  0  0  0  0
  -43.1787  -58.7913  -13.2803 H   0  0  0  0  0  0  0  0  0  0  0  0
  -41.6727  -58.0311  -13.9377 H   0  0  0  0  0  0  0  0  0  0  0  0
  -43.8900  -56.8232  -12.3311 H   0  0  0  0  0  0  0  0  0  0  0  0
  -42.1445  -56.3685  -12.4542 H   0  0  0  0  0  0  0  0  0  0  0  0
  -45.2528  -54.2154  -12.4039 H   0  0  0  0  0  0  0  0  0  0  0  0
  -45.0514  -51.9028  -11.5201 H   0  0  0  0  0  0  0  0  0  0  0  0
  -43.7955  -48.7818   -8.6435 H   0  0  0  0  0  0  0  0  0  0  0  0
  -42.2502  -49.2516   -7.9904 H   0  0  0  0  0  0  0  0  0  0  0  0
  -46.0307  -47.5911   -3.5229 H   0  0  0  0  0  0  0  0  0  0  0  0
  -46.7479  -49.6858   -2.3841 H   0  0  0  0  0  0  0  0  0  0  0  0
  -46.4390  -51.8895   -3.5078 H   0  0  0  0  0  0  0  0  0  0  0  0
  -45.4136  -51.9958   -5.7767 H   0  0  0  0  0  0  0  0  0  0  0  0
  -44.6964  -49.9095   -6.9226 H   0  0  0  0  0  0  0  0  0  0  0  0
  1  2  1  0
  2  3  1  0
  3  4  1  0
  4  5  2  0
  4  6  1  0
  6  7  1  0
  7  8  1  0
  8  9  1  0
  9 10  1  0
 10 11  2  0
 11 12  1  0
 12 13  1  0
 13 14  2  0
 13 15  1  0
 15 16  2  0
 16 17  1  0
 17 18  2  0
 18 19  1  0
 19 20  1  0
 20 21  1  0
 21 22  1  0
 22 23  1  0
 22 24  1  0
 24 25  1  0
 18 26  1  0
 26 27  2  0
 11 28  1  0
 28 29  1  0
  3 30  1  0
 30 31  2  0
 31 32  1  0
 32 33  2  0
 33 34  1  0
 34 35  2  0
 29  6  1  0
 35 30  1  0
 28  8  2  0
 27 15  1  0
 25 19  1  0
  1 36  1  0
  1 37  1  0
  1 38  1  0
  3 39  1  6
  7 40  1  0
  7 41  1  0
  9 42  1  0
 10 43  1  0
 12 44  1  0
 16 45  1  0
 17 46  1  0
 20 47  1  0
 20 48  1  0
 21 49  1  0
 21 50  1  0
 22 51  1  0
 23 52  1  0
 23 53  1  0
 23 54  1  0
 24 55  1  0
 24 56  1  0
 25 57  1  0
 25 58  1  0
 26 59  1  0
 27 60  1  0
 29 61  1  0
 29 62  1  0
 31 63  1  0
 32 64  1  0
 33 65  1  0
 34 66  1  0
 35 67  1  0
M  CHG  2  10   1  22   1
M  END
>  <meeko>  (3) 
{"is_sidechain": [false], "free_energy": -8.387, "intermolecular_energy": -11.867, "internal_energy": -1.122}

$$$$
2v7a_ligand
     RDKit          3D

 67 71  0  0  0  0  0  0  0  0999 V2000
  -41.2480  -47.2820   -5.6480 C   0  0  0  0  0  0  0  0  0  0  0  0
  -41.3540  -46.4200   -6.7770 O   0  0  0  0  0  0  0  0  0  0  0  0
  -41.9470  -47.0740   -7.9060 C   0  0  1  0  0  0  0  0  0  0  0  0
  -43.4860  -47.1600   -7.7140 C   0  0  0  0  0  0  0  0  0  0  0  0
  -44.1740  -46.1340   -7.6530 O   0  0  0  0  0  0  0  0  0  0  0  0
  -44.0920  -48.3940   -7.5700 N   0  0  0  0  0  0  0  0  0  0  0  0
  -45.0750  -48.7680   -6.5260 C   0  0  0  0  0  0  0  0  0  0  0  0
  -45.4010  -50.1340   -6.9420 C   0  0  0  0  0  0  0  0  0  0  0  0
  -46.2400  -51.1690   -6.5420 N   0  0  0  0  0  0  0  0  0  0  0  0
  -45.9770  -52.3160   -7.5480 N   0  0  0  0  0  0  0  0  0  0  0  0
  -44.9920  -51.8540   -8.4680 C   0  0  0  0  0  0  0  0  0  0  0  0
  -44.4740  -52.6540   -9.5770 N   0  0  0  0  0  0  0  0  0  0  0  0
  -44.7600  -52.2590  -10.8680 C   0  0  0  0  0  0  0  0  0  0  0  0
  -45.4520  -51.2600  -11.0710 O   0  0  0  0  0  0  0  0  0  0  0  0
  -44.2370  -53.0850  -11.9910 C   0  0  0  0  0  0  0  0  0  0  0  0
  -43.0950  -52.7440  -12.7190 C   0  0  0  0  0  0  0  0  0  0  0  0
  -42.6630  -53.5670  -13.7720 C   0  0  0  0  0  0  0  0  0  0  0  0
  -43.3490  -54.7390  -14.1340 C   0  0  0  0  0  0  0  0  0  0  0  0
  -42.8640  -55.5320  -15.1930 N   0  0  0  0  0  0  0  0  0  0  0  0
  -43.1820  -54.9620  -16.5330 C   0  0  0  0  0  0  0  0  0  0  0  0
  -42.7830  -55.9270  -17.6790 C   0  0  0  0  0  0  0  0  0  0  0  0
  -41.6560  -56.8280  -17.2100 N   0  0  0  0  0  0  0  0  0  0  0  0
  -40.9670  -57.5590  -18.3150 C   0  0  0  0  0  0  0  0  0  0  0  0
  -42.1190  -57.7440  -16.0850 C   0  0  0  0  0  0  0  0  0  0  0  0
  -43.0530  -56.9980  -15.0970 C   0  0  0  0  0  0  0  0  0  0  0  0
  -44.4950  -55.0580  -13.3910 C   0  0  0  0  0  0  0  0  0  0  0  0
  -44.9390  -54.2410  -12.3410 C   0  0  0  0  0  0  0  0  0  0  0  0
  -44.6460  -50.5280   -8.0910 C   0  0  0  0  0  0  0  0  0  0  0  0
  -43.7650  -49.4600   -8.5290 C   0  0  0  0  0  0  0  0  0  0  0  0
  -41.5860  -46.3970   -9.2220 C   0  0  0  0  0  0  0  0  0  0  0  0
  -42.2370  -46.7070  -10.4270 C   0  0  0  0  0  0  0  0  0  0  0  0
  -41.8890  -46.0610  -11.6160 C   0  0  0  0  0  0  0  0  0  0  0  0
  -40.8910  -45.0900  -11.6160 C   0  0  0  0  0  0  0  0  0  0  0  0
  -40.2430  -44.7610  -10.4290 C   0  0  0  0  0  0  0  0  0  0  0  0
  -40.5900  -45.4050   -9.2410 C   0  0  0  0  0  0  0  0  0  0  0  0
  -41.3210  -46.6880   -4.7250 H   0  0  0  0  0  0  0  0  0  0  0  0
  -42.0620  -48.0214   -5.6735 H   0  0  0  0  0  0  0  0  0  0  0  0
  -40.2791  -47.8022   -5.6735 H   0  0  0  0  0  0  0  0  0  0  0  0
  -41.5371  -48.0932   -7.9632 H   0  0  0  0  0  0  0  0  0  0  0  0
  -44.6283  -48.7454   -5.5211 H   0  0  0  0  0  0  0  0  0  0  0  0
  -45.9407  -48.0937   -6.4494 H   0  0  0  0  0  0  0  0  0  0  0  0
  -46.9060  -51.2200   -5.7680 H   0  0  0  0  0  0  0  0  0  0  0  0
  -46.4070  -53.2490   -7.5770 H   0  0  0  0  0  0  0  0  0  0  0  0
  -43.9670  -53.5060   -9.3760 H   0  0  0  0  0  0  0  0  0  0  0  0
  -42.5343  -51.8316  -12.4679 H   0  0  0  0  0  0  0  0  0  0  0  0
  -41.7587  -53.2852  -14.3313 H   0  0  0  0  0  0  0  0  0  0  0  0
  -44.2634  -54.7692  -16.5903 H   0  0  0  0  0  0  0  0  0  0  0  0
  -42.6074  -54.0318  -16.6538 H   0  0  0  0  0  0  0  0  0  0  0  0
  -43.6510  -56.5413  -17.9604 H   0  0  0  0  0  0  0  0  0  0  0  0
  -42.4492  -55.3444  -18.5503 H   0  0  0  0  0  0  0  0  0  0  0  0
  -40.9760  -56.1970  -16.7600 H   0  0  0  0  0  0  0  0  0  0  0  0
  -40.2715  -58.2969  -17.8887 H   0  0  0  0  0  0  0  0  0  0  0  0
  -41.7146  -58.0753  -18.9351 H   0  0  0  0  0  0  0  0  0  0  0  0
  -40.4074  -56.8432  -18.9351 H   0  0  0  0  0  0  0  0  0  0  0  0
  -42.6633  -58.5961  -16.5182 H   0  0  0  0  0  0  0  0  0  0  0  0
  -41.2329  -58.0880  -15.5314 H   0  0  0  0  0  0  0  0  0  0  0  0
  -44.0985  -57.2424  -15.3360 H   0  0  0  0  0  0  0  0  0  0  0  0
  -42.8073  -57.3170  -14.0733 H   0  0  0  0  0  0  0  0  0  0  0  0
  -45.0586  -55.9700  -13.6375 H   0  0  0  0  0  0  0  0  0  0  0  0
  -45.8496  -54.5133  -11.7872 H   0  0  0  0  0  0  0  0  0  0  0  0
  -42.7081  -49.7559   -8.4551 H   0  0  0  0  0  0  0  0  0  0  0  0
  -43.9009  -49.1716   -9.5818 H   0  0  0  0  0  0  0  0  0  0  0  0
  -43.0311  -47.4682  -10.4349 H   0  0  0  0  0  0  0  0  0  0  0  0
  -42.4039  -46.3197  -12.5530 H   0  0  0  0  0  0  0  0  0  0  0  0
  -40.6151  -44.5837  -12.5528 H   0  0  0  0  0  0  0  0  0  0  0  0
  -39.4562  -43.9922  -10.4275 H   0  0  0  0  0  0  0  0  0  0  0  0
  -40.0774  -45.1329   -8.3066 H   0  0  0  0  0  0  0  0  0  0  0  0
  1  2  1  0
  2  3  1  0
  3  4  1  0
  4  5  2  0
  4  6  1  0
  6  7  1  0
  7  8  1  0
  8  9  1  0
  9 10  1  0
 10 11  2  0
 11 12  1  0
 12 13  1  0
 13 14  2  0
 13 15  1  0
 15 16  2  0
 16 17  1  0
 17 18  2  0
 18 19  1  0
 19 20  1  0
 20 21  1  0
 21 22  1  0
 22 23  1  0
 22 24  1  0
 24 25  1  0
 18 26  1  0
 26 27  2  0
 11 28  1  0
 28 29  1  0
  3 30  1  0
 30 31  2  0
 31 32  1  0
 32 33  2  0
 33 34  1  0
 34 35  2  0
 29  6  1  0
 35 30  1  0
 28  8  2  0
 27 15  1  0
 25 19  1  0
  1 36  1  0
  1 37  1  0
  1 38  1  0
  3 39  1  6
  7 40  1  0
  7 41  1  0
  9 42  1  0
 10 43  1  0
 12 44  1  0
 16 45  1  0
 17 46  1  0
 20 47  1  0
 20 48  1  0
 21 49  1  0
 21 50  1  0
 22 51  1  0
 23 52  1  0
 23 53  1  0
 23 54  1  0
 24 55  1  0
 24 56  1  0
 25 57  1  0
 25 58  1  0
 26 59  1  0
 27 60  1  0
 29 61  1  0
 29 62  1  0
 31 63  1  0
 32 64  1  0
 33 65  1  0
 34 66  1  0
 35 67  1  0
M  CHG  2  10   1  22   1
M  END
>  <meeko>  (4) 
{"is_sidechain": [false], "free_energy": -8.24, "intermolecular_energy": -11.728, "internal_energy": -1.055}

$$$$
2v7a_ligand
     RDKit          3D

 67 71  0  0  0  0  0  0  0  0999 V2000
  -42.5920  -58.6030   -8.2580 C   0  0  0  0  0  0  0  0  0  0  0  0
  -43.9780  -58.6310   -8.5870 O   0  0  0  0  0  0  0  0  0  0  0  0
  -44.3510  -57.5570   -9.4590 C   0  0  1  0  0  0  0  0  0  0  0  0
  -44.4960  -58.0870  -10.9110 C   0  0  0  0  0  0  0  0  0  0  0  0
  -45.1060  -59.1380  -11.1440 O   0  0  0  0  0  0  0  0  0  0  0  0
  -43.9060  -57.3990  -11.9550 N   0  0  0  0  0  0  0  0  0  0  0  0
  -43.7110  -57.9030  -13.3350 C   0  0  0  0  0  0  0  0  0  0  0  0
  -43.1290  -56.7200  -13.9730 C   0  0  0  0  0  0  0  0  0  0  0  0
  -42.6900  -56.3320  -15.2340 N   0  0  0  0  0  0  0  0  0  0  0  0
  -42.2040  -54.8720  -15.0630 N   0  0  0  0  0  0  0  0  0  0  0  0
  -42.4020  -54.5180  -13.6960 C   0  0  0  0  0  0  0  0  0  0  0  0
  -42.0650  -53.2110  -13.1360 N   0  0  0  0  0  0  0  0  0  0  0  0
  -43.0880  -52.3980  -12.6890 C   0  0  0  0  0  0  0  0  0  0  0  0
  -44.2590  -52.7710  -12.7800 O   0  0  0  0  0  0  0  0  0  0  0  0
  -42.7360  -51.0650  -12.1290 C   0  0  0  0  0  0  0  0  0  0  0  0
  -43.6850  -50.1840  -11.6060 C   0  0  0  0  0  0  0  0  0  0  0  0
  -43.2810  -48.9380  -11.1000 C   0  0  0  0  0  0  0  0  0  0  0  0
  -41.9360  -48.5290  -11.1050 C   0  0  0  0  0  0  0  0  0  0  0  0
  -41.5880  -47.2710  -10.5750 N   0  0  0  0  0  0  0  0  0  0  0  0
  -42.3830  -46.9150   -9.3650 C   0  0  0  0  0  0  0  0  0  0  0  0
  -42.1000  -45.4650   -8.8960 C   0  0  0  0  0  0  0  0  0  0  0  0
  -40.7110  -45.0520   -9.3450 N   0  0  0  0  0  0  0  0  0  0  0  0
  -40.2000  -43.8200   -8.6740 C   0  0  0  0  0  0  0  0  0  0  0  0
  -40.6240  -44.9850  -10.8640 C   0  0  0  0  0  0  0  0  0  0  0  0
  -41.3980  -46.1520  -11.5270 C   0  0  0  0  0  0  0  0  0  0  0  0
  -41.0030  -49.4290  -11.6390 C   0  0  0  0  0  0  0  0  0  0  0  0
  -41.3950  -50.6740  -12.1510 C   0  0  0  0  0  0  0  0  0  0  0  0
  -42.9620  -55.6480  -13.0410 C   0  0  0  0  0  0  0  0  0  0  0  0
  -43.4200  -56.0310  -11.7170 C   0  0  0  0  0  0  0  0  0  0  0  0
  -45.6170  -56.8480   -8.9940 C   0  0  0  0  0  0  0  0  0  0  0  0
  -46.7500  -57.5510   -8.5520 C   0  0  0  0  0  0  0  0  0  0  0  0
  -47.8920  -56.8720   -8.1230 C   0  0  0  0  0  0  0  0  0  0  0  0
  -47.9160  -55.4790   -8.1200 C   0  0  0  0  0  0  0  0  0  0  0  0
  -46.7980  -54.7650   -8.5420 C   0  0  0  0  0  0  0  0  0  0  0  0
  -45.6560  -55.4430   -8.9710 C   0  0  0  0  0  0  0  0  0  0  0  0
  -42.4747  -58.6006   -7.1643 H   0  0  0  0  0  0  0  0  0  0  0  0
  -42.0975  -59.4913   -8.6779 H   0  0  0  0  0  0  0  0  0  0  0  0
  -42.1337  -57.6954   -8.6779 H   0  0  0  0  0  0  0  0  0  0  0  0
  -43.5507  -56.8028   -9.4331 H   0  0  0  0  0  0  0  0  0  0  0  0
  -43.0206  -58.7590  -13.3607 H   0  0  0  0  0  0  0  0  0  0  0  0
  -44.6243  -58.2808  -13.8177 H   0  0  0  0  0  0  0  0  0  0  0  0
  -42.6670  -56.8490  -16.1160 H   0  0  0  0  0  0  0  0  0  0  0  0
  -41.8050  -54.2460  -15.7730 H   0  0  0  0  0  0  0  0  0  0  0  0
  -41.1000  -52.9060  -13.1390 H   0  0  0  0  0  0  0  0  0  0  0  0
  -44.7481  -50.4659  -11.5904 H   0  0  0  0  0  0  0  0  0  0  0  0
  -44.0418  -48.2598  -10.6862 H   0  0  0  0  0  0  0  0  0  0  0  0
  -43.4531  -47.0102   -9.6014 H   0  0  0  0  0  0  0  0  0  0  0  0
  -42.0948  -47.5991   -8.5533 H   0  0  0  0  0  0  0  0  0  0  0  0
  -42.8449  -44.7852   -9.3353 H   0  0  0  0  0  0  0  0  0  0  0  0
  -42.1613  -45.4152   -7.7988 H   0  0  0  0  0  0  0  0  0  0  0  0
  -40.0990  -45.8420   -9.0900 H   0  0  0  0  0  0  0  0  0  0  0  0
  -40.2531  -43.9480   -7.5828 H   0  0  0  0  0  0  0  0  0  0  0  0
  -39.1556  -43.6463   -8.9724 H   0  0  0  0  0  0  0  0  0  0  0  0
  -40.8148  -42.9581   -8.9724 H   0  0  0  0  0  0  0  0  0  0  0  0
  -41.0532  -44.0314  -11.2053 H   0  0  0  0  0  0  0  0  0  0  0  0
  -39.5657  -45.0629  -11.1537 H   0  0  0  0  0  0  0  0  0  0  0  0
  -42.3826  -45.7892  -11.8570 H   0  0  0  0  0  0  0  0  0  0  0  0
  -40.8146  -46.5169  -12.3852 H   0  0  0  0  0  0  0  0  0  0  0  0
  -39.9386  -49.1519  -11.6567 H   0  0  0  0  0  0  0  0  0  0  0  0
  -40.6382  -51.3505  -12.5748 H   0  0  0  0  0  0  0  0  0  0  0  0
  -42.5960  -56.0191  -10.9884 H   0  0  0  0  0  0  0  0  0  0  0  0
  -44.1772  -55.3550  -11.2930 H   0  0  0  0  0  0  0  0  0  0  0  0
  -46.7373  -58.6509   -8.5438 H   0  0  0  0  0  0  0  0  0  0  0  0
  -48.7737  -57.4374   -7.7870 H   0  0  0  0  0  0  0  0  0  0  0  0
  -48.8169  -54.9443   -7.7847 H   0  0  0  0  0  0  0  0  0  0  0  0
  -46.8146  -53.6651   -8.5373 H   0  0  0  0  0  0  0  0  0  0  0  0
  -44.7747  -54.8703   -9.2955 H   0  0  0  0  0  0  0  0  0  0  0  0
  1  2  1  0
  2  3  1  0
  3  4  1  0
  4  5  2  0
  4  6  1  0
  6  7  1  0
  7  8  1  0
  8  9  1  0
  9 10  1  0
 10 11  2  0
 11 12  1  0
 12 13  1  0
 13 14  2  0
 13 15  1  0
 15 16  2  0
 16 17  1  0
 17 18  2  0
 18 19  1  0
 19 20  1  0
 20 21  1  0
 21 22  1  0
 22 23  1  0
 22 24  1  0
 24 25  1  0
 18 26  1  0
 26 27  2  0
 11 28  1  0
 28 29  1  0
  3 30  1  0
 30 31  2  0
 31 32  1  0
 32 33  2  0
 33 34  1  0
 34 35  2  0
 29  6  1  0
 35 30  1  0
 28  8  2  0
 27 15  1  0
 25 19  1  0
  1 36  1  0
  1 37  1  0
  1 38  1  0
  3 39  1  6
  7 40  1  0
  7 41  1  0
  9 42  1  0
 10 43  1  0
 12 44  1  0
 16 45  1  0
 17 46  1  0
 20 47  1  0
 20 48  1  0
 21 49  1  0
 21 50  1  0
 22 51  1  0
 23 52  1  0
 23 53  1  0
 23 54  1  0
 24 55  1  0
 24 56  1  0
 25 57  1  0
 25 58  1  0
 26 59  1  0
 27 60  1  0
 29 61  1  0
 29 62  1  0
 31 63  1  0
 32 64  1  0
 33 65  1  0
 34 66  1  0
 35 67  1  0
M  CHG  2  10   1  22   1
M  END
>  <meeko>  (5) 
{"is_sidechain": [false], "free_energy": -7.966, "intermolecular_energy": -11.344, "internal_energy": -1.052}

$$$$
2v7a_ligand
     RDKit          3D

 67 71  0  0  0  0  0  0  0  0999 V2000
  -39.8100  -43.9800   -8.8090 C   0  0  0  0  0  0  0  0  0  0  0  0
  -40.3270  -45.3040   -8.7110 O   0  0  0  0  0  0  0  0  0  0  0  0
  -41.7580  -45.3230   -8.6310 C   0  0  1  0  0  0  0  0  0  0  0  0
  -42.3540  -45.7440  -10.0010 C   0  0  0  0  0  0  0  0  0  0  0  0
  -43.3150  -45.1360  -10.4870 O   0  0  0  0  0  0  0  0  0  0  0  0
  -41.8330  -46.8360  -10.6700 N   0  0  0  0  0  0  0  0  0  0  0  0
  -40.5710  -46.8640  -11.4470 C   0  0  0  0  0  0  0  0  0  0  0  0
  -40.5220  -48.2770  -11.8290 C   0  0  0  0  0  0  0  0  0  0  0  0
  -39.6770  -49.1360  -12.5230 N   0  0  0  0  0  0  0  0  0  0  0  0
  -40.3710  -50.5180  -12.4710 N   0  0  0  0  0  0  0  0  0  0  0  0
  -41.5840  -50.3550  -11.7390 C   0  0  0  0  0  0  0  0  0  0  0  0
  -42.5260  -51.4400  -11.4720 N   0  0  0  0  0  0  0  0  0  0  0  0
  -42.8380  -52.3140  -12.4940 C   0  0  0  0  0  0  0  0  0  0  0  0
  -42.3390  -52.1640  -13.6100 O   0  0  0  0  0  0  0  0  0  0  0  0
  -43.8050  -53.4110  -12.2150 C   0  0  0  0  0  0  0  0  0  0  0  0
  -43.7300  -54.6660  -12.8220 C   0  0  0  0  0  0  0  0  0  0  0  0
  -44.6820  -55.6510  -12.5160 C   0  0  0  0  0  0  0  0  0  0  0  0
  -45.7330  -55.4200  -11.6110 C   0  0  0  0  0  0  0  0  0  0  0  0
  -46.6540  -56.4490  -11.3350 N   0  0  0  0  0  0  0  0  0  0  0  0
  -47.8490  -55.9670  -10.5840 C   0  0  0  0  0  0  0  0  0  0  0  0
  -48.7680  -57.1390  -10.1500 C   0  0  0  0  0  0  0  0  0  0  0  0
  -48.5790  -58.3060  -11.1020 N   0  0  0  0  0  0  0  0  0  0  0  0
  -49.6390  -59.3520  -10.9920 C   0  0  0  0  0  0  0  0  0  0  0  0
  -47.1690  -58.8710  -11.0030 C   0  0  0  0  0  0  0  0  0  0  0  0
  -46.1170  -57.7430  -10.8540 C   0  0  0  0  0  0  0  0  0  0  0  0
  -45.7900  -54.1510  -11.0170 C   0  0  0  0  0  0  0  0  0  0  0  0
  -44.8470  -53.1570  -11.3190 C   0  0  0  0  0  0  0  0  0  0  0  0
  -41.6690  -48.9890  -11.3560 C   0  0  0  0  0  0  0  0  0  0  0  0
  -42.5640  -48.1110  -10.6240 C   0  0  0  0  0  0  0  0  0  0  0  0
  -42.2620  -46.2170   -7.5040 C   0  0  0  0  0  0  0  0  0  0  0  0
  -41.3890  -46.8910   -6.6350 C   0  0  0  0  0  0  0  0  0  0  0  0
  -41.8820  -47.6950   -5.6060 C   0  0  0  0  0  0  0  0  0  0  0  0
  -43.2570  -47.8310   -5.4240 C   0  0  0  0  0  0  0  0  0  0  0  0
  -44.1370  -47.1600   -6.2670 C   0  0  0  0  0  0  0  0  0  0  0  0
  -43.6450  -46.3560   -7.2960 C   0  0  0  0  0  0  0  0  0  0  0  0
  -39.6510  -43.5728   -7.7996 H   0  0  0  0  0  0  0  0  0  0  0  0
  -38.8533  -43.9992   -9.3515 H   0  0  0  0  0  0  0  0  0  0  0  0
  -40.5265  -43.3458   -9.3515 H   0  0  0  0  0  0  0  0  0  0  0  0
  -42.0999  -44.3054   -8.3911 H   0  0  0  0  0  0  0  0  0  0  0  0
  -40.6221  -46.2070  -12.3278 H   0  0  0  0  0  0  0  0  0  0  0  0
  -39.6872  -46.5075  -10.8976 H   0  0  0  0  0  0  0  0  0  0  0  0
  -38.7830  -48.9550  -12.9850 H   0  0  0  0  0  0  0  0  0  0  0  0
  -40.0530  -51.4070  -12.8760 H   0  0  0  0  0  0  0  0  0  0  0  0
  -42.9710  -51.4960  -10.5640 H   0  0  0  0  0  0  0  0  0  0  0  0
  -42.9252  -54.8828  -13.5398 H   0  0  0  0  0  0  0  0  0  0  0  0
  -44.6033  -56.6357  -12.9999 H   0  0  0  0  0  0  0  0  0  0  0  0
  -47.5118  -55.4278   -9.6865 H   0  0  0  0  0  0  0  0  0  0  0  0
  -48.4268  -55.3072  -11.2479 H   0  0  0  0  0  0  0  0  0  0  0  0
  -48.5059  -57.4522   -9.1286 H   0  0  0  0  0  0  0  0  0  0  0  0
  -49.8178  -56.8114  -10.1737 H   0  0  0  0  0  0  0  0  0  0  0  0
  -48.6220  -57.8930  -12.0450 H   0  0  0  0  0  0  0  0  0  0  0  0
  -49.8449  -59.5552   -9.9307 H   0  0  0  0  0  0  0  0  0  0  0  0
  -50.5573  -58.9964  -11.4821 H   0  0  0  0  0  0  0  0  0  0  0  0
  -49.2956  -60.2750  -11.4821 H   0  0  0  0  0  0  0  0  0  0  0  0
  -47.1097  -59.5337  -10.1270 H   0  0  0  0  0  0  0  0  0  0  0  0
  -46.9528  -59.4261  -11.9277 H   0  0  0  0  0  0  0  0  0  0  0  0
  -45.8413  -57.6461   -9.7935 H   0  0  0  0  0  0  0  0  0  0  0  0
  -45.2361  -58.0034  -11.4591 H   0  0  0  0  0  0  0  0  0  0  0  0
  -46.5924  -53.9298  -10.2978 H   0  0  0  0  0  0  0  0  0  0  0  0
  -44.9287  -52.1674  -10.8456 H   0  0  0  0  0  0  0  0  0  0  0  0
  -43.5422  -48.0307  -11.1207 H   0  0  0  0  0  0  0  0  0  0  0  0
  -42.7955  -48.4569   -9.6058 H   0  0  0  0  0  0  0  0  0  0  0  0
  -40.3022  -46.7840   -6.7669 H   0  0  0  0  0  0  0  0  0  0  0  0
  -41.1846  -48.2218   -4.9381 H   0  0  0  0  0  0  0  0  0  0  0  0
  -43.6456  -48.4676   -4.6155 H   0  0  0  0  0  0  0  0  0  0  0  0
  -45.2225  -47.2634   -6.1222 H   0  0  0  0  0  0  0  0  0  0  0  0
  -44.3489  -45.8240   -7.9530 H   0  0  0  0  0  0  0  0  0  0  0  0
  1  2  1  0
  2  3  1  0
  3  4  1  0
  4  5  2  0
  4  6  1  0
  6  7  1  0
  7  8  1  0
  8  9  1  0
  9 10  1  0
 10 11  2  0
 11 12  1  0
 12 13  1  0
 13 14  2  0
 13 15  1  0
 15 16  2  0
 16 17  1  0
 17 18  2  0
 18 19  1  0
 19 20  1  0
 20 21  1  0
 21 22  1  0
 22 23  1  0
 22 24  1  0
 24 25  1  0
 18 26  1  0
 26 27  2  0
 11 28  1  0
 28 29  1  0
  3 30  1  0
 30 31  2  0
 31 32  1  0
 32 33  2  0
 33 34  1  0
 34 35  2  0
 29  6  1  0
 35 30  1  0
 28  8  2  0
 27 15  1  0
 25 19  1  0
  1 36  1  0
  1 37  1  0
  1 38  1  0
  3 39  1  1
  7 40  1  0
  7 41  1  0
  9 42  1  0
 10 43  1  0
 12 44  1  0
 16 45  1  0
 17 46  1  0
 20 47  1  0
 20 48  1  0
 21 49  1  0
 21 50  1  0
 22 51  1  0
 23 52  1  0
 23 53  1  0
 23 54  1  0
 24 55  1  0
 24 56  1  0
 25 57  1  0
 25 58  1  0
 26 59  1  0
 27 60  1  0
 29 61  1  0
 29 62  1  0
 31 63  1  0
 32 64  1  0
 33 65  1  0
 34 66  1  0
 35 67  1  0
M  CHG  2  10   1  22   1
M  END
>  <meeko>  (6) 
{"is_sidechain": [false], "free_energy": -7.949, "intermolecular_energy": -11.21, "internal_energy": -1.161}

$$$$
2v7a_ligand
     RDKit          3D

 67 71  0  0  0  0  0  0  0  0999 V2000
  -39.1760  -48.4740  -12.2240 C   0  0  0  0  0  0  0  0  0  0  0  0
  -40.1370  -49.4190  -12.6850 O   0  0  0  0  0  0  0  0  0  0  0  0
  -41.2070  -49.6050  -11.7510 C   0  0  1  0  0  0  0  0  0  0  0  0
  -42.0720  -48.3170  -11.6820 C   0  0  0  0  0  0  0  0  0  0  0  0
  -42.4460  -47.7490  -12.7160 O   0  0  0  0  0  0  0  0  0  0  0  0
  -42.3980  -47.7740  -10.4530 N   0  0  0  0  0  0  0  0  0  0  0  0
  -41.9310  -46.4710   -9.9220 C   0  0  0  0  0  0  0  0  0  0  0  0
  -42.6640  -46.4200   -8.6550 C   0  0  0  0  0  0  0  0  0  0  0  0
  -42.8240  -45.5490   -7.5830 N   0  0  0  0  0  0  0  0  0  0  0  0
  -43.8050  -46.2630   -6.6220 N   0  0  0  0  0  0  0  0  0  0  0  0
  -44.1460  -47.5120   -7.2180 C   0  0  0  0  0  0  0  0  0  0  0  0
  -45.0570  -48.4820   -6.6130 N   0  0  0  0  0  0  0  0  0  0  0  0
  -44.5510  -49.6970   -6.1990 C   0  0  0  0  0  0  0  0  0  0  0  0
  -43.3570  -49.9560   -6.3550 O   0  0  0  0  0  0  0  0  0  0  0  0
  -45.4880  -50.6820   -5.5910 C   0  0  0  0  0  0  0  0  0  0  0  0
  -45.4680  -51.0170   -4.2360 C   0  0  0  0  0  0  0  0  0  0  0  0
  -46.3770  -51.9620   -3.7340 C   0  0  0  0  0  0  0  0  0  0  0  0
  -47.3220  -52.6010   -4.5560 C   0  0  0  0  0  0  0  0  0  0  0  0
  -48.2160  -53.5330   -3.9950 N   0  0  0  0  0  0  0  0  0  0  0  0
  -49.5840  -52.9730   -3.7980 C   0  0  0  0  0  0  0  0  0  0  0  0
  -50.5060  -53.9580   -3.0330 C   0  0  0  0  0  0  0  0  0  0  0  0
  -50.0220  -55.3780   -3.2580 N   0  0  0  0  0  0  0  0  0  0  0  0
  -51.0100  -56.4240   -2.8570 C   0  0  0  0  0  0  0  0  0  0  0  0
  -48.6440  -55.5920   -2.6450 C   0  0  0  0  0  0  0  0  0  0  0  0
  -47.7310  -54.3590   -2.8640 C   0  0  0  0  0  0  0  0  0  0  0  0
  -47.3200  -52.2510   -5.9130 C   0  0  0  0  0  0  0  0  0  0  0  0
  -46.4130  -51.3130   -6.4280 C   0  0  0  0  0  0  0  0  0  0  0  0
  -43.4460  -47.6000   -8.4520 C   0  0  0  0  0  0  0  0  0  0  0  0
  -43.2980  -48.5230   -9.5630 C   0  0  0  0  0  0  0  0  0  0  0  0
  -42.0540  -50.8290  -12.0770 C   0  0  0  0  0  0  0  0  0  0  0  0
  -43.2220  -51.1440  -11.3630 C   0  0  0  0  0  0  0  0  0  0  0  0
  -43.9810  -52.2680  -11.6940 C   0  0  0  0  0  0  0  0  0  0  0  0
  -43.5910  -53.0900  -12.7480 C   0  0  0  0  0  0  0  0  0  0  0  0
  -42.4430  -52.7860  -13.4760 C   0  0  0  0  0  0  0  0  0  0  0  0
  -41.6840  -51.6630  -13.1470 C   0  0  0  0  0  0  0  0  0  0  0  0
  -39.1679  -48.4661  -11.1241 H   0  0  0  0  0  0  0  0  0  0  0  0
  -38.1792  -48.7535  -12.5960 H   0  0  0  0  0  0  0  0  0  0  0  0
  -39.4387  -47.4727  -12.5960 H   0  0  0  0  0  0  0  0  0  0  0  0
  -40.7661  -49.7929  -10.7609 H   0  0  0  0  0  0  0  0  0  0  0  0
  -40.8427  -46.4644   -9.7620 H   0  0  0  0  0  0  0  0  0  0  0  0
  -42.1087  -45.6144  -10.5888 H   0  0  0  0  0  0  0  0  0  0  0  0
  -42.4130  -44.6280   -7.4100 H   0  0  0  0  0  0  0  0  0  0  0  0
  -44.1630  -45.9350   -5.7170 H   0  0  0  0  0  0  0  0  0  0  0  0
  -46.0450  -48.2660   -6.5610 H   0  0  0  0  0  0  0  0  0  0  0  0
  -44.7406  -50.5409   -3.5620 H   0  0  0  0  0  0  0  0  0  0  0  0
  -46.3490  -52.2105   -2.6628 H   0  0  0  0  0  0  0  0  0  0  0  0
  -49.5066  -52.0385   -3.2229 H   0  0  0  0  0  0  0  0  0  0  0  0
  -50.0251  -52.7924   -4.7894 H   0  0  0  0  0  0  0  0  0  0  0  0
  -50.4786  -53.7268   -1.9579 H   0  0  0  0  0  0  0  0  0  0  0  0
  -51.5374  -53.8582   -3.4021 H   0  0  0  0  0  0  0  0  0  0  0  0
  -49.8620  -55.4510   -4.2740 H   0  0  0  0  0  0  0  0  0  0  0  0
  -51.0613  -56.4784   -1.7595 H   0  0  0  0  0  0  0  0  0  0  0  0
  -52.0011  -56.1653   -3.2581 H   0  0  0  0  0  0  0  0  0  0  0  0
  -50.6952  -57.3987   -3.2581 H   0  0  0  0  0  0  0  0  0  0  0  0
  -48.7559  -55.7673   -1.5648 H   0  0  0  0  0  0  0  0  0  0  0  0
  -48.1778  -56.4597   -3.1346 H   0  0  0  0  0  0  0  0  0  0  0  0
  -47.7256  -53.7484   -1.9490 H   0  0  0  0  0  0  0  0  0  0  0  0
  -46.7157  -54.7119   -3.0979 H   0  0  0  0  0  0  0  0  0  0  0  0
  -48.0469  -52.7230   -6.5904 H   0  0  0  0  0  0  0  0  0  0  0  0
  -46.4298  -51.0716   -7.5010 H   0  0  0  0  0  0  0  0  0  0  0  0
  -42.8443  -49.4713   -9.2391 H   0  0  0  0  0  0  0  0  0  0  0  0
  -44.2494  -48.8148  -10.0317 H   0  0  0  0  0  0  0  0  0  0  0  0
  -43.5425  -50.4972  -10.5330 H   0  0  0  0  0  0  0  0  0  0  0  0
  -44.8894  -52.5048  -11.1207 H   0  0  0  0  0  0  0  0  0  0  0  0
  -44.1880  -53.9774  -13.0052 H   0  0  0  0  0  0  0  0  0  0  0  0
  -42.1347  -53.4322  -14.3111 H   0  0  0  0  0  0  0  0  0  0  0  0
  -40.7834  -51.4265  -13.7327 H   0  0  0  0  0  0  0  0  0  0  0  0
  1  2  1  0
  2  3  1  0
  3  4  1  0
  4  5  2  0
  4  6  1  0
  6  7  1  0
  7  8  1  0
  8  9  1  0
  9 10  1  0
 10 11  2  0
 11 12  1  0
 12 13  1  0
 13 14  2  0
 13 15  1  0
 15 16  2  0
 16 17  1  0
 17 18  2  0
 18 19  1  0
 19 20  1  0
 20 21  1  0
 21 22  1  0
 22 23  1  0
 22 24  1  0
 24 25  1  0
 18 26  1  0
 26 27  2  0
 11 28  1  0
 28 29  1  0
  3 30  1  0
 30 31  2  0
 31 32  1  0
 32 33  2  0
 33 34  1  0
 34 35  2  0
 29  6  1  0
 35 30  1  0
 28  8  2  0
 27 15  1  0
 25 19  1  0
  1 36  1  0
  1 37  1  0
  1 38  1  0
  3 39  1  1
  7 40  1  0
  7 41  1  0
  9 42  1  0
 10 43  1  0
 12 44  1  0
 16 45  1  0
 17 46  1  0
 20 47  1  0
 20 48  1  0
 21 49  1  0
 21 50  1  0
 22 51  1  0
 23 52  1  0
 23 53  1  0
 23 54  1  0
 24 55  1  0
 24 56  1  0
 25 57  1  0
 25 58  1  0
 26 59  1  0
 27 60  1  0
 29 61  1  0
 29 62  1  0
 31 63  1  0
 32 64  1  0
 33 65  1  0
 34 66  1  0
 35 67  1  0
M  CHG  2  10   1  22   1
M  END
>  <meeko>  (7) 
{"is_sidechain": [false], "free_energy": -7.917, "intermolecular_energy": -11.593, "internal_energy": -0.734}

$$$$
2v7a_ligand
     RDKit          3D

 67 71  0  0  0  0  0  0  0  0999 V2000
  -50.8200  -53.7970  -14.5310 C   0  0  0  0  0  0  0  0  0  0  0  0
  -50.2960  -55.0400  -14.9900 O   0  0  0  0  0  0  0  0  0  0  0  0
  -48.8650  -55.0280  -15.0730 C   0  0  1  0  0  0  0  0  0  0  0  0
  -48.2730  -56.0370  -14.0520 C   0  0  0  0  0  0  0  0  0  0  0  0
  -49.0070  -56.8170  -13.4340 O   0  0  0  0  0  0  0  0  0  0  0  0
  -46.9140  -56.0400  -13.8000 N   0  0  0  0  0  0  0  0  0  0  0  0
  -45.9720  -57.1440  -14.0990 C   0  0  0  0  0  0  0  0  0  0  0  0
  -44.7040  -56.5330  -13.6940 C   0  0  0  0  0  0  0  0  0  0  0  0
  -43.3530  -56.8620  -13.6720 N   0  0  0  0  0  0  0  0  0  0  0  0
  -42.6430  -55.6220  -13.0760 N   0  0  0  0  0  0  0  0  0  0  0  0
  -43.6500  -54.6530  -12.7930 C   0  0  0  0  0  0  0  0  0  0  0  0
  -43.3760  -53.3380  -12.2170 N   0  0  0  0  0  0  0  0  0  0  0  0
  -42.4460  -52.5260  -12.8350 C   0  0  0  0  0  0  0  0  0  0  0  0
  -41.8540  -52.9170  -13.8420 O   0  0  0  0  0  0  0  0  0  0  0  0
  -42.1670  -51.1910  -12.2370 C   0  0  0  0  0  0  0  0  0  0  0  0
  -42.7960  -50.7280  -11.0800 C   0  0  0  0  0  0  0  0  0  0  0  0
  -42.4890  -49.4540  -10.5760 C   0  0  0  0  0  0  0  0  0  0  0  0
  -41.5600  -48.6060  -11.2050 C   0  0  0  0  0  0  0  0  0  0  0  0
  -41.2840  -47.3410  -10.6490 N   0  0  0  0  0  0  0  0  0  0  0  0
  -42.3060  -46.9140   -9.6510 C   0  0  0  0  0  0  0  0  0  0  0  0
  -42.0710  -45.4580   -9.1730 C   0  0  0  0  0  0  0  0  0  0  0  0
  -40.6020  -45.1090   -9.3220 N   0  0  0  0  0  0  0  0  0  0  0  0
  -40.1990  -43.8710   -8.5920 C   0  0  0  0  0  0  0  0  0  0  0  0
  -40.1870  -45.1010  -10.7880 C   0  0  0  0  0  0  0  0  0  0  0  0
  -40.8480  -46.2650  -11.5690 C   0  0  0  0  0  0  0  0  0  0  0  0
  -40.9450  -49.0910  -12.3670 C   0  0  0  0  0  0  0  0  0  0  0  0
  -41.2470  -50.3600  -12.8820 C   0  0  0  0  0  0  0  0  0  0  0  0
  -44.8990  -55.2160  -13.1690 C   0  0  0  0  0  0  0  0  0  0  0  0
  -46.3040  -54.8500  -13.1870 C   0  0  0  0  0  0  0  0  0  0  0  0
  -48.3660  -55.3040  -16.4850 C   0  0  0  0  0  0  0  0  0  0  0  0
  -47.2490  -54.6460  -17.0270 C   0  0  0  0  0  0  0  0  0  0  0  0
  -46.8100  -54.9290  -18.3220 C   0  0  0  0  0  0  0  0  0  0  0  0
  -47.4750  -55.8800  -19.0930 C   0  0  0  0  0  0  0  0  0  0  0  0
  -48.5750  -56.5520  -18.5680 C   0  0  0  0  0  0  0  0  0  0  0  0
  -49.0140  -56.2710  -17.2740 C   0  0  0  0  0  0  0  0  0  0  0  0
  -50.8251  -53.7850  -13.4311 H   0  0  0  0  0  0  0  0  0  0  0  0
  -50.1921  -52.9743  -14.9038 H   0  0  0  0  0  0  0  0  0  0  0  0
  -51.8473  -53.6721  -14.9038 H   0  0  0  0  0  0  0  0  0  0  0  0
  -48.5163  -54.0164  -14.8178 H   0  0  0  0  0  0  0  0  0  0  0  0
  -46.1977  -58.0419  -13.5051 H   0  0  0  0  0  0  0  0  0  0  0  0
  -45.9974  -57.4977  -15.1403 H   0  0  0  0  0  0  0  0  0  0  0  0
  -42.8740  -57.7140  -13.9710 H   0  0  0  0  0  0  0  0  0  0  0  0
  -41.6400  -55.4860  -12.8980 H   0  0  0  0  0  0  0  0  0  0  0  0
  -43.8280  -53.0740  -11.3520 H   0  0  0  0  0  0  0  0  0  0  0  0
  -43.5321  -51.3612  -10.5632 H   0  0  0  0  0  0  0  0  0  0  0  0
  -42.9909  -49.1083   -9.6603 H   0  0  0  0  0  0  0  0  0  0  0  0
  -43.3028  -46.9811  -10.1112 H   0  0  0  0  0  0  0  0  0  0  0  0
  -42.2285  -47.5775   -8.7770 H   0  0  0  0  0  0  0  0  0  0  0  0
  -42.6752  -44.7698   -9.7823 H   0  0  0  0  0  0  0  0  0  0  0  0
  -42.3649  -45.3662   -8.1170 H   0  0  0  0  0  0  0  0  0  0  0  0
  -40.0930  -45.9090   -8.9190 H   0  0  0  0  0  0  0  0  0  0  0  0
  -40.2570  -44.0492   -7.5081 H   0  0  0  0  0  0  0  0  0  0  0  0
  -39.1675  -43.6037   -8.8650 H   0  0  0  0  0  0  0  0  0  0  0  0
  -40.8755  -43.0477   -8.8650 H   0  0  0  0  0  0  0  0  0  0  0  0
  -40.4929  -44.1466  -11.2414 H   0  0  0  0  0  0  0  0  0  0  0  0
  -39.0953  -45.2254  -10.8395 H   0  0  0  0  0  0  0  0  0  0  0  0
  -41.7229  -45.8813  -12.1142 H   0  0  0  0  0  0  0  0  0  0  0  0
  -40.1093  -46.6810  -12.2700 H   0  0  0  0  0  0  0  0  0  0  0  0
  -40.2081  -48.4616  -12.8874 H   0  0  0  0  0  0  0  0  0  0  0  0
  -40.7546  -50.7048  -13.8032 H   0  0  0  0  0  0  0  0  0  0  0  0
  -46.6876  -54.6815  -12.1699 H   0  0  0  0  0  0  0  0  0  0  0  0
  -46.5147  -53.9133  -13.7238 H   0  0  0  0  0  0  0  0  0  0  0  0
  -46.7135  -53.8984  -16.4234 H   0  0  0  0  0  0  0  0  0  0  0  0
  -45.9378  -54.4003  -18.7340 H   0  0  0  0  0  0  0  0  0  0  0  0
  -47.1314  -56.0993  -20.1147 H   0  0  0  0  0  0  0  0  0  0  0  0
  -49.0989  -57.3057  -19.1742 H   0  0  0  0  0  0  0  0  0  0  0  0
  -49.8792  -56.8135  -16.8651 H   0  0  0  0  0  0  0  0  0  0  0  0
  1  2  1  0
  2  3  1  0
  3  4  1  0
  4  5  2  0
  4  6  1  0
  6  7  1  0
  7  8  1  0
  8  9  1  0
  9 10  1  0
 10 11  2  0
 11 12  1  0
 12 13  1  0
 13 14  2  0
 13 15  1  0
 15 16  2  0
 16 17  1  0
 17 18  2  0
 18 19  1  0
 19 20  1  0
 20 21  1  0
 21 22  1  0
 22 23  1  0
 22 24  1  0
 24 25  1  0
 18 26  1  0
 26 27  2  0
 11 28  1  0
 28 29  1  0
  3 30  1  0
 30 31  2  0
 31 32  1  0
 32 33  2  0
 33 34  1  0
 34 35  2  0
 29  6  1  0
 35 30  1  0
 28  8  2  0
 27 15  1  0
 25 19  1  0
  1 36  1  0
  1 37  1  0
  1 38  1  0
  3 39  1  1
  7 40  1  0
  7 41  1  0
  9 42  1  0
 10 43  1  0
 12 44  1  0
 16 45  1  0
 17 46  1  0
 20 47  1  0
 20 48  1  0
 21 49  1  0
 21 50  1  0
 22 51  1  0
 23 52  1  0
 23 53  1  0
 23 54  1  0
 24 55  1  0
 24 56  1  0
 25 57  1  0
 25 58  1  0
 26 59  1  0
 27 60  1  0
 29 61  1  0
 29 62  1  0
 31 63  1  0
 32 64  1  0
 33 65  1  0
 34 66  1  0
 35 67  1  0
M  CHG  2  10   1  22   1
M  END
>  <meeko>  (8) 
{"is_sidechain": [false], "free_energy": -7.557, "intermolecular_energy": -10.449, "internal_energy": -1.371}

$$$$
2v7a_ligand
     RDKit          3D

 67 71  0  0  0  0  0  0  0  0999 V2000
  -49.5410  -48.6410   -4.5790 C   0  0  0  0  0  0  0  0  0  0  0  0
  -48.2090  -48.3620   -4.1550 O   0  0  0  0  0  0  0  0  0  0  0  0
  -47.2370  -49.1200   -4.8840 C   0  0  1  0  0  0  0  0  0  0  0  0
  -45.8360  -48.4710   -4.7220 C   0  0  0  0  0  0  0  0  0  0  0  0
  -45.3830  -48.2140   -3.6000 O   0  0  0  0  0  0  0  0  0  0  0  0
  -45.0990  -48.1400   -5.8430 N   0  0  0  0  0  0  0  0  0  0  0  0
  -44.5460  -46.8030   -6.1630 C   0  0  0  0  0  0  0  0  0  0  0  0
  -43.8160  -47.1020   -7.3970 C   0  0  0  0  0  0  0  0  0  0  0  0
  -43.0090  -46.4350   -8.3130 N   0  0  0  0  0  0  0  0  0  0  0  0
  -42.6240  -47.5020   -9.3660 N   0  0  0  0  0  0  0  0  0  0  0  0
  -43.2440  -48.7250   -8.9750 C   0  0  0  0  0  0  0  0  0  0  0  0
  -43.1170  -49.9770   -9.7190 N   0  0  0  0  0  0  0  0  0  0  0  0
  -43.2630  -49.9490  -11.0920 C   0  0  0  0  0  0  0  0  0  0  0  0
  -43.5100  -48.8880  -11.6670 O   0  0  0  0  0  0  0  0  0  0  0  0
  -43.1410  -51.2300  -11.8410 C   0  0  0  0  0  0  0  0  0  0  0  0
  -42.1470  -51.4630  -12.7940 C   0  0  0  0  0  0  0  0  0  0  0  0
  -42.0970  -52.6940  -13.4680 C   0  0  0  0  0  0  0  0  0  0  0  0
  -43.0290  -53.7190  -13.2230 C   0  0  0  0  0  0  0  0  0  0  0  0
  -42.9240  -54.9370  -13.9220 N   0  0  0  0  0  0  0  0  0  0  0  0
  -43.2220  -54.7950  -15.3760 C   0  0  0  0  0  0  0  0  0  0  0  0
  -43.2600  -56.1690  -16.0930 C   0  0  0  0  0  0  0  0  0  0  0  0
  -42.3940  -57.1580  -15.3350 N   0  0  0  0  0  0  0  0  0  0  0  0
  -42.0840  -58.4010  -16.1010 C   0  0  0  0  0  0  0  0  0  0  0  0
  -42.9640  -57.4350  -13.9500 C   0  0  0  0  0  0  0  0  0  0  0  0
  -43.5160  -56.1430  -13.2970 C   0  0  0  0  0  0  0  0  0  0  0  0
  -44.0190  -53.4590  -12.2660 C   0  0  0  0  0  0  0  0  0  0  0  0
  -44.0820  -52.2320  -11.5900 C   0  0  0  0  0  0  0  0  0  0  0  0
  -43.9690  -48.4720   -7.7790 C   0  0  0  0  0  0  0  0  0  0  0  0
  -44.8050  -49.1880   -6.8330 C   0  0  0  0  0  0  0  0  0  0  0  0
  -47.2230  -50.5880   -4.4740 C   0  0  0  0  0  0  0  0  0  0  0  0
  -47.0340  -50.9920   -3.1430 C   0  0  0  0  0  0  0  0  0  0  0  0
  -47.0360  -52.3450   -2.7980 C   0  0  0  0  0  0  0  0  0  0  0  0
  -47.2360  -53.3150   -3.7770 C   0  0  0  0  0  0  0  0  0  0  0  0
  -47.4390  -52.9330   -5.1010 C   0  0  0  0  0  0  0  0  0  0  0  0
  -47.4370  -51.5810   -5.4460 C   0  0  0  0  0  0  0  0  0  0  0  0
  -50.1856  -48.7760   -3.6979 H   0  0  0  0  0  0  0  0  0  0  0  0
  -49.9168  -47.8021   -5.1831 H   0  0  0  0  0  0  0  0  0  0  0  0
  -49.5485  -49.5602   -5.1831 H   0  0  0  0  0  0  0  0  0  0  0  0
  -47.5176  -49.1010   -5.9474 H   0  0  0  0  0  0  0  0  0  0  0  0
  -45.3431  -46.0641   -6.3321 H   0  0  0  0  0  0  0  0  0  0  0  0
  -43.9330  -46.3585   -5.3651 H   0  0  0  0  0  0  0  0  0  0  0  0
  -42.7020  -45.4600   -8.3390 H   0  0  0  0  0  0  0  0  0  0  0  0
  -42.0380  -47.3900  -10.2020 H   0  0  0  0  0  0  0  0  0  0  0  0
  -42.9820  -50.8420   -9.2120 H   0  0  0  0  0  0  0  0  0  0  0  0
  -41.4040  -50.6830  -13.0165 H   0  0  0  0  0  0  0  0  0  0  0  0
  -41.3037  -52.8622  -14.2113 H   0  0  0  0  0  0  0  0  0  0  0  0
  -44.2000  -54.3053  -15.4928 H   0  0  0  0  0  0  0  0  0  0  0  0
  -42.4217  -54.1936  -15.8318 H   0  0  0  0  0  0  0  0  0  0  0  0
  -44.2959  -56.5376  -16.1249 H   0  0  0  0  0  0  0  0  0  0  0  0
  -42.8790  -56.0584  -17.1189 H   0  0  0  0  0  0  0  0  0  0  0  0
  -41.5120  -56.6570  -15.1510 H   0  0  0  0  0  0  0  0  0  0  0  0
  -41.8791  -59.2228  -15.3991 H   0  0  0  0  0  0  0  0  0  0  0  0
  -42.9437  -58.6655  -16.7342 H   0  0  0  0  0  0  0  0  0  0  0  0
  -41.2008  -58.2308  -16.7342 H   0  0  0  0  0  0  0  0  0  0  0  0
  -43.7796  -58.1678  -14.0387 H   0  0  0  0  0  0  0  0  0  0  0  0
  -42.1554  -57.8257  -13.3147 H   0  0  0  0  0  0  0  0  0  0  0  0
  -44.6083  -56.1144  -13.4237 H   0  0  0  0  0  0  0  0  0  0  0  0
  -43.2518  -56.1497  -12.2292 H   0  0  0  0  0  0  0  0  0  0  0  0
  -44.7643  -54.2357  -12.0397 H   0  0  0  0  0  0  0  0  0  0  0  0
  -44.8807  -52.0564  -10.8543 H   0  0  0  0  0  0  0  0  0  0  0  0
  -45.7243  -49.5582   -7.3103 H   0  0  0  0  0  0  0  0  0  0  0  0
  -44.3309  -50.0846   -6.4071 H   0  0  0  0  0  0  0  0  0  0  0  0
  -46.8823  -50.2328   -2.3616 H   0  0  0  0  0  0  0  0  0  0  0  0
  -46.8794  -52.6451   -1.7514 H   0  0  0  0  0  0  0  0  0  0  0  0
  -47.2337  -54.3809   -3.5052 H   0  0  0  0  0  0  0  0  0  0  0  0
  -47.6010  -53.6976   -5.8751 H   0  0  0  0  0  0  0  0  0  0  0  0
  -47.6052  -51.2881   -6.4929 H   0  0  0  0  0  0  0  0  0  0  0  0
  1  2  1  0
  2  3  1  0
  3  4  1  0
  4  5  2  0
  4  6  1  0
  6  7  1  0
  7  8  1  0
  8  9  1  0
  9 10  1  0
 10 11  2  0
 11 12  1  0
 12 13  1  0
 13 14  2  0
 13 15  1  0
 15 16  2  0
 16 17  1  0
 17 18  2  0
 18 19  1  0
 19 20  1  0
 20 21  1  0
 21 22  1  0
 22 23  1  0
 22 24  1  0
 24 25  1  0
 18 26  1  0
 26 27  2  0
 11 28  1  0
 28 29  1  0
  3 30  1  0
 30 31  2  0
 31 32  1  0
 32 33  2  0
 33 34  1  0
 34 35  2  0
 29  6  1  0
 35 30  1  0
 28  8  2  0
 27 15  1  0
 25 19  1  0
  1 36  1  0
  1 37  1  0
  1 38  1  0
  3 39  1  6
  7 40  1  0
  7 41  1  0
  9 42  1  0
 10 43  1  0
 12 44  1  0
 16 45  1  0
 17 46  1  0
 20 47  1  0
 20 48  1  0
 21 49  1  0
 21 50  1  0
 22 51  1  0
 23 52  1  0
 23 53  1  0
 23 54  1  0
 24 55  1  0
 24 56  1  0
 25 57  1  0
 25 58  1  0
 26 59  1  0
 27 60  1  0
 29 61  1  0
 29 62  1  0
 31 63  1  0
 32 64  1  0
 33 65  1  0
 34 66  1  0
 35 67  1  0
M  CHG  2  10   1  22   1
M  END
>  <meeko>  (9) 
{"is_sidechain": [false], "free_energy": -7.468, "intermolecular_energy": -10.623, "internal_energy": -1.071}

$$$$
