3mss_ligand
     RDKit          3D

 42 43  0  0  0  0  0  0  0  0999 V2000
  -13.0130    0.1280  -27.6960 C   0  0  0  0  0  0  0  0  0  0  0  0
  -12.4690   -1.1640  -28.0530 N   0  0  0  0  0  0  0  0  0  0  0  0
  -11.3100   -1.6320  -27.4960 C   0  0  0  0  0  0  0  0  0  0  0  0
  -10.6520   -1.0210  -26.6530 O   0  0  0  0  0  0  0  0  0  0  0  0
  -10.7870   -2.9960  -27.9840 C   0  0  1  0  0  0  0  0  0  0  0  0
  -11.7990   -4.0440  -27.5690 N   0  0  0  0  0  0  0  0  0  0  0  0
  -10.6230   -3.0540  -29.5070 C   0  0  0  0  0  0  0  0  0  0  0  0
   -9.1850   -3.1790  -29.9430 C   0  0  0  0  0  0  0  0  0  0  0  0
   -8.6220   -2.2400  -30.8180 C   0  0  0  0  0  0  0  0  0  0  0  0
   -7.2780   -2.3310  -31.1980 C   0  0  0  0  0  0  0  0  0  0  0  0
   -6.4810   -3.3660  -30.7120 C   0  0  0  0  0  0  0  0  0  0  0  0
   -5.1620   -3.5700  -30.9900 O   0  0  0  0  0  0  0  0  0  0  0  0
   -4.5830   -4.8060  -30.5740 C   0  0  0  0  0  0  0  0  0  0  0  0
   -3.0940   -4.6080  -30.4490 C   0  0  0  0  0  0  0  0  0  0  0  0
   -2.2190   -5.6840  -30.6600 C   0  0  0  0  0  0  0  0  0  0  0  0
   -0.8400   -5.5110  -30.5390 C   0  0  0  0  0  0  0  0  0  0  0  0
   -0.3200   -4.2620  -30.2020 C   0  0  0  0  0  0  0  0  0  0  0  0
   -1.1800   -3.1880  -29.9800 C   0  0  0  0  0  0  0  0  0  0  0  0
   -2.5620   -3.3600  -30.0990 C   0  0  0  0  0  0  0  0  0  0  0  0
   -7.0430   -4.3090  -29.8490 C   0  0  0  0  0  0  0  0  0  0  0  0
   -8.3830   -4.2250  -29.4700 C   0  0  0  0  0  0  0  0  0  0  0  0
  -13.0516    0.2196  -26.6005 H   0  0  0  0  0  0  0  0  0  0  0  0
  -12.3728    0.9220  -28.1080 H   0  0  0  0  0  0  0  0  0  0  0  0
  -14.0283    0.2249  -28.1080 H   0  0  0  0  0  0  0  0  0  0  0  0
  -12.9400   -1.6660  -28.8010 H   0  0  0  0  0  0  0  0  0  0  0  0
   -9.7951   -3.1677  -27.5405 H   0  0  0  0  0  0  0  0  0  0  0  0
  -12.6570   -3.9170  -28.1290 H   0  0  0  0  0  0  0  0  0  0  0  0
  -11.4720   -5.0120  -27.6460 H   0  0  0  0  0  0  0  0  0  0  0  0
  -12.1040   -3.8620  -26.6020 H   0  0  0  0  0  0  0  0  0  0  0  0
  -11.1806   -3.9231  -29.8862 H   0  0  0  0  0  0  0  0  0  0  0  0
  -11.0081   -2.1076  -29.9145 H   0  0  0  0  0  0  0  0  0  0  0  0
   -9.2437   -1.4219  -31.2107 H   0  0  0  0  0  0  0  0  0  0  0  0
   -6.8496   -1.5837  -31.8821 H   0  0  0  0  0  0  0  0  0  0  0  0
   -5.0021   -5.1054  -29.6020 H   0  0  0  0  0  0  0  0  0  0  0  0
   -4.8018   -5.5952  -31.3084 H   0  0  0  0  0  0  0  0  0  0  0  0
   -2.6236   -6.6725  -30.9231 H   0  0  0  0  0  0  0  0  0  0  0  0
   -0.1624   -6.3606  -30.7096 H   0  0  0  0  0  0  0  0  0  0  0  0
    0.7676   -4.1245  -30.1115 H   0  0  0  0  0  0  0  0  0  0  0  0
   -0.7705   -2.2033  -29.7107 H   0  0  0  0  0  0  0  0  0  0  0  0
   -3.2362   -2.5102  -29.9167 H   0  0  0  0  0  0  0  0  0  0  0  0
   -6.4205   -5.1295  -29.4626 H   0  0  0  0  0  0  0  0  0  0  0  0
   -8.8110   -4.9829  -28.7974 H   0  0  0  0  0  0  0  0  0  0  0  0
  1  2  1  0
  2  3  1  0
  3  4  2  0
  3  5  1  0
  5  6  1  0
  5  7  1  0
  7  8  1  0
  8  9  2  0
  9 10  1  0
 10 11  2  0
 11 12  1  0
 12 13  1  0
 13 14  1  0
 14 15  2  0
 15 16  1  0
 16 17  2  0
 17 18  1  0
 18 19  2  0
 11 20  1  0
 20 21  2  0
 21  8  1  0
 19 14  1  0
  1 22  1  0
  1 23  1  0
  1 24  1  0
  2 25  1  0
  5 26  1  1
  6 27  1  0
  6 28  1  0
  6 29  1  0
  7 30  1  0
  7 31  1  0
  9 32  1  0
 10 33  1  0
 13 34  1  0
 13 35  1  0
 15 36  1  0
 16 37  1  0
 17 38  1  0
 18 39  1  0
 19 40  1  0
 20 41  1  0
 21 42  1  0
M  CHG  1   6   1
M  END
>  <meeko>  (1) 
{"is_sidechain": [false], "free_energy": -7.079, "intermolecular_energy": -9.769, "internal_energy": -0.563}

$$$$
3mss_ligand
     RDKit          3D

 42 43  0  0  0  0  0  0  0  0999 V2000
  -10.2570    1.6360  -35.5000 C   0  0  0  0  0  0  0  0  0  0  0  0
   -9.6910    0.8420  -34.4310 N   0  0  0  0  0  0  0  0  0  0  0  0
  -10.4360    0.4680  -33.3460 C   0  0  0  0  0  0  0  0  0  0  0  0
  -11.6250    0.7500  -33.1920 O   0  0  0  0  0  0  0  0  0  0  0  0
   -9.7260   -0.3310  -32.2370 C   0  0  1  0  0  0  0  0  0  0  0  0
  -10.5700   -0.2160  -30.9840 N   0  0  0  0  0  0  0  0  0  0  0  0
   -9.5740   -1.8170  -32.5860 C   0  0  0  0  0  0  0  0  0  0  0  0
   -8.4560   -2.4910  -31.8310 C   0  0  0  0  0  0  0  0  0  0  0  0
   -8.6510   -3.7470  -31.2410 C   0  0  0  0  0  0  0  0  0  0  0  0
   -7.6060   -4.3920  -30.5700 C   0  0  0  0  0  0  0  0  0  0  0  0
   -6.3550   -3.7870  -30.4750 C   0  0  0  0  0  0  0  0  0  0  0  0
   -5.2510   -4.3030  -29.8620 O   0  0  0  0  0  0  0  0  0  0  0  0
   -4.4500   -5.2200  -30.6070 C   0  0  0  0  0  0  0  0  0  0  0  0
   -3.0060   -4.8240  -30.4400 C   0  0  0  0  0  0  0  0  0  0  0  0
   -2.6670   -3.4910  -30.1620 C   0  0  0  0  0  0  0  0  0  0  0  0
   -1.3320   -3.1160  -30.0130 C   0  0  0  0  0  0  0  0  0  0  0  0
   -0.3200   -4.0660  -30.1460 C   0  0  0  0  0  0  0  0  0  0  0  0
   -0.6440   -5.3910  -30.4330 C   0  0  0  0  0  0  0  0  0  0  0  0
   -1.9810   -5.7680  -30.5840 C   0  0  0  0  0  0  0  0  0  0  0  0
   -6.1610   -2.5300  -31.0520 C   0  0  0  0  0  0  0  0  0  0  0  0
   -7.2010   -1.8800  -31.7190 C   0  0  0  0  0  0  0  0  0  0  0  0
  -10.8452    2.4611  -35.0720 H   0  0  0  0  0  0  0  0  0  0  0  0
   -9.4467    2.0466  -36.1204 H   0  0  0  0  0  0  0  0  0  0  0  0
  -10.9094    1.0039  -36.1204 H   0  0  0  0  0  0  0  0  0  0  0  0
   -8.6940    0.6530  -34.4820 H   0  0  0  0  0  0  0  0  0  0  0  0
   -8.7146    0.0807  -32.1044 H   0  0  0  0  0  0  0  0  0  0  0  0
  -11.2400    0.5610  -31.1050 H   0  0  0  0  0  0  0  0  0  0  0  0
  -11.0700   -1.0720  -30.7220 H   0  0  0  0  0  0  0  0  0  0  0  0
   -9.9770    0.0870  -30.1980 H   0  0  0  0  0  0  0  0  0  0  0  0
  -10.5169   -2.3308  -32.3475 H   0  0  0  0  0  0  0  0  0  0  0  0
   -9.3304   -1.8790  -33.6569 H   0  0  0  0  0  0  0  0  0  0  0  0
   -9.6365   -4.2313  -31.3060 H   0  0  0  0  0  0  0  0  0  0  0  0
   -7.7731   -5.3800  -30.1161 H   0  0  0  0  0  0  0  0  0  0  0  0
   -4.6026   -6.2413  -30.2281 H   0  0  0  0  0  0  0  0  0  0  0  0
   -4.7313   -5.1947  -31.6701 H   0  0  0  0  0  0  0  0  0  0  0  0
   -3.4605   -2.7359  -30.0608 H   0  0  0  0  0  0  0  0  0  0  0  0
   -1.0770   -2.0694  -29.7903 H   0  0  0  0  0  0  0  0  0  0  0  0
    0.7325   -3.7702  -30.0246 H   0  0  0  0  0  0  0  0  0  0  0  0
    0.1537   -6.1407  -30.5407 H   0  0  0  0  0  0  0  0  0  0  0  0
   -2.2305   -6.8136  -30.8176 H   0  0  0  0  0  0  0  0  0  0  0  0
   -5.1759   -2.0458  -30.9800 H   0  0  0  0  0  0  0  0  0  0  0  0
   -7.0341   -0.8852  -32.1578 H   0  0  0  0  0  0  0  0  0  0  0  0
  1  2  1  0
  2  3  1  0
  3  4  2  0
  3  5  1  0
  5  6  1  0
  5  7  1  0
  7  8  1  0
  8  9  2  0
  9 10  1  0
 10 11  2  0
 11 12  1  0
 12 13  1  0
 13 14  1  0
 14 15  2  0
 15 16  1  0
 16 17  2  0
 17 18  1  0
 18 19  2  0
 11 20  1  0
 20 21  2  0
 21  8  1  0
 19 14  1  0
  1 22  1  0
  1 23  1  0
  1 24  1  0
  2 25  1  0
  5 26  1  1
  6 27  1  0
  6 28  1  0
  6 29  1  0
  7 30  1  0
  7 31  1  0
  9 32  1  0
 10 33  1  0
 13 34  1  0
 13 35  1  0
 15 36  1  0
 16 37  1  0
 17 38  1  0
 18 39  1  0
 19 40  1  0
 20 41  1  0
 21 42  1  0
M  CHG  1   6   1
M  END
>  <meeko>  (2) 
{"is_sidechain": [false], "free_energy": -7.044, "intermolecular_energy": -9.688, "internal_energy": -0.595}

$$$$
3mss_ligand
     RDKit          3D

 42 43  0  0  0  0  0  0  0  0999 V2000
  -11.8060    2.6500  -32.4620 C   0  0  0  0  0  0  0  0  0  0  0  0
  -11.3520    1.6080  -31.5670 N   0  0  0  0  0  0  0  0  0  0  0  0
  -10.5770    0.5700  -32.0090 C   0  0  0  0  0  0  0  0  0  0  0  0
  -10.1940    0.4410  -33.1730 O   0  0  0  0  0  0  0  0  0  0  0  0
  -10.1910   -0.5160  -30.9880 C   0  0  1  0  0  0  0  0  0  0  0  0
  -11.3310   -0.6310  -29.9960 N   0  0  0  0  0  0  0  0  0  0  0  0
   -9.9720   -1.8870  -31.6390 C   0  0  0  0  0  0  0  0  0  0  0  0
   -8.7360   -2.5900  -31.1370 C   0  0  0  0  0  0  0  0  0  0  0  0
   -8.8450   -3.7350  -30.3370 C   0  0  0  0  0  0  0  0  0  0  0  0
   -7.7020   -4.4130  -29.8970 C   0  0  0  0  0  0  0  0  0  0  0  0
   -6.4350   -3.9490  -30.2460 C   0  0  0  0  0  0  0  0  0  0  0  0
   -5.2430   -4.5120  -29.8980 O   0  0  0  0  0  0  0  0  0  0  0  0
   -4.3930   -4.9640  -30.9510 C   0  0  0  0  0  0  0  0  0  0  0  0
   -2.9700   -4.6390  -30.5780 C   0  0  0  0  0  0  0  0  0  0  0  0
   -2.6280   -3.3430  -30.1630 C   0  0  0  0  0  0  0  0  0  0  0  0
   -1.3110   -3.0320  -29.8230 C   0  0  0  0  0  0  0  0  0  0  0  0
   -0.3210   -4.0100  -29.8990 C   0  0  0  0  0  0  0  0  0  0  0  0
   -0.6470   -5.2990  -30.3200 C   0  0  0  0  0  0  0  0  0  0  0  0
   -1.9650   -5.6110  -30.6620 C   0  0  0  0  0  0  0  0  0  0  0  0
   -6.3240   -2.8010  -31.0340 C   0  0  0  0  0  0  0  0  0  0  0  0
   -7.4610   -2.1200  -31.4720 C   0  0  0  0  0  0  0  0  0  0  0  0
  -12.1773    3.5023  -31.8740 H   0  0  0  0  0  0  0  0  0  0  0  0
  -10.9695    2.9787  -33.0962 H   0  0  0  0  0  0  0  0  0  0  0  0
  -12.6163    2.2613  -33.0962 H   0  0  0  0  0  0  0  0  0  0  0  0
  -11.7090    1.6370  -30.6160 H   0  0  0  0  0  0  0  0  0  0  0  0
   -9.2437   -0.2245  -30.5110 H   0  0  0  0  0  0  0  0  0  0  0  0
  -11.3750    0.2370  -29.4390 H   0  0  0  0  0  0  0  0  0  0  0  0
  -12.2460   -0.8250  -30.4150 H   0  0  0  0  0  0  0  0  0  0  0  0
  -11.1100   -1.3600  -29.3040 H   0  0  0  0  0  0  0  0  0  0  0  0
  -10.8459   -2.5198  -31.4248 H   0  0  0  0  0  0  0  0  0  0  0  0
   -9.8387   -1.7200  -32.7180 H   0  0  0  0  0  0  0  0  0  0  0  0
   -9.8405   -4.1056  -30.0513 H   0  0  0  0  0  0  0  0  0  0  0  0
   -7.8041   -5.3141  -29.2744 H   0  0  0  0  0  0  0  0  0  0  0  0
   -4.5054   -6.0506  -31.0802 H   0  0  0  0  0  0  0  0  0  0  0  0
   -4.6613   -4.4686  -31.8958 H   0  0  0  0  0  0  0  0  0  0  0  0
   -3.4044   -2.5659  -30.1052 H   0  0  0  0  0  0  0  0  0  0  0  0
   -1.0539   -2.0141  -29.4947 H   0  0  0  0  0  0  0  0  0  0  0  0
    0.7165   -3.7655  -29.6272 H   0  0  0  0  0  0  0  0  0  0  0  0
    0.1344   -6.0707  -30.3828 H   0  0  0  0  0  0  0  0  0  0  0  0
   -2.2154   -6.6275  -30.9997 H   0  0  0  0  0  0  0  0  0  0  0  0
   -5.3273   -2.4287  -31.3131 H   0  0  0  0  0  0  0  0  0  0  0  0
   -7.3546   -1.2111  -32.0824 H   0  0  0  0  0  0  0  0  0  0  0  0
  1  2  1  0
  2  3  1  0
  3  4  2  0
  3  5  1  0
  5  6  1  0
  5  7  1  0
  7  8  1  0
  8  9  2  0
  9 10  1  0
 10 11  2  0
 11 12  1  0
 12 13  1  0
 13 14  1  0
 14 15  2  0
 15 16  1  0
 16 17  2  0
 17 18  1  0
 18 19  2  0
 11 20  1  0
 20 21  2  0
 21  8  1  0
 19 14  1  0
  1 22  1  0
  1 23  1  0
  1 24  1  0
  2 25  1  0
  5 26  1  1
  6 27  1  0
  6 28  1  0
  6 29  1  0
  7 30  1  0
  7 31  1  0
  9 32  1  0
 10 33  1  0
 13 34  1  0
 13 35  1  0
 15 36  1  0
 16 37  1  0
 17 38  1  0
 18 39  1  0
 19 40  1  0
 20 41  1  0
 21 42  1  0
M  CHG  1   6   1
M  END
>  <meeko>  (3) 
{"is_sidechain": [false], "free_energy": -7.032, "intermolecular_energy": -9.65, "internal_energy": -0.617}

$$$$
3mss_ligand
     RDKit          3D

 42 43  0  0  0  0  0  0  0  0999 V2000
  -13.8290    0.6040  -28.0870 C   0  0  0  0  0  0  0  0  0  0  0  0
  -12.5300   -0.0340  -28.0890 N   0  0  0  0  0  0  0  0  0  0  0  0
  -12.3150   -1.2180  -28.7400 C   0  0  0  0  0  0  0  0  0  0  0  0
  -13.1780   -1.8230  -29.3780 O   0  0  0  0  0  0  0  0  0  0  0  0
  -10.9100   -1.8410  -28.6380 C   0  0  1  0  0  0  0  0  0  0  0  0
  -10.8030   -2.4970  -27.2770 N   0  0  0  0  0  0  0  0  0  0  0  0
  -10.6580   -2.9060  -29.7130 C   0  0  0  0  0  0  0  0  0  0  0  0
   -9.2040   -3.0300  -30.0930 C   0  0  0  0  0  0  0  0  0  0  0  0
   -8.6260   -2.1310  -30.9990 C   0  0  0  0  0  0  0  0  0  0  0  0
   -7.2690   -2.2200  -31.3280 C   0  0  0  0  0  0  0  0  0  0  0  0
   -6.4740   -3.2130  -30.7600 C   0  0  0  0  0  0  0  0  0  0  0  0
   -5.1420   -3.4100  -30.9830 O   0  0  0  0  0  0  0  0  0  0  0  0
   -4.5910   -4.6730  -30.6140 C   0  0  0  0  0  0  0  0  0  0  0  0
   -3.0990   -4.5120  -30.4770 C   0  0  0  0  0  0  0  0  0  0  0  0
   -2.5470   -3.2500  -30.2120 C   0  0  0  0  0  0  0  0  0  0  0  0
   -1.1660   -3.0910  -30.0910 C   0  0  0  0  0  0  0  0  0  0  0  0
   -0.3220   -4.1910  -30.2390 C   0  0  0  0  0  0  0  0  0  0  0  0
   -0.8580   -5.4480  -30.5120 C   0  0  0  0  0  0  0  0  0  0  0  0
   -2.2400   -5.6080  -30.6350 C   0  0  0  0  0  0  0  0  0  0  0  0
   -7.0500   -4.1170  -29.8650 C   0  0  0  0  0  0  0  0  0  0  0  0
   -8.4040   -4.0360  -29.5370 C   0  0  0  0  0  0  0  0  0  0  0  0
  -14.1568    0.7650  -27.0494 H   0  0  0  0  0  0  0  0  0  0  0  0
  -13.7628    1.5721  -28.6050 H   0  0  0  0  0  0  0  0  0  0  0  0
  -14.5547   -0.0402  -28.6050 H   0  0  0  0  0  0  0  0  0  0  0  0
  -11.8110    0.3940  -27.5120 H   0  0  0  0  0  0  0  0  0  0  0  0
  -10.1645   -1.0452  -28.7829 H   0  0  0  0  0  0  0  0  0  0  0  0
  -11.2810   -1.9010  -26.5820 H   0  0  0  0  0  0  0  0  0  0  0  0
  -11.1720   -3.4520  -27.2300 H   0  0  0  0  0  0  0  0  0  0  0  0
   -9.8200   -2.4950  -26.9710 H   0  0  0  0  0  0  0  0  0  0  0  0
  -11.0042   -3.8778  -29.3311 H   0  0  0  0  0  0  0  0  0  0  0  0
  -11.2078   -2.5985  -30.6148 H   0  0  0  0  0  0  0  0  0  0  0  0
   -9.2462   -1.3463  -31.4569 H   0  0  0  0  0  0  0  0  0  0  0  0
   -6.8286   -1.5038  -32.0373 H   0  0  0  0  0  0  0  0  0  0  0  0
   -5.0200   -5.0011  -29.6557 H   0  0  0  0  0  0  0  0  0  0  0  0
   -4.8237   -5.4281  -31.3793 H   0  0  0  0  0  0  0  0  0  0  0  0
   -3.2083   -2.3784  -30.0986 H   0  0  0  0  0  0  0  0  0  0  0  0
   -0.7432   -2.0979  -29.8789 H   0  0  0  0  0  0  0  0  0  0  0  0
    0.7665   -4.0666  -30.1403 H   0  0  0  0  0  0  0  0  0  0  0  0
   -0.1919   -6.3153  -30.6308 H   0  0  0  0  0  0  0  0  0  0  0  0
   -2.6571   -6.6012  -30.8574 H   0  0  0  0  0  0  0  0  0  0  0  0
   -6.4281   -4.9035  -29.4125 H   0  0  0  0  0  0  0  0  0  0  0  0
   -8.8441   -4.7643  -28.8399 H   0  0  0  0  0  0  0  0  0  0  0  0
  1  2  1  0
  2  3  1  0
  3  4  2  0
  3  5  1  0
  5  6  1  0
  5  7  1  0
  7  8  1  0
  8  9  2  0
  9 10  1  0
 10 11  2  0
 11 12  1  0
 12 13  1  0
 13 14  1  0
 14 15  2  0
 15 16  1  0
 16 17  2  0
 17 18  1  0
 18 19  2  0
 11 20  1  0
 20 21  2  0
 21  8  1  0
 19 14  1  0
  1 22  1  0
  1 23  1  0
  1 24  1  0
  2 25  1  0
  5 26  1  1
  6 27  1  0
  6 28  1  0
  6 29  1  0
  7 30  1  0
  7 31  1  0
  9 32  1  0
 10 33  1  0
 13 34  1  0
 13 35  1  0
 15 36  1  0
 16 37  1  0
 17 38  1  0
 18 39  1  0
 19 40  1  0
 20 41  1  0
 21 42  1  0
M  CHG  1   6   1
M  END
>  <meeko>  (4) 
{"is_sidechain": [false], "free_energy": -7.02, "intermolecular_energy": -9.721, "internal_energy": -0.529}

$$$$
3mss_ligand
     RDKit          3D

 42 43  0  0  0  0  0  0  0  0999 V2000
  -10.6500   -1.3020  -26.6480 C   0  0  0  0  0  0  0  0  0  0  0  0
  -10.7600   -1.0370  -28.0660 N   0  0  0  0  0  0  0  0  0  0  0  0
  -11.3590   -1.9260  -28.9170 C   0  0  0  0  0  0  0  0  0  0  0  0
  -11.8600   -2.9940  -28.5600 O   0  0  0  0  0  0  0  0  0  0  0  0
  -11.3770   -1.5750  -30.4160 C   0  0  1  0  0  0  0  0  0  0  0  0
  -10.5550   -0.3150  -30.5960 N   0  0  0  0  0  0  0  0  0  0  0  0
  -10.7700   -2.6810  -31.2870 C   0  0  0  0  0  0  0  0  0  0  0  0
   -9.2880   -2.8590  -31.0680 C   0  0  0  0  0  0  0  0  0  0  0  0
   -8.8120   -3.8410  -30.1880 C   0  0  0  0  0  0  0  0  0  0  0  0
   -7.4370   -4.0340  -30.0070 C   0  0  0  0  0  0  0  0  0  0  0  0
   -6.5220   -3.2440  -30.6990 C   0  0  0  0  0  0  0  0  0  0  0  0
   -5.1630   -3.3290  -30.6270 O   0  0  0  0  0  0  0  0  0  0  0  0
   -4.5810   -4.6320  -30.6490 C   0  0  0  0  0  0  0  0  0  0  0  0
   -3.0920   -4.4850  -30.4670 C   0  0  0  0  0  0  0  0  0  0  0  0
   -2.5430   -3.2380  -30.1310 C   0  0  0  0  0  0  0  0  0  0  0  0
   -1.1650   -3.0920  -29.9670 C   0  0  0  0  0  0  0  0  0  0  0  0
   -0.3210   -4.1870  -30.1420 C   0  0  0  0  0  0  0  0  0  0  0  0
   -0.8550   -5.4290  -30.4860 C   0  0  0  0  0  0  0  0  0  0  0  0
   -2.2340   -5.5760  -30.6510 C   0  0  0  0  0  0  0  0  0  0  0  0
   -6.9940   -2.2590  -31.5680 C   0  0  0  0  0  0  0  0  0  0  0  0
   -8.3640   -2.0590  -31.7490 C   0  0  0  0  0  0  0  0  0  0  0  0
  -11.0118   -0.4303  -26.0829 H   0  0  0  0  0  0  0  0  0  0  0  0
  -11.2568   -2.1829  -26.3915 H   0  0  0  0  0  0  0  0  0  0  0  0
   -9.5978   -1.4942  -26.3915 H   0  0  0  0  0  0  0  0  0  0  0  0
  -10.2920   -0.2040  -28.4120 H   0  0  0  0  0  0  0  0  0  0  0  0
  -12.4228   -1.4453  -30.7315 H   0  0  0  0  0  0  0  0  0  0  0  0
  -10.0210   -0.1410  -29.7300 H   0  0  0  0  0  0  0  0  0  0  0  0
   -9.9220   -0.3270  -31.4020 H   0  0  0  0  0  0  0  0  0  0  0  0
  -11.1840    0.4970  -30.6680 H   0  0  0  0  0  0  0  0  0  0  0  0
  -11.2753   -3.6293  -31.0515 H   0  0  0  0  0  0  0  0  0  0  0  0
  -10.9139   -2.3880  -32.3375 H   0  0  0  0  0  0  0  0  0  0  0  0
   -9.5267   -4.4669  -29.6335 H   0  0  0  0  0  0  0  0  0  0  0  0
   -7.0784   -4.8116  -29.3165 H   0  0  0  0  0  0  0  0  0  0  0  0
   -4.9978   -5.2400  -29.8326 H   0  0  0  0  0  0  0  0  0  0  0  0
   -4.7999   -5.1302  -31.6050 H   0  0  0  0  0  0  0  0  0  0  0  0
   -3.2039   -2.3691  -29.9959 H   0  0  0  0  0  0  0  0  0  0  0  0
   -0.7444   -2.1115  -29.6993 H   0  0  0  0  0  0  0  0  0  0  0  0
    0.7649   -4.0721  -30.0091 H   0  0  0  0  0  0  0  0  0  0  0  0
   -0.1894   -6.2933  -30.6274 H   0  0  0  0  0  0  0  0  0  0  0  0
   -2.6492   -6.5564  -30.9276 H   0  0  0  0  0  0  0  0  0  0  0  0
   -6.2769   -1.6317  -32.1178 H   0  0  0  0  0  0  0  0  0  0  0  0
   -8.7179   -1.2701  -32.4290 H   0  0  0  0  0  0  0  0  0  0  0  0
  1  2  1  0
  2  3  1  0
  3  4  2  0
  3  5  1  0
  5  6  1  0
  5  7  1  0
  7  8  1  0
  8  9  2  0
  9 10  1  0
 10 11  2  0
 11 12  1  0
 12 13  1  0
 13 14  1  0
 14 15  2  0
 15 16  1  0
 16 17  2  0
 17 18  1  0
 18 19  2  0
 11 20  1  0
 20 21  2  0
 21  8  1  0
 19 14  1  0
  1 22  1  0
  1 23  1  0
  1 24  1  0
  2 25  1  0
  5 26  1  6
  6 27  1  0
  6 28  1  0
  6 29  1  0
  7 30  1  0
  7 31  1  0
  9 32  1  0
 10 33  1  0
 13 34  1  0
 13 35  1  0
 15 36  1  0
 16 37  1  0
 17 38  1  0
 18 39  1  0
 19 40  1  0
 20 41  1  0
 21 42  1  0
M  CHG  1   6   1
M  END
>  <meeko>  (5) 
{"is_sidechain": [false], "free_energy": -7.004, "intermolecular_energy": -10.058, "internal_energy": -0.17}

$$$$
3mss_ligand
     RDKit          3D

 42 43  0  0  0  0  0  0  0  0999 V2000
  -13.5590   -4.8940  -30.4680 C   0  0  0  0  0  0  0  0  0  0  0  0
  -12.4170   -4.0360  -30.6950 N   0  0  0  0  0  0  0  0  0  0  0  0
  -12.4290   -3.0680  -31.6630 C   0  0  0  0  0  0  0  0  0  0  0  0
  -13.3900   -2.8360  -32.3970 O   0  0  0  0  0  0  0  0  0  0  0  0
  -11.1430   -2.2440  -31.8600 C   0  0  1  0  0  0  0  0  0  0  0  0
  -11.5460   -0.9110  -32.4570 N   0  0  0  0  0  0  0  0  0  0  0  0
  -10.4030   -1.9820  -30.5420 C   0  0  0  0  0  0  0  0  0  0  0  0
   -9.0120   -2.5620  -30.5190 C   0  0  0  0  0  0  0  0  0  0  0  0
   -8.7490   -3.7570  -29.8360 C   0  0  0  0  0  0  0  0  0  0  0  0
   -7.4680   -4.3190  -29.8410 C   0  0  0  0  0  0  0  0  0  0  0  0
   -6.4300   -3.6890  -30.5250 C   0  0  0  0  0  0  0  0  0  0  0  0
   -5.1420   -4.1270  -30.6210 O   0  0  0  0  0  0  0  0  0  0  0  0
   -4.1030   -3.1610  -30.4620 C   0  0  0  0  0  0  0  0  0  0  0  0
   -2.7860   -3.8920  -30.4160 C   0  0  0  0  0  0  0  0  0  0  0  0
   -1.6590   -3.2800  -29.8460 C   0  0  0  0  0  0  0  0  0  0  0  0
   -0.4350   -3.9480  -29.8050 C   0  0  0  0  0  0  0  0  0  0  0  0
   -0.3220   -5.2310  -30.3380 C   0  0  0  0  0  0  0  0  0  0  0  0
   -1.4320   -5.8450  -30.9160 C   0  0  0  0  0  0  0  0  0  0  0  0
   -2.6580   -5.1770  -30.9590 C   0  0  0  0  0  0  0  0  0  0  0  0
   -6.6860   -2.4930  -31.1980 C   0  0  0  0  0  0  0  0  0  0  0  0
   -7.9610   -1.9260  -31.1920 C   0  0  0  0  0  0  0  0  0  0  0  0
  -13.7184   -5.0137  -29.3862 H   0  0  0  0  0  0  0  0  0  0  0  0
  -14.4531   -4.4423  -30.9226 H   0  0  0  0  0  0  0  0  0  0  0  0
  -13.3741   -5.8785  -30.9226 H   0  0  0  0  0  0  0  0  0  0  0  0
  -11.5770   -4.2450  -30.1630 H   0  0  0  0  0  0  0  0  0  0  0  0
  -10.4625   -2.8110  -32.5123 H   0  0  0  0  0  0  0  0  0  0  0  0
  -12.5370   -0.7310  -32.2280 H   0  0  0  0  0  0  0  0  0  0  0  0
  -10.9690   -0.1170  -32.1640 H   0  0  0  0  0  0  0  0  0  0  0  0
  -11.5370   -0.9790  -33.4850 H   0  0  0  0  0  0  0  0  0  0  0  0
  -10.3314   -0.8948  -30.3909 H   0  0  0  0  0  0  0  0  0  0  0  0
  -10.9760   -2.4725  -29.7413 H   0  0  0  0  0  0  0  0  0  0  0  0
   -9.5603   -4.2596  -29.2889 H   0  0  0  0  0  0  0  0  0  0  0  0
   -7.2796   -5.2603  -29.3039 H   0  0  0  0  0  0  0  0  0  0  0  0
   -4.1115   -2.4614  -31.3108 H   0  0  0  0  0  0  0  0  0  0  0  0
   -4.2536   -2.5890  -29.5345 H   0  0  0  0  0  0  0  0  0  0  0  0
   -1.7414   -2.2657  -29.4283 H   0  0  0  0  0  0  0  0  0  0  0  0
    0.4415   -3.4619  -29.3518 H   0  0  0  0  0  0  0  0  0  0  0  0
    0.6425   -5.7587  -30.3025 H   0  0  0  0  0  0  0  0  0  0  0  0
   -1.3423   -6.8566  -31.3387 H   0  0  0  0  0  0  0  0  0  0  0  0
   -3.5290   -5.6633  -31.4225 H   0  0  0  0  0  0  0  0  0  0  0  0
   -5.8715   -1.9907  -31.7404 H   0  0  0  0  0  0  0  0  0  0  0  0
   -8.1413   -0.9766  -31.7174 H   0  0  0  0  0  0  0  0  0  0  0  0
  1  2  1  0
  2  3  1  0
  3  4  2  0
  3  5  1  0
  5  6  1  0
  5  7  1  0
  7  8  1  0
  8  9  2  0
  9 10  1  0
 10 11  2  0
 11 12  1  0
 12 13  1  0
 13 14  1  0
 14 15  2  0
 15 16  1  0
 16 17  2  0
 17 18  1  0
 18 19  2  0
 11 20  1  0
 20 21  2  0
 21  8  1  0
 19 14  1  0
  1 22  1  0
  1 23  1  0
  1 24  1  0
  2 25  1  0
  5 26  1  6
  6 27  1  0
  6 28  1  0
  6 29  1  0
  7 30  1  0
  7 31  1  0
  9 32  1  0
 10 33  1  0
 13 34  1  0
 13 35  1  0
 15 36  1  0
 16 37  1  0
 17 38  1  0
 18 39  1  0
 19 40  1  0
 20 41  1  0
 21 42  1  0
M  CHG  1   6   1
M  END
>  <meeko>  (6) 
{"is_sidechain": [false], "free_energy": -6.335, "intermolecular_energy": -8.736, "internal_energy": -0.568}

$$$$
3mss_ligand
     RDKit          3D

 42 43  0  0  0  0  0  0  0  0999 V2000
  -10.1360   -1.0020  -36.6600 C   0  0  0  0  0  0  0  0  0  0  0  0
  -10.0880   -1.0760  -35.2160 N   0  0  0  0  0  0  0  0  0  0  0  0
   -9.6620   -0.0180  -34.4590 C   0  0  0  0  0  0  0  0  0  0  0  0
   -9.3070    1.0660  -34.9230 O   0  0  0  0  0  0  0  0  0  0  0  0
   -9.5980   -0.2170  -32.9330 C   0  0  1  0  0  0  0  0  0  0  0  0
  -10.6330    0.7000  -32.3130 N   0  0  0  0  0  0  0  0  0  0  0  0
   -9.9110   -1.6580  -32.5120 C   0  0  0  0  0  0  0  0  0  0  0  0
   -8.7340   -2.3590  -31.8820 C   0  0  0  0  0  0  0  0  0  0  0  0
   -7.4700   -1.7540  -31.8670 C   0  0  0  0  0  0  0  0  0  0  0  0
   -6.3820   -2.3840  -31.2530 C   0  0  0  0  0  0  0  0  0  0  0  0
   -6.5430   -3.6310  -30.6510 C   0  0  0  0  0  0  0  0  0  0  0  0
   -5.5770   -4.3510  -30.0120 O   0  0  0  0  0  0  0  0  0  0  0  0
   -4.2160   -4.0240  -30.2920 C   0  0  0  0  0  0  0  0  0  0  0  0
   -3.5390   -5.2580  -30.8310 C   0  0  0  0  0  0  0  0  0  0  0  0
   -2.3130   -5.1530  -31.5040 C   0  0  0  0  0  0  0  0  0  0  0  0
   -1.6830   -6.2900  -32.0110 C   0  0  0  0  0  0  0  0  0  0  0  0
   -2.2740   -7.5430  -31.8570 C   0  0  0  0  0  0  0  0  0  0  0  0
   -3.4970   -7.6590  -31.1990 C   0  0  0  0  0  0  0  0  0  0  0  0
   -4.1290   -6.5210  -30.6910 C   0  0  0  0  0  0  0  0  0  0  0  0
   -7.7990   -4.2400  -30.6740 C   0  0  0  0  0  0  0  0  0  0  0  0
   -8.8860   -3.6180  -31.2890 C   0  0  0  0  0  0  0  0  0  0  0  0
  -10.7115   -0.1148  -36.9627 H   0  0  0  0  0  0  0  0  0  0  0  0
   -9.1130   -0.9287  -37.0576 H   0  0  0  0  0  0  0  0  0  0  0  0
  -10.6200   -1.9062  -37.0576 H   0  0  0  0  0  0  0  0  0  0  0  0
  -10.3000   -1.9770  -34.7980 H   0  0  0  0  0  0  0  0  0  0  0  0
   -8.5759    0.0090  -32.5950 H   0  0  0  0  0  0  0  0  0  0  0  0
  -10.5410    0.6580  -31.2850 H   0  0  0  0  0  0  0  0  0  0  0  0
  -10.5870    1.6740  -32.6280 H   0  0  0  0  0  0  0  0  0  0  0  0
  -11.5750    0.3260  -32.4930 H   0  0  0  0  0  0  0  0  0  0  0  0
  -10.7369   -1.6390  -31.7857 H   0  0  0  0  0  0  0  0  0  0  0  0
  -10.1760   -2.2155  -33.4225 H   0  0  0  0  0  0  0  0  0  0  0  0
   -7.3316   -0.7723  -32.3435 H   0  0  0  0  0  0  0  0  0  0  0  0
   -5.3971   -1.8941  -31.2453 H   0  0  0  0  0  0  0  0  0  0  0  0
   -4.1724   -3.2182  -31.0395 H   0  0  0  0  0  0  0  0  0  0  0  0
   -3.7106   -3.6810  -29.3771 H   0  0  0  0  0  0  0  0  0  0  0  0
   -1.8443   -4.1663  -31.6332 H   0  0  0  0  0  0  0  0  0  0  0  0
   -0.7190   -6.1975  -32.5327 H   0  0  0  0  0  0  0  0  0  0  0  0
   -1.7755   -8.4394  -32.2545 H   0  0  0  0  0  0  0  0  0  0  0  0
   -3.9652   -8.6472  -31.0794 H   0  0  0  0  0  0  0  0  0  0  0  0
   -5.0969   -6.6175  -30.1774 H   0  0  0  0  0  0  0  0  0  0  0  0
   -7.9335   -5.2238  -30.2007 H   0  0  0  0  0  0  0  0  0  0  0  0
   -9.8654   -4.1184  -31.3080 H   0  0  0  0  0  0  0  0  0  0  0  0
  1  2  1  0
  2  3  1  0
  3  4  2  0
  3  5  1  0
  5  6  1  0
  5  7  1  0
  7  8  1  0
  8  9  2  0
  9 10  1  0
 10 11  2  0
 11 12  1  0
 12 13  1  0
 13 14  1  0
 14 15  2  0
 15 16  1  0
 16 17  2  0
 17 18  1  0
 18 19  2  0
 11 20  1  0
 20 21  2  0
 21  8  1  0
 19 14  1  0
  1 22  1  0
  1 23  1  0
  1 24  1  0
  2 25  1  0
  5 26  1  1
  6 27  1  0
  6 28  1  0
  6 29  1  0
  7 30  1  0
  7 31  1  0
  9 32  1  0
 10 33  1  0
 13 34  1  0
 13 35  1  0
 15 36  1  0
 16 37  1  0
 17 38  1  0
 18 39  1  0
 19 40  1  0
 20 41  1  0
 21 42  1  0
M  CHG  1   6   1
M  END
>  <meeko>  (7) 
{"is_sidechain": [false], "free_energy": -6.271, "intermolecular_energy": -8.55, "internal_energy": -0.667}

$$$$
3mss_ligand
     RDKit          3D

 42 43  0  0  0  0  0  0  0  0999 V2000
  -12.6110   -5.9560  -33.2750 C   0  0  0  0  0  0  0  0  0  0  0  0
  -11.9120   -4.7210  -32.9910 N   0  0  0  0  0  0  0  0  0  0  0  0
  -11.5090   -3.8800  -33.9930 C   0  0  0  0  0  0  0  0  0  0  0  0
  -11.7120   -4.0840  -35.1910 O   0  0  0  0  0  0  0  0  0  0  0  0
  -10.7250   -2.6170  -33.5890 C   0  0  1  0  0  0  0  0  0  0  0  0
  -11.5430   -1.4180  -34.0240 N   0  0  0  0  0  0  0  0  0  0  0  0
  -10.4960   -2.5260  -32.0750 C   0  0  0  0  0  0  0  0  0  0  0  0
   -9.0440   -2.6540  -31.6890 C   0  0  0  0  0  0  0  0  0  0  0  0
   -8.1860   -1.5480  -31.7640 C   0  0  0  0  0  0  0  0  0  0  0  0
   -6.8460   -1.6530  -31.3730 C   0  0  0  0  0  0  0  0  0  0  0  0
   -6.3460   -2.8670  -30.9080 C   0  0  0  0  0  0  0  0  0  0  0  0
   -5.0710   -3.1080  -30.4870 O   0  0  0  0  0  0  0  0  0  0  0  0
   -4.6300   -4.4650  -30.4590 C   0  0  0  0  0  0  0  0  0  0  0  0
   -3.1240   -4.4690  -30.4130 C   0  0  0  0  0  0  0  0  0  0  0  0
   -2.4120   -5.6460  -30.6870 C   0  0  0  0  0  0  0  0  0  0  0  0
   -1.0180   -5.6590  -30.6390 C   0  0  0  0  0  0  0  0  0  0  0  0
   -0.3200   -4.4980  -30.3120 C   0  0  0  0  0  0  0  0  0  0  0  0
   -1.0170   -3.3240  -30.0270 C   0  0  0  0  0  0  0  0  0  0  0  0
   -2.4130   -3.3100  -30.0740 C   0  0  0  0  0  0  0  0  0  0  0  0
   -7.1950   -3.9730  -30.8420 C   0  0  0  0  0  0  0  0  0  0  0  0
   -8.5310   -3.8750  -31.2340 C   0  0  0  0  0  0  0  0  0  0  0  0
  -12.8883   -6.4460  -32.3300 H   0  0  0  0  0  0  0  0  0  0  0  0
  -13.5196   -5.7379  -33.8554 H   0  0  0  0  0  0  0  0  0  0  0  0
  -11.9563   -6.6227  -33.8554 H   0  0  0  0  0  0  0  0  0  0  0  0
  -11.6580   -4.5540  -32.0220 H   0  0  0  0  0  0  0  0  0  0  0  0
   -9.7363   -2.6508  -34.0701 H   0  0  0  0  0  0  0  0  0  0  0  0
  -10.9930   -0.5610  -33.8530 H   0  0  0  0  0  0  0  0  0  0  0  0
  -11.8560   -1.4440  -35.0000 H   0  0  0  0  0  0  0  0  0  0  0  0
  -12.3590   -1.3170  -33.4050 H   0  0  0  0  0  0  0  0  0  0  0  0
  -10.8678   -1.5527  -31.7223 H   0  0  0  0  0  0  0  0  0  0  0  0
  -11.0348   -3.3649  -31.6102 H   0  0  0  0  0  0  0  0  0  0  0  0
   -8.5703   -0.5862  -32.1345 H   0  0  0  0  0  0  0  0  0  0  0  0
   -6.1864   -0.7748  -31.4331 H   0  0  0  0  0  0  0  0  0  0  0  0
   -5.0312   -4.9687  -29.5672 H   0  0  0  0  0  0  0  0  0  0  0  0
   -4.9845   -4.9986  -31.3532 H   0  0  0  0  0  0  0  0  0  0  0  0
   -2.9575   -6.5666  -30.9419 H   0  0  0  0  0  0  0  0  0  0  0  0
   -0.4692   -6.5865  -30.8594 H   0  0  0  0  0  0  0  0  0  0  0  0
    0.7795   -4.5075  -30.2787 H   0  0  0  0  0  0  0  0  0  0  0  0
   -0.4668   -2.4082  -29.7650 H   0  0  0  0  0  0  0  0  0  0  0  0
   -2.9580   -2.3828  -29.8433 H   0  0  0  0  0  0  0  0  0  0  0  0
   -6.8060   -4.9347  -30.4762 H   0  0  0  0  0  0  0  0  0  0  0  0
   -9.1830   -4.7596  -31.1854 H   0  0  0  0  0  0  0  0  0  0  0  0
  1  2  1  0
  2  3  1  0
  3  4  2  0
  3  5  1  0
  5  6  1  0
  5  7  1  0
  7  8  1  0
  8  9  2  0
  9 10  1  0
 10 11  2  0
 11 12  1  0
 12 13  1  0
 13 14  1  0
 14 15  2  0
 15 16  1  0
 16 17  2  0
 17 18  1  0
 18 19  2  0
 11 20  1  0
 20 21  2  0
 21  8  1  0
 19 14  1  0
  1 22  1  0
  1 23  1  0
  1 24  1  0
  2 25  1  0
  5 26  1  6
  6 27  1  0
  6 28  1  0
  6 29  1  0
  7 30  1  0
  7 31  1  0
  9 32  1  0
 10 33  1  0
 13 34  1  0
 13 35  1  0
 15 36  1  0
 16 37  1  0
 17 38  1  0
 18 39  1  0
 19 40  1  0
 20 41  1  0
 21 42  1  0
M  CHG  1   6   1
M  END
>  <meeko>  (8) 
{"is_sidechain": [false], "free_energy": -6.201, "intermolecular_energy": -8.525, "internal_energy": -0.596}

$$$$
3mss_ligand
     RDKit          3D

 42 43  0  0  0  0  0  0  0  0999 V2000
   -0.3210   -3.9700  -30.0220 C   0  0  0  0  0  0  0  0  0  0  0  0
   -1.7340   -4.2820  -29.9860 N   0  0  0  0  0  0  0  0  0  0  0  0
   -2.3350   -4.9960  -30.9860 C   0  0  0  0  0  0  0  0  0  0  0  0
   -1.7440   -5.4390  -31.9710 O   0  0  0  0  0  0  0  0  0  0  0  0
   -3.8540   -5.2290  -30.8790 C   0  0  1  0  0  0  0  0  0  0  0  0
   -4.0610   -6.5830  -30.2310 N   0  0  0  0  0  0  0  0  0  0  0  0
   -4.5540   -4.1670  -30.0210 C   0  0  0  0  0  0  0  0  0  0  0  0
   -5.8710   -3.7150  -30.6000 C   0  0  0  0  0  0  0  0  0  0  0  0
   -6.9910   -4.5560  -30.5640 C   0  0  0  0  0  0  0  0  0  0  0  0
   -8.2250   -4.1280  -31.0670 C   0  0  0  0  0  0  0  0  0  0  0  0
   -8.3530   -2.8540  -31.6180 C   0  0  0  0  0  0  0  0  0  0  0  0
   -9.4910   -2.3060  -32.1330 O   0  0  0  0  0  0  0  0  0  0  0  0
   -9.3440   -1.3070  -33.1410 C   0  0  0  0  0  0  0  0  0  0  0  0
   -9.3920   -1.9860  -34.4860 C   0  0  0  0  0  0  0  0  0  0  0  0
  -10.0110   -3.2380  -34.6220 C   0  0  0  0  0  0  0  0  0  0  0  0
  -10.0540   -3.8760  -35.8620 C   0  0  0  0  0  0  0  0  0  0  0  0
   -9.4740   -3.2730  -36.9770 C   0  0  0  0  0  0  0  0  0  0  0  0
   -8.8480   -2.0340  -36.8520 C   0  0  0  0  0  0  0  0  0  0  0  0
   -8.8030   -1.3950  -35.6110 C   0  0  0  0  0  0  0  0  0  0  0  0
   -7.2360   -2.0180  -31.6640 C   0  0  0  0  0  0  0  0  0  0  0  0
   -6.0020   -2.4420  -31.1680 C   0  0  0  0  0  0  0  0  0  0  0  0
    0.0621   -3.8854  -28.9943 H   0  0  0  0  0  0  0  0  0  0  0  0
    0.2180   -4.7708  -30.5495 H   0  0  0  0  0  0  0  0  0  0  0  0
   -0.1693   -3.0167  -30.5495 H   0  0  0  0  0  0  0  0  0  0  0  0
   -2.2720   -3.8700  -29.2290 H   0  0  0  0  0  0  0  0  0  0  0  0
   -4.2868   -5.1738  -31.8888 H   0  0  0  0  0  0  0  0  0  0  0  0
   -4.0360   -6.4670  -29.2050 H   0  0  0  0  0  0  0  0  0  0  0  0
   -4.9220   -7.0650  -30.5080 H   0  0  0  0  0  0  0  0  0  0  0  0
   -3.2510   -7.1860  -30.4320 H   0  0  0  0  0  0  0  0  0  0  0  0
   -4.7369   -4.5887  -29.0216 H   0  0  0  0  0  0  0  0  0  0  0  0
   -3.8933   -3.2884  -29.9817 H   0  0  0  0  0  0  0  0  0  0  0  0
   -6.8994   -5.5648  -30.1352 H   0  0  0  0  0  0  0  0  0  0  0  0
   -9.0960   -4.7987  -31.0274 H   0  0  0  0  0  0  0  0  0  0  0  0
  -10.1623   -0.5760  -33.0632 H   0  0  0  0  0  0  0  0  0  0  0  0
   -8.3877   -0.7780  -33.0158 H   0  0  0  0  0  0  0  0  0  0  0  0
  -10.4659   -3.7201  -33.7441 H   0  0  0  0  0  0  0  0  0  0  0  0
  -10.5457   -4.8551  -35.9598 H   0  0  0  0  0  0  0  0  0  0  0  0
   -9.5104   -3.7749  -37.9552 H   0  0  0  0  0  0  0  0  0  0  0  0
   -8.3890   -1.5590  -37.7316 H   0  0  0  0  0  0  0  0  0  0  0  0
   -8.3014   -0.4206  -35.5164 H   0  0  0  0  0  0  0  0  0  0  0  0
   -7.3295   -1.0112  -32.0971 H   0  0  0  0  0  0  0  0  0  0  0  0
   -5.1299   -1.7740  -31.2236 H   0  0  0  0  0  0  0  0  0  0  0  0
  1  2  1  0
  2  3  1  0
  3  4  2  0
  3  5  1  0
  5  6  1  0
  5  7  1  0
  7  8  1  0
  8  9  2  0
  9 10  1  0
 10 11  2  0
 11 12  1  0
 12 13  1  0
 13 14  1  0
 14 15  2  0
 15 16  1  0
 16 17  2  0
 17 18  1  0
 18 19  2  0
 11 20  1  0
 20 21  2  0
 21  8  1  0
 19 14  1  0
  1 22  1  0
  1 23  1  0
  1 24  1  0
  2 25  1  0
  5 26  1  6
  6 27  1  0
  6 28  1  0
  6 29  1  0
  7 30  1  0
  7 31  1  0
  9 32  1  0
 10 33  1  0
 13 34  1  0
 13 35  1  0
 15 36  1  0
 16 37  1  0
 17 38  1  0
 18 39  1  0
 19 40  1  0
 20 41  1  0
 21 42  1  0
M  CHG  1   6   1
M  END
>  <meeko>  (9) 
{"is_sidechain": [false], "free_energy": -6.185, "intermolecular_energy": -8.516, "internal_energy": -0.582}

$$$$
