2zcr_ligand
     RDKit          3D

 53 54  0  0  0  0  0  0  0  0999 V2000
    9.7580   61.7470   38.2090 C   0  0  0  0  0  0  0  0  0  0  0  0
    9.9200   60.2570   37.9530 C   0  0  0  0  0  0  0  0  0  0  0  0
   10.8520   59.5620   38.9510 C   0  0  0  0  0  0  0  0  0  0  0  0
   12.3360   59.9240   38.8220 C   0  0  0  0  0  0  0  0  0  0  0  0
   13.2350   58.7390   38.5810 C   0  0  0  0  0  0  0  0  0  0  0  0
   14.2680   58.4310   39.4740 C   0  0  0  0  0  0  0  0  0  0  0  0
   15.1040   57.3340   39.2450 C   0  0  0  0  0  0  0  0  0  0  0  0
   14.9310   56.5110   38.1210 C   0  0  0  0  0  0  0  0  0  0  0  0
   15.8100   55.3550   37.8800 C   0  0  0  0  0  0  0  0  0  0  0  0
   15.6950   54.5870   36.7090 C   0  0  0  0  0  0  0  0  0  0  0  0
   16.5190   53.4780   36.4890 C   0  0  0  0  0  0  0  0  0  0  0  0
   17.4860   53.1090   37.4300 C   0  0  0  0  0  0  0  0  0  0  0  0
   18.3590   51.8960   37.1980 C   0  0  0  0  0  0  0  0  0  0  0  0
   18.2460   51.3350   35.7780 C   0  0  0  0  0  0  0  0  0  0  0  0
   19.1930   50.1760   35.4400 C   0  0  0  0  0  0  0  0  0  0  0  0
   20.4840   50.5100   34.6590 C   0  0  2  0  0  0  0  0  0  0  0  0
   21.0610   49.2180   33.5320 P   0  0  2  0  0  5  0  0  0  0  0  0
   21.9960   49.7120   32.4580 O   0  0  0  0  0  0  0  0  0  0  0  0
   19.8490   48.4210   33.0780 O   0  0  0  0  0  0  0  0  0  0  0  0
   21.9070   48.2280   34.5040 O   0  0  0  0  0  0  0  0  0  0  0  0
   21.8200   50.8750   35.8030 S   0  0  0  0  0  0  0  0  0  0  0  0
   23.0660   50.6050   35.0890 O   0  0  0  0  0  0  0  0  0  0  0  0
   21.5730   50.0410   36.9850 O   0  0  0  0  0  0  0  0  0  0  0  0
   21.6670   52.3080   36.0910 O   0  0  0  0  0  0  0  0  0  0  0  0
   17.6090   53.8680   38.5980 C   0  0  0  0  0  0  0  0  0  0  0  0
   16.7810   54.9730   38.8190 C   0  0  0  0  0  0  0  0  0  0  0  0
   13.8900   56.8240   37.2340 C   0  0  0  0  0  0  0  0  0  0  0  0
   13.0530   57.9220   37.4580 C   0  0  0  0  0  0  0  0  0  0  0  0
    9.7378   61.9327   39.2930 H   0  0  0  0  0  0  0  0  0  0  0  0
   10.6024   62.2902   37.7596 H   0  0  0  0  0  0  0  0  0  0  0  0
    8.8166   62.0960   37.7596 H   0  0  0  0  0  0  0  0  0  0  0  0
    8.9290   59.7836   38.0146 H   0  0  0  0  0  0  0  0  0  0  0  0
   10.3740   60.1478   36.9570 H   0  0  0  0  0  0  0  0  0  0  0  0
   10.5237   59.8299   39.9661 H   0  0  0  0  0  0  0  0  0  0  0  0
   10.7813   58.4857   38.7350 H   0  0  0  0  0  0  0  0  0  0  0  0
   12.4502   60.6223   37.9798 H   0  0  0  0  0  0  0  0  0  0  0  0
   12.6413   60.3663   39.7818 H   0  0  0  0  0  0  0  0  0  0  0  0
   14.4235   59.0580   40.3643 H   0  0  0  0  0  0  0  0  0  0  0  0
   15.9115   57.1119   39.9581 H   0  0  0  0  0  0  0  0  0  0  0  0
   14.9449   54.8622   35.9530 H   0  0  0  0  0  0  0  0  0  0  0  0
   16.4053   52.8900   35.5663 H   0  0  0  0  0  0  0  0  0  0  0  0
   19.4063   52.1789   37.3799 H   0  0  0  0  0  0  0  0  0  0  0  0
   18.0176   51.1104   37.8882 H   0  0  0  0  0  0  0  0  0  0  0  0
   17.2145   50.9801   35.6365 H   0  0  0  0  0  0  0  0  0  0  0  0
   18.5318   52.1591   35.1078 H   0  0  0  0  0  0  0  0  0  0  0  0
   19.4944   49.7099   36.3897 H   0  0  0  0  0  0  0  0  0  0  0  0
   18.6147   49.5325   34.7607 H   0  0  0  0  0  0  0  0  0  0  0  0
   20.2128   51.3776   34.0395 H   0  0  0  0  0  0  0  0  0  0  0  0
   22.1430   48.7490   35.3200 H   0  0  0  0  0  0  0  0  0  0  0  0
   18.3638   53.5934   39.3496 H   0  0  0  0  0  0  0  0  0  0  0  0
   16.8927   55.5540   39.7464 H   0  0  0  0  0  0  0  0  0  0  0  0
   13.7292   56.1945   36.3464 H   0  0  0  0  0  0  0  0  0  0  0  0
   12.2449   58.1458   36.7461 H   0  0  0  0  0  0  0  0  0  0  0  0
  1  2  1  0
  2  3  1  0
  3  4  1  0
  4  5  1  0
  5  6  2  0
  6  7  1  0
  7  8  2  0
  8  9  1  0
  9 10  2  0
 10 11  1  0
 11 12  2  0
 12 13  1  0
 13 14  1  0
 14 15  1  0
 15 16  1  0
 16 17  1  0
 17 18  2  0
 17 19  1  6
 17 20  1  0
 16 21  1  0
 21 22  2  0
 21 23  2  0
 21 24  1  0
 12 25  1  0
 25 26  2  0
  8 27  1  0
 27 28  2  0
 28  5  1  0
 26  9  1  0
  1 29  1  0
  1 30  1  0
  1 31  1  0
  2 32  1  0
  2 33  1  0
  3 34  1  0
  3 35  1  0
  4 36  1  0
  4 37  1  0
  6 38  1  0
  7 39  1  0
 10 40  1  0
 11 41  1  0
 13 42  1  0
 13 43  1  0
 14 44  1  0
 14 45  1  0
 15 46  1  0
 15 47  1  0
 16 48  1  6
 20 49  1  0
 25 50  1  0
 26 51  1  0
 27 52  1  0
 28 53  1  0
M  CHG  2  19  -1  24  -1
M  END
>  <meeko>  (1) 
{"is_sidechain": [false], "free_energy": -10.001, "intermolecular_energy": -16.14, "internal_energy": -1.356}

$$$$
2zcr_ligand
     RDKit          3D

 53 54  0  0  0  0  0  0  0  0999 V2000
    8.2570   59.4680   38.4330 C   0  0  0  0  0  0  0  0  0  0  0  0
    8.4790   60.9720   38.4850 C   0  0  0  0  0  0  0  0  0  0  0  0
    9.7150   61.4360   37.7080 C   0  0  0  0  0  0  0  0  0  0  0  0
   11.0240   61.4470   38.5070 C   0  0  0  0  0  0  0  0  0  0  0  0
   11.8710   60.2170   38.3080 C   0  0  0  0  0  0  0  0  0  0  0  0
   11.7070   59.4110   37.1750 C   0  0  0  0  0  0  0  0  0  0  0  0
   12.4910   58.2680   36.9950 C   0  0  0  0  0  0  0  0  0  0  0  0
   13.4620   57.8970   37.9380 C   0  0  0  0  0  0  0  0  0  0  0  0
   14.2880   56.6920   37.7500 C   0  0  0  0  0  0  0  0  0  0  0  0
   14.9000   56.0540   38.8410 C   0  0  0  0  0  0  0  0  0  0  0  0
   15.6990   54.9200   38.6580 C   0  0  0  0  0  0  0  0  0  0  0  0
   15.9040   54.3890   37.3800 C   0  0  0  0  0  0  0  0  0  0  0  0
   16.7880   53.1780   37.1860 C   0  0  0  0  0  0  0  0  0  0  0  0
   17.4640   52.7110   38.4780 C   0  0  0  0  0  0  0  0  0  0  0  0
   18.9520   52.3510   38.3620 C   0  0  0  0  0  0  0  0  0  0  0  0
   19.6670   52.6860   37.0340 C   0  0  2  0  0  0  0  0  0  0  0  0
   20.4790   51.2880   36.2210 P   0  0  2  0  0  5  0  0  0  0  0  0
   21.3960   51.6820   35.0900 O   0  0  0  0  0  0  0  0  0  0  0  0
   19.4160   50.2460   35.9170 O   0  0  0  0  0  0  0  0  0  0  0  0
   21.3990   50.6560   37.4020 O   0  0  0  0  0  0  0  0  0  0  0  0
   20.9070   53.9570   37.3040 S   0  0  0  0  0  0  0  0  0  0  0  0
   20.9080   54.7990   36.1100 O   0  0  0  0  0  0  0  0  0  0  0  0
   22.1590   53.2420   37.5770 O   0  0  0  0  0  0  0  0  0  0  0  0
   20.4180   54.6930   38.4780 O   0  0  0  0  0  0  0  0  0  0  0  0
   15.2990   55.0180   36.2880 C   0  0  0  0  0  0  0  0  0  0  0  0
   14.5040   56.1530   36.4720 C   0  0  0  0  0  0  0  0  0  0  0  0
   13.6220   58.7130   39.0690 C   0  0  0  0  0  0  0  0  0  0  0  0
   12.8390   59.8570   39.2530 C   0  0  0  0  0  0  0  0  0  0  0  0
    8.1983   59.0704   39.4569 H   0  0  0  0  0  0  0  0  0  0  0  0
    7.3176   59.2542   37.9022 H   0  0  0  0  0  0  0  0  0  0  0  0
    9.0946   58.9919   37.9022 H   0  0  0  0  0  0  0  0  0  0  0  0
    7.5943   61.4691   38.0605 H   0  0  0  0  0  0  0  0  0  0  0  0
    8.6421   61.2380   39.5398 H   0  0  0  0  0  0  0  0  0  0  0  0
    9.8476   60.7640   36.8473 H   0  0  0  0  0  0  0  0  0  0  0  0
    9.5222   62.4813   37.4247 H   0  0  0  0  0  0  0  0  0  0  0  0
   11.6106   62.3250   38.1987 H   0  0  0  0  0  0  0  0  0  0  0  0
   10.7481   61.4759   39.5715 H   0  0  0  0  0  0  0  0  0  0  0  0
   10.9541   59.6798   36.4194 H   0  0  0  0  0  0  0  0  0  0  0  0
   12.3444   57.6481   36.0982 H   0  0  0  0  0  0  0  0  0  0  0  0
   14.7489   56.4519   39.8553 H   0  0  0  0  0  0  0  0  0  0  0  0
   16.1710   54.4408   39.5284 H   0  0  0  0  0  0  0  0  0  0  0  0
   16.1718   52.3543   36.7964 H   0  0  0  0  0  0  0  0  0  0  0  0
   17.5858   53.4648   36.4851 H   0  0  0  0  0  0  0  0  0  0  0  0
   17.3690   53.5182   39.2193 H   0  0  0  0  0  0  0  0  0  0  0  0
   16.9529   51.7794   38.7624 H   0  0  0  0  0  0  0  0  0  0  0  0
   19.4830   52.8831   39.1651 H   0  0  0  0  0  0  0  0  0  0  0  0
   18.9798   51.2532   38.4253 H   0  0  0  0  0  0  0  0  0  0  0  0
   18.8606   53.0219   36.3655 H   0  0  0  0  0  0  0  0  0  0  0  0
   20.7950   50.1330   37.9960 H   0  0  0  0  0  0  0  0  0  0  0  0
   15.4498   54.6163   35.2751 H   0  0  0  0  0  0  0  0  0  0  0  0
   14.0387   56.6330   35.5985 H   0  0  0  0  0  0  0  0  0  0  0  0
   14.3768   58.4478   39.8240 H   0  0  0  0  0  0  0  0  0  0  0  0
   12.9850   60.4794   40.1481 H   0  0  0  0  0  0  0  0  0  0  0  0
  1  2  1  0
  2  3  1  0
  3  4  1  0
  4  5  1  0
  5  6  2  0
  6  7  1  0
  7  8  2  0
  8  9  1  0
  9 10  2  0
 10 11  1  0
 11 12  2  0
 12 13  1  0
 13 14  1  0
 14 15  1  0
 15 16  1  0
 16 17  1  0
 17 18  2  0
 17 19  1  6
 17 20  1  0
 16 21  1  0
 21 22  2  0
 21 23  2  0
 21 24  1  0
 12 25  1  0
 25 26  2  0
  8 27  1  0
 27 28  2  0
 28  5  1  0
 26  9  1  0
  1 29  1  0
  1 30  1  0
  1 31  1  0
  2 32  1  0
  2 33  1  0
  3 34  1  0
  3 35  1  0
  4 36  1  0
  4 37  1  0
  6 38  1  0
  7 39  1  0
 10 40  1  0
 11 41  1  0
 13 42  1  0
 13 43  1  0
 14 44  1  0
 14 45  1  0
 15 46  1  0
 15 47  1  0
 16 48  1  6
 20 49  1  0
 25 50  1  0
 26 51  1  0
 27 52  1  0
 28 53  1  0
M  CHG  2  19  -1  24  -1
M  END
>  <meeko>  (2) 
{"is_sidechain": [false], "free_energy": -9.879, "intermolecular_energy": -15.88, "internal_energy": -1.42}

$$$$
2zcr_ligand
     RDKit          3D

 53 54  0  0  0  0  0  0  0  0999 V2000
    9.8330   61.4160   38.0360 C   0  0  0  0  0  0  0  0  0  0  0  0
   10.8600   61.0630   39.1000 C   0  0  0  0  0  0  0  0  0  0  0  0
   12.0510   60.2640   38.5610 C   0  0  0  0  0  0  0  0  0  0  0  0
   11.8300   58.7500   38.4570 C   0  0  0  0  0  0  0  0  0  0  0  0
   13.1010   57.9580   38.2820 C   0  0  0  0  0  0  0  0  0  0  0  0
   13.3300   57.2250   37.1130 C   0  0  0  0  0  0  0  0  0  0  0  0
   14.5070   56.4870   36.9550 C   0  0  0  0  0  0  0  0  0  0  0  0
   15.4890   56.4620   37.9570 C   0  0  0  0  0  0  0  0  0  0  0  0
   16.7290   55.6850   37.7920 C   0  0  0  0  0  0  0  0  0  0  0  0
   17.0650   54.6570   38.6870 C   0  0  0  0  0  0  0  0  0  0  0  0
   18.2530   53.9310   38.5400 C   0  0  0  0  0  0  0  0  0  0  0  0
   19.1340   54.2090   37.4890 C   0  0  0  0  0  0  0  0  0  0  0  0
   20.4270   53.4380   37.3470 C   0  0  0  0  0  0  0  0  0  0  0  0
   20.6150   52.8260   35.9560 C   0  0  0  0  0  0  0  0  0  0  0  0
   20.9600   51.3310   35.9260 C   0  0  0  0  0  0  0  0  0  0  0  0
   21.9590   50.8480   34.8510 C   0  0  2  0  0  0  0  0  0  0  0  0
   21.3470   49.5430   33.7580 P   0  0  2  0  0  5  0  0  0  0  0  0
   21.8750   49.6230   32.3480 O   0  0  0  0  0  0  0  0  0  0  0  0
   19.8390   49.4650   33.9260 O   0  0  0  0  0  0  0  0  0  0  0  0
   21.9420   48.1880   34.4300 O   0  0  0  0  0  0  0  0  0  0  0  0
   23.4630   50.2490   35.6300 S   0  0  0  0  0  0  0  0  0  0  0  0
   24.3010   49.7120   34.5610 O   0  0  0  0  0  0  0  0  0  0  0  0
   23.0290   49.2800   36.6430 O   0  0  0  0  0  0  0  0  0  0  0  0
   24.0620   51.4500   36.2290 O   0  0  0  0  0  0  0  0  0  0  0  0
   18.8060   55.2310   36.5920 C   0  0  0  0  0  0  0  0  0  0  0  0
   17.6220   55.9580   36.7440 C   0  0  0  0  0  0  0  0  0  0  0  0
   15.2520   57.2040   39.1250 C   0  0  0  0  0  0  0  0  0  0  0  0
   14.0750   57.9420   39.2870 C   0  0  0  0  0  0  0  0  0  0  0  0
    8.8989   61.7371   38.5202 H   0  0  0  0  0  0  0  0  0  0  0  0
   10.2205   62.2325   37.4090 H   0  0  0  0  0  0  0  0  0  0  0  0
    9.6366   60.5338   37.4090 H   0  0  0  0  0  0  0  0  0  0  0  0
   11.2386   61.9967   39.5413 H   0  0  0  0  0  0  0  0  0  0  0  0
   10.3526   60.4265   39.8399 H   0  0  0  0  0  0  0  0  0  0  0  0
   12.2877   60.6429   37.5558 H   0  0  0  0  0  0  0  0  0  0  0  0
   12.8653   60.4038   39.2872 H   0  0  0  0  0  0  0  0  0  0  0  0
   11.3329   58.4085   39.3769 H   0  0  0  0  0  0  0  0  0  0  0  0
   11.2197   58.5773   37.5583 H   0  0  0  0  0  0  0  0  0  0  0  0
   12.5774   57.2292   36.3108 H   0  0  0  0  0  0  0  0  0  0  0  0
   14.6660   55.9157   36.0285 H   0  0  0  0  0  0  0  0  0  0  0  0
   16.3839   54.4181   39.5171 H   0  0  0  0  0  0  0  0  0  0  0  0
   18.4963   53.1340   39.2580 H   0  0  0  0  0  0  0  0  0  0  0  0
   21.2654   54.1222   37.5441 H   0  0  0  0  0  0  0  0  0  0  0  0
   20.3931   52.6075   38.0675 H   0  0  0  0  0  0  0  0  0  0  0  0
   19.6793   52.9679   35.3954 H   0  0  0  0  0  0  0  0  0  0  0  0
   21.4817   53.3418   35.5170 H   0  0  0  0  0  0  0  0  0  0  0  0
   21.3823   51.0711   36.9079 H   0  0  0  0  0  0  0  0  0  0  0  0
   20.0136   50.8314   35.6718 H   0  0  0  0  0  0  0  0  0  0  0  0
   22.1355   51.7343   34.2239 H   0  0  0  0  0  0  0  0  0  0  0  0
   22.3330   47.6430   33.6930 H   0  0  0  0  0  0  0  0  0  0  0  0
   19.4860   55.4646   35.7595 H   0  0  0  0  0  0  0  0  0  0  0  0
   17.3854   56.7594   36.0287 H   0  0  0  0  0  0  0  0  0  0  0  0
   16.0051   57.2050   39.9267 H   0  0  0  0  0  0  0  0  0  0  0  0
   13.9134   58.5147   40.2121 H   0  0  0  0  0  0  0  0  0  0  0  0
  1  2  1  0
  2  3  1  0
  3  4  1  0
  4  5  1  0
  5  6  2  0
  6  7  1  0
  7  8  2  0
  8  9  1  0
  9 10  2  0
 10 11  1  0
 11 12  2  0
 12 13  1  0
 13 14  1  0
 14 15  1  0
 15 16  1  0
 16 17  1  0
 17 18  2  0
 17 19  1  6
 17 20  1  0
 16 21  1  0
 21 22  2  0
 21 23  2  0
 21 24  1  0
 12 25  1  0
 25 26  2  0
  8 27  1  0
 27 28  2  0
 28  5  1  0
 26  9  1  0
  1 29  1  0
  1 30  1  0
  1 31  1  0
  2 32  1  0
  2 33  1  0
  3 34  1  0
  3 35  1  0
  4 36  1  0
  4 37  1  0
  6 38  1  0
  7 39  1  0
 10 40  1  0
 11 41  1  0
 13 42  1  0
 13 43  1  0
 14 44  1  0
 14 45  1  0
 15 46  1  0
 15 47  1  0
 16 48  1  6
 20 49  1  0
 25 50  1  0
 26 51  1  0
 27 52  1  0
 28 53  1  0
M  CHG  2  19  -1  24  -1
M  END
>  <meeko>  (3) 
{"is_sidechain": [false], "free_energy": -9.844, "intermolecular_energy": -15.91, "internal_energy": -1.332}

$$$$
2zcr_ligand
     RDKit          3D

 53 54  0  0  0  0  0  0  0  0999 V2000
    9.8250   61.6800   38.2080 C   0  0  0  0  0  0  0  0  0  0  0  0
   10.0530   60.3880   37.4400 C   0  0  0  0  0  0  0  0  0  0  0  0
   10.6760   59.2740   38.2870 C   0  0  0  0  0  0  0  0  0  0  0  0
   12.0520   59.5960   38.8820 C   0  0  0  0  0  0  0  0  0  0  0  0
   13.0950   58.5400   38.6150 C   0  0  0  0  0  0  0  0  0  0  0  0
   14.1380   58.3200   39.5210 C   0  0  0  0  0  0  0  0  0  0  0  0
   15.1070   57.3440   39.2680 C   0  0  0  0  0  0  0  0  0  0  0  0
   15.0610   56.5590   38.1060 C   0  0  0  0  0  0  0  0  0  0  0  0
   16.0810   55.5310   37.8380 C   0  0  0  0  0  0  0  0  0  0  0  0
   16.1590   54.3670   38.6200 C   0  0  0  0  0  0  0  0  0  0  0  0
   17.1410   53.3990   38.3760 C   0  0  0  0  0  0  0  0  0  0  0  0
   18.0660   53.5660   37.3400 C   0  0  0  0  0  0  0  0  0  0  0  0
   19.1390   52.5290   37.0960 C   0  0  0  0  0  0  0  0  0  0  0  0
   20.4810   53.1370   36.6750 C   0  0  0  0  0  0  0  0  0  0  0  0
   21.2340   52.3890   35.5660 C   0  0  0  0  0  0  0  0  0  0  0  0
   21.5870   50.9060   35.8150 C   0  0  2  0  0  0  0  0  0  0  0  0
   23.1670   50.6180   36.6490 P   0  0  2  0  0  5  0  0  0  0  0  0
   23.1520   49.4550   37.6090 O   0  0  0  0  0  0  0  0  0  0  0  0
   23.6580   51.9510   37.1870 O   0  0  0  0  0  0  0  0  0  0  0  0
   24.1660   50.2340   35.4260 O   0  0  0  0  0  0  0  0  0  0  0  0
   21.6180   50.0090   34.2590 S   0  0  0  0  0  0  0  0  0  0  0  0
   22.0700   48.6550   34.5670 O   0  0  0  0  0  0  0  0  0  0  0  0
   22.4920   50.7840   33.3700 O   0  0  0  0  0  0  0  0  0  0  0  0
   20.2180   50.0190   33.8100 O   0  0  0  0  0  0  0  0  0  0  0  0
   17.9950   54.7220   36.5570 C   0  0  0  0  0  0  0  0  0  0  0  0
   17.0170   55.6900   36.8050 C   0  0  0  0  0  0  0  0  0  0  0  0
   14.0090   56.7850   37.2040 C   0  0  0  0  0  0  0  0  0  0  0  0
   13.0380   57.7610   37.4530 C   0  0  0  0  0  0  0  0  0  0  0  0
    9.8611   61.4757   39.2883 H   0  0  0  0  0  0  0  0  0  0  0  0
   10.6090   62.4057   37.9457 H   0  0  0  0  0  0  0  0  0  0  0  0
    8.8400   62.0935   37.9457 H   0  0  0  0  0  0  0  0  0  0  0  0
    9.0838   60.0343   37.0585 H   0  0  0  0  0  0  0  0  0  0  0  0
   10.7632   60.6142   36.6310 H   0  0  0  0  0  0  0  0  0  0  0  0
    9.9894   59.0541   39.1178 H   0  0  0  0  0  0  0  0  0  0  0  0
   10.8300   58.4238   37.6063 H   0  0  0  0  0  0  0  0  0  0  0  0
   12.4022   60.5456   38.4511 H   0  0  0  0  0  0  0  0  0  0  0  0
   11.9236   59.6496   39.9732 H   0  0  0  0  0  0  0  0  0  0  0  0
   14.1964   58.9203   40.4409 H   0  0  0  0  0  0  0  0  0  0  0  0
   15.9197   57.1890   39.9929 H   0  0  0  0  0  0  0  0  0  0  0  0
   15.4379   54.2134   39.4364 H   0  0  0  0  0  0  0  0  0  0  0  0
   17.1855   52.4980   39.0055 H   0  0  0  0  0  0  0  0  0  0  0  0
   19.2898   51.9570   38.0234 H   0  0  0  0  0  0  0  0  0  0  0  0
   18.7951   51.8910   36.2686 H   0  0  0  0  0  0  0  0  0  0  0  0
   20.2917   54.1617   36.3227 H   0  0  0  0  0  0  0  0  0  0  0  0
   21.1263   53.0820   37.5641 H   0  0  0  0  0  0  0  0  0  0  0  0
   20.6120   52.4314   34.6598 H   0  0  0  0  0  0  0  0  0  0  0  0
   22.2060   52.8991   35.4958 H   0  0  0  0  0  0  0  0  0  0  0  0
   20.7974   50.5462   36.4910 H   0  0  0  0  0  0  0  0  0  0  0  0
   24.6790   49.4280   35.7090 H   0  0  0  0  0  0  0  0  0  0  0  0
   18.7148   54.8713   35.7387 H   0  0  0  0  0  0  0  0  0  0  0  0
   16.9807   56.5933   36.1783 H   0  0  0  0  0  0  0  0  0  0  0  0
   13.9471   56.1838   36.2849 H   0  0  0  0  0  0  0  0  0  0  0  0
   12.2236   57.9175   36.7303 H   0  0  0  0  0  0  0  0  0  0  0  0
  1  2  1  0
  2  3  1  0
  3  4  1  0
  4  5  1  0
  5  6  2  0
  6  7  1  0
  7  8  2  0
  8  9  1  0
  9 10  2  0
 10 11  1  0
 11 12  2  0
 12 13  1  0
 13 14  1  0
 14 15  1  0
 15 16  1  0
 16 17  1  0
 17 18  2  0
 17 19  1  1
 17 20  1  0
 16 21  1  0
 21 22  2  0
 21 23  2  0
 21 24  1  0
 12 25  1  0
 25 26  2  0
  8 27  1  0
 27 28  2  0
 28  5  1  0
 26  9  1  0
  1 29  1  0
  1 30  1  0
  1 31  1  0
  2 32  1  0
  2 33  1  0
  3 34  1  0
  3 35  1  0
  4 36  1  0
  4 37  1  0
  6 38  1  0
  7 39  1  0
 10 40  1  0
 11 41  1  0
 13 42  1  0
 13 43  1  0
 14 44  1  0
 14 45  1  0
 15 46  1  0
 15 47  1  0
 16 48  1  1
 20 49  1  0
 25 50  1  0
 26 51  1  0
 27 52  1  0
 28 53  1  0
M  CHG  2  19  -1  24  -1
M  END
>  <meeko>  (4) 
{"is_sidechain": [false], "free_energy": -9.773, "intermolecular_energy": -15.738, "internal_energy": -1.389}

$$$$
2zcr_ligand
     RDKit          3D

 53 54  0  0  0  0  0  0  0  0999 V2000
    9.8880   61.6640   38.2200 C   0  0  0  0  0  0  0  0  0  0  0  0
    9.5340   60.2330   38.5920 C   0  0  0  0  0  0  0  0  0  0  0  0
   10.6300   59.2210   38.2430 C   0  0  0  0  0  0  0  0  0  0  0  0
   12.0270   59.5590   38.7760 C   0  0  0  0  0  0  0  0  0  0  0  0
   13.0650   58.5060   38.4800 C   0  0  0  0  0  0  0  0  0  0  0  0
   13.0130   57.7640   37.2940 C   0  0  0  0  0  0  0  0  0  0  0  0
   13.9740   56.7850   37.0240 C   0  0  0  0  0  0  0  0  0  0  0  0
   15.0140   56.5200   37.9280 C   0  0  0  0  0  0  0  0  0  0  0  0
   16.0260   55.4880   37.6440 C   0  0  0  0  0  0  0  0  0  0  0  0
   16.9470   55.6440   36.5960 C   0  0  0  0  0  0  0  0  0  0  0  0
   17.8970   54.6550   36.3160 C   0  0  0  0  0  0  0  0  0  0  0  0
   17.9560   53.4860   37.0810 C   0  0  0  0  0  0  0  0  0  0  0  0
   18.9690   52.4090   36.7600 C   0  0  0  0  0  0  0  0  0  0  0  0
   20.4070   52.9330   36.7010 C   0  0  0  0  0  0  0  0  0  0  0  0
   21.3040   52.3030   35.6270 C   0  0  0  0  0  0  0  0  0  0  0  0
   21.6980   50.8190   35.8040 C   0  0  2  0  0  0  0  0  0  0  0  0
   23.2960   50.5360   36.6040 P   0  0  2  0  0  5  0  0  0  0  0  0
   23.2920   49.4050   37.6010 O   0  0  0  0  0  0  0  0  0  0  0  0
   23.8200   51.8780   37.0850 O   0  0  0  0  0  0  0  0  0  0  0  0
   24.2570   50.0980   35.3680 O   0  0  0  0  0  0  0  0  0  0  0  0
   21.7300   49.9950   34.2090 S   0  0  0  0  0  0  0  0  0  0  0  0
   22.1670   48.6230   34.4570 O   0  0  0  0  0  0  0  0  0  0  0  0
   22.6190   50.7990   33.3620 O   0  0  0  0  0  0  0  0  0  0  0  0
   20.3340   50.0390   33.7510 O   0  0  0  0  0  0  0  0  0  0  0  0
   17.0440   53.3220   38.1280 C   0  0  0  0  0  0  0  0  0  0  0  0
   16.0920   54.3090   38.4030 C   0  0  0  0  0  0  0  0  0  0  0  0
   15.0600   57.2710   39.1120 C   0  0  0  0  0  0  0  0  0  0  0  0
   14.1000   58.2510   39.3860 C   0  0  0  0  0  0  0  0  0  0  0  0
   10.0343   62.2554   39.1359 H   0  0  0  0  0  0  0  0  0  0  0  0
   10.8148   61.6703   37.6275 H   0  0  0  0  0  0  0  0  0  0  0  0
    9.0710   62.1016   37.6275 H   0  0  0  0  0  0  0  0  0  0  0  0
    9.3529   60.1899   39.6761 H   0  0  0  0  0  0  0  0  0  0  0  0
    8.6429   59.9584   38.0085 H   0  0  0  0  0  0  0  0  0  0  0  0
   10.3355   58.2450   38.6562 H   0  0  0  0  0  0  0  0  0  0  0  0
   10.7128   59.2282   37.1461 H   0  0  0  0  0  0  0  0  0  0  0  0
   12.3528   60.5048   38.3185 H   0  0  0  0  0  0  0  0  0  0  0  0
   11.9435   59.6263   39.8708 H   0  0  0  0  0  0  0  0  0  0  0  0
   12.2087   57.9529   36.5678 H   0  0  0  0  0  0  0  0  0  0  0  0
   13.9138   56.2126   36.0866 H   0  0  0  0  0  0  0  0  0  0  0  0
   16.9216   56.5583   35.9850 H   0  0  0  0  0  0  0  0  0  0  0  0
   18.6043   54.7988   35.4859 H   0  0  0  0  0  0  0  0  0  0  0  0
   18.9114   51.6320   37.5365 H   0  0  0  0  0  0  0  0  0  0  0  0
   18.7230   52.0150   35.7629 H   0  0  0  0  0  0  0  0  0  0  0  0
   20.3641   54.0158   36.5122 H   0  0  0  0  0  0  0  0  0  0  0  0
   20.8625   52.6646   37.6656 H   0  0  0  0  0  0  0  0  0  0  0  0
   20.7774   52.3912   34.6653 H   0  0  0  0  0  0  0  0  0  0  0  0
   22.2533   52.8543   35.6974 H   0  0  0  0  0  0  0  0  0  0  0  0
   20.9274   50.4077   36.4727 H   0  0  0  0  0  0  0  0  0  0  0  0
   24.5930   50.9360   34.9480 H   0  0  0  0  0  0  0  0  0  0  0  0
   17.0755   52.4089   38.7406 H   0  0  0  0  0  0  0  0  0  0  0  0
   15.3818   54.1586   39.2294 H   0  0  0  0  0  0  0  0  0  0  0  0
   15.8654   57.0860   39.8380 H   0  0  0  0  0  0  0  0  0  0  0  0
   14.1595   58.8260   40.3219 H   0  0  0  0  0  0  0  0  0  0  0  0
  1  2  1  0
  2  3  1  0
  3  4  1  0
  4  5  1  0
  5  6  2  0
  6  7  1  0
  7  8  2  0
  8  9  1  0
  9 10  2  0
 10 11  1  0
 11 12  2  0
 12 13  1  0
 13 14  1  0
 14 15  1  0
 15 16  1  0
 16 17  1  0
 17 18  2  0
 17 19  1  1
 17 20  1  0
 16 21  1  0
 21 22  2  0
 21 23  2  0
 21 24  1  0
 12 25  1  0
 25 26  2  0
  8 27  1  0
 27 28  2  0
 28  5  1  0
 26  9  1  0
  1 29  1  0
  1 30  1  0
  1 31  1  0
  2 32  1  0
  2 33  1  0
  3 34  1  0
  3 35  1  0
  4 36  1  0
  4 37  1  0
  6 38  1  0
  7 39  1  0
 10 40  1  0
 11 41  1  0
 13 42  1  0
 13 43  1  0
 14 44  1  0
 14 45  1  0
 15 46  1  0
 15 47  1  0
 16 48  1  1
 20 49  1  0
 25 50  1  0
 26 51  1  0
 27 52  1  0
 28 53  1  0
M  CHG  2  19  -1  24  -1
M  END
>  <meeko>  (5) 
{"is_sidechain": [false], "free_energy": -9.595, "intermolecular_energy": -15.489, "internal_energy": -1.352}

$$$$
2zcr_ligand
     RDKit          3D

 53 54  0  0  0  0  0  0  0  0999 V2000
    9.7920   61.5790   38.1950 C   0  0  0  0  0  0  0  0  0  0  0  0
   10.4040   60.4660   37.3600 C   0  0  0  0  0  0  0  0  0  0  0  0
   10.8610   59.2600   38.1870 C   0  0  0  0  0  0  0  0  0  0  0  0
   12.1850   59.4450   38.9380 C   0  0  0  0  0  0  0  0  0  0  0  0
   13.2250   58.4060   38.6070 C   0  0  0  0  0  0  0  0  0  0  0  0
   13.1420   57.6630   37.4240 C   0  0  0  0  0  0  0  0  0  0  0  0
   14.1060   56.6960   37.1220 C   0  0  0  0  0  0  0  0  0  0  0  0
   15.1790   56.4440   37.9900 C   0  0  0  0  0  0  0  0  0  0  0  0
   16.1950   55.4260   37.6720 C   0  0  0  0  0  0  0  0  0  0  0  0
   17.0990   55.6080   36.6140 C   0  0  0  0  0  0  0  0  0  0  0  0
   18.0520   54.6310   36.3020 C   0  0  0  0  0  0  0  0  0  0  0  0
   18.1300   53.4480   37.0440 C   0  0  0  0  0  0  0  0  0  0  0  0
   19.1460   52.3850   36.6880 C   0  0  0  0  0  0  0  0  0  0  0  0
   20.5780   52.9210   36.6130 C   0  0  0  0  0  0  0  0  0  0  0  0
   21.6370   52.1060   37.3670 C   0  0  0  0  0  0  0  0  0  0  0  0
   22.9250   51.7240   36.6040 C   0  0  2  0  0  0  0  0  0  0  0  0
   22.9170   50.0800   35.8490 P   0  0  2  0  0  5  0  0  0  0  0  0
   24.2580   49.6390   35.3200 O   0  0  0  0  0  0  0  0  0  0  0  0
   21.7410   50.0150   34.8880 O   0  0  0  0  0  0  0  0  0  0  0  0
   22.5330   49.1040   37.0910 O   0  0  0  0  0  0  0  0  0  0  0  0
   24.3430   51.8150   37.7020 S   0  0  0  0  0  0  0  0  0  0  0  0
   24.3850   50.5520   38.4350 O   0  0  0  0  0  0  0  0  0  0  0  0
   24.1380   53.0160   38.5200 O   0  0  0  0  0  0  0  0  0  0  0  0
   25.4930   51.9480   36.7950 O   0  0  0  0  0  0  0  0  0  0  0  0
   17.2340   53.2580   38.1000 C   0  0  0  0  0  0  0  0  0  0  0  0
   16.2800   54.2330   38.4070 C   0  0  0  0  0  0  0  0  0  0  0  0
   15.2560   57.1970   39.1720 C   0  0  0  0  0  0  0  0  0  0  0  0
   14.2940   58.1640   39.4780 C   0  0  0  0  0  0  0  0  0  0  0  0
    9.9189   61.3483   39.2630 H   0  0  0  0  0  0  0  0  0  0  0  0
   10.2941   62.5298   37.9631 H   0  0  0  0  0  0  0  0  0  0  0  0
    8.7201   61.6643   37.9631 H   0  0  0  0  0  0  0  0  0  0  0  0
    9.6534   60.1243   36.6321 H   0  0  0  0  0  0  0  0  0  0  0  0
   11.2988   60.8819   36.8739 H   0  0  0  0  0  0  0  0  0  0  0  0
   10.0781   59.0393   38.9275 H   0  0  0  0  0  0  0  0  0  0  0  0
   11.0300   58.4445   37.4684 H   0  0  0  0  0  0  0  0  0  0  0  0
   12.5916   60.4351   38.6844 H   0  0  0  0  0  0  0  0  0  0  0  0
   11.9610   59.3424   40.0101 H   0  0  0  0  0  0  0  0  0  0  0  0
   12.3111   57.8412   36.7255 H   0  0  0  0  0  0  0  0  0  0  0  0
   14.0215   56.1226   36.1871 H   0  0  0  0  0  0  0  0  0  0  0  0
   17.0581   56.5332   36.0204 H   0  0  0  0  0  0  0  0  0  0  0  0
   18.7464   54.7954   35.4649 H   0  0  0  0  0  0  0  0  0  0  0  0
   19.1079   51.5949   37.4524 H   0  0  0  0  0  0  0  0  0  0  0  0
   18.8860   52.0057   35.6887 H   0  0  0  0  0  0  0  0  0  0  0  0
   20.8703   52.9554   35.5531 H   0  0  0  0  0  0  0  0  0  0  0  0
   20.5543   53.9055   37.1031 H   0  0  0  0  0  0  0  0  0  0  0  0
   21.9382   52.6928   38.2473 H   0  0  0  0  0  0  0  0  0  0  0  0
   21.1467   51.1456   37.5843 H   0  0  0  0  0  0  0  0  0  0  0  0
   22.9828   52.4533   35.7826 H   0  0  0  0  0  0  0  0  0  0  0  0
   22.6860   49.6210   37.9280 H   0  0  0  0  0  0  0  0  0  0  0  0
   17.2798   52.3336   38.6945 H   0  0  0  0  0  0  0  0  0  0  0  0
   15.5827   54.0620   39.2404 H   0  0  0  0  0  0  0  0  0  0  0  0
   16.0882   57.0231   39.8700 H   0  0  0  0  0  0  0  0  0  0  0  0
   14.3777   58.7399   40.4115 H   0  0  0  0  0  0  0  0  0  0  0  0
  1  2  1  0
  2  3  1  0
  3  4  1  0
  4  5  1  0
  5  6  2  0
  6  7  1  0
  7  8  2  0
  8  9  1  0
  9 10  2  0
 10 11  1  0
 11 12  2  0
 12 13  1  0
 13 14  1  0
 14 15  1  0
 15 16  1  0
 16 17  1  0
 17 18  2  0
 17 19  1  6
 17 20  1  0
 16 21  1  0
 21 22  2  0
 21 23  2  0
 21 24  1  0
 12 25  1  0
 25 26  2  0
  8 27  1  0
 27 28  2  0
 28  5  1  0
 26  9  1  0
  1 29  1  0
  1 30  1  0
  1 31  1  0
  2 32  1  0
  2 33  1  0
  3 34  1  0
  3 35  1  0
  4 36  1  0
  4 37  1  0
  6 38  1  0
  7 39  1  0
 10 40  1  0
 11 41  1  0
 13 42  1  0
 13 43  1  0
 14 44  1  0
 14 45  1  0
 15 46  1  0
 15 47  1  0
 16 48  1  6
 20 49  1  0
 25 50  1  0
 26 51  1  0
 27 52  1  0
 28 53  1  0
M  CHG  2  19  -1  24  -1
M  END
>  <meeko>  (6) 
{"is_sidechain": [false], "free_energy": -9.388, "intermolecular_energy": -15.43, "internal_energy": -1.076}

$$$$
2zcr_ligand
     RDKit          3D

 53 54  0  0  0  0  0  0  0  0999 V2000
   11.7370   60.6530   39.0430 C   0  0  0  0  0  0  0  0  0  0  0  0
   11.2740   59.7610   37.9020 C   0  0  0  0  0  0  0  0  0  0  0  0
   12.0200   58.4240   37.8280 C   0  0  0  0  0  0  0  0  0  0  0  0
   13.1740   58.2630   38.8240 C   0  0  0  0  0  0  0  0  0  0  0  0
   14.1880   57.2230   38.4210 C   0  0  0  0  0  0  0  0  0  0  0  0
   15.0280   56.6360   39.3740 C   0  0  0  0  0  0  0  0  0  0  0  0
   15.9700   55.6750   38.9960 C   0  0  0  0  0  0  0  0  0  0  0  0
   16.1000   55.2710   37.6590 C   0  0  0  0  0  0  0  0  0  0  0  0
   17.0930   54.2590   37.2610 C   0  0  0  0  0  0  0  0  0  0  0  0
   16.7000   53.0610   36.6410 C   0  0  0  0  0  0  0  0  0  0  0  0
   17.6420   52.0920   36.2800 C   0  0  0  0  0  0  0  0  0  0  0  0
   19.0050   52.2970   36.5210 C   0  0  0  0  0  0  0  0  0  0  0  0
   20.0180   51.2370   36.1500 C   0  0  0  0  0  0  0  0  0  0  0  0
   21.3010   51.3110   36.9820 C   0  0  0  0  0  0  0  0  0  0  0  0
   22.6100   51.0930   36.2110 C   0  0  0  0  0  0  0  0  0  0  0  0
   23.7320   50.2990   36.9170 C   0  0  2  0  0  0  0  0  0  0  0  0
   25.0040   51.3050   37.7180 P   0  0  2  0  0  5  0  0  0  0  0  0
   25.7220   50.6070   38.8450 O   0  0  0  0  0  0  0  0  0  0  0  0
   24.3970   52.6640   38.0230 O   0  0  0  0  0  0  0  0  0  0  0  0
   26.0830   51.5550   36.5280 O   0  0  0  0  0  0  0  0  0  0  0  0
   24.5520   49.2130   35.7430 S   0  0  0  0  0  0  0  0  0  0  0  0
   23.6400   48.0980   35.5000 O   0  0  0  0  0  0  0  0  0  0  0  0
   25.8370   48.8590   36.3580 O   0  0  0  0  0  0  0  0  0  0  0  0
   24.7190   50.0420   34.5410 O   0  0  0  0  0  0  0  0  0  0  0  0
   19.4060   53.4870   37.1360 C   0  0  0  0  0  0  0  0  0  0  0  0
   18.4620   54.4510   37.5020 C   0  0  0  0  0  0  0  0  0  0  0  0
   15.2500   55.8620   36.7110 C   0  0  0  0  0  0  0  0  0  0  0  0
   14.3070   56.8250   37.0850 C   0  0  0  0  0  0  0  0  0  0  0  0
   11.4901   60.1774   40.0036 H   0  0  0  0  0  0  0  0  0  0  0  0
   12.8251   60.7997   38.9754 H   0  0  0  0  0  0  0  0  0  0  0  0
   11.2308   61.6272   38.9754 H   0  0  0  0  0  0  0  0  0  0  0  0
   10.2018   59.5543   38.0350 H   0  0  0  0  0  0  0  0  0  0  0  0
   11.4827   60.2996   36.9659 H   0  0  0  0  0  0  0  0  0  0  0  0
   11.2943   57.6189   38.0154 H   0  0  0  0  0  0  0  0  0  0  0  0
   12.4738   58.3833   36.8268 H   0  0  0  0  0  0  0  0  0  0  0  0
   13.6887   59.2307   38.9172 H   0  0  0  0  0  0  0  0  0  0  0  0
   12.7318   57.9267   39.7734 H   0  0  0  0  0  0  0  0  0  0  0  0
   14.9462   56.9335   40.4298 H   0  0  0  0  0  0  0  0  0  0  0  0
   16.6214   55.2273   39.7610 H   0  0  0  0  0  0  0  0  0  0  0  0
   15.6341   52.8822   36.4361 H   0  0  0  0  0  0  0  0  0  0  0  0
   17.3079   51.1594   35.8018 H   0  0  0  0  0  0  0  0  0  0  0  0
   19.5603   50.2481   36.3006 H   0  0  0  0  0  0  0  0  0  0  0  0
   20.2991   51.4068   35.1002 H   0  0  0  0  0  0  0  0  0  0  0  0
   21.3449   52.3070   37.4469 H   0  0  0  0  0  0  0  0  0  0  0  0
   21.2376   50.4831   37.7035 H   0  0  0  0  0  0  0  0  0  0  0  0
   22.3604   50.5564   35.2838 H   0  0  0  0  0  0  0  0  0  0  0  0
   23.0253   52.1024   36.0744 H   0  0  0  0  0  0  0  0  0  0  0  0
   23.2149   49.7433   37.7131 H   0  0  0  0  0  0  0  0  0  0  0  0
   26.0530   52.5250   36.3040 H   0  0  0  0  0  0  0  0  0  0  0  0
   20.4732   53.6661   37.3335 H   0  0  0  0  0  0  0  0  0  0  0  0
   18.7990   55.3782   37.9885 H   0  0  0  0  0  0  0  0  0  0  0  0
   15.3269   55.5625   35.6553 H   0  0  0  0  0  0  0  0  0  0  0  0
   13.6534   57.2732   36.3222 H   0  0  0  0  0  0  0  0  0  0  0  0
  1  2  1  0
  2  3  1  0
  3  4  1  0
  4  5  1  0
  5  6  2  0
  6  7  1  0
  7  8  2  0
  8  9  1  0
  9 10  2  0
 10 11  1  0
 11 12  2  0
 12 13  1  0
 13 14  1  0
 14 15  1  0
 15 16  1  0
 16 17  1  0
 17 18  2  0
 17 19  1  1
 17 20  1  0
 16 21  1  0
 21 22  2  0
 21 23  2  0
 21 24  1  0
 12 25  1  0
 25 26  2  0
  8 27  1  0
 27 28  2  0
 28  5  1  0
 26  9  1  0
  1 29  1  0
  1 30  1  0
  1 31  1  0
  2 32  1  0
  2 33  1  0
  3 34  1  0
  3 35  1  0
  4 36  1  0
  4 37  1  0
  6 38  1  0
  7 39  1  0
 10 40  1  0
 11 41  1  0
 13 42  1  0
 13 43  1  0
 14 44  1  0
 14 45  1  0
 15 46  1  0
 15 47  1  0
 16 48  1  1
 20 49  1  0
 25 50  1  0
 26 51  1  0
 27 52  1  0
 28 53  1  0
M  CHG  2  19  -1  24  -1
M  END
>  <meeko>  (7) 
{"is_sidechain": [false], "free_energy": -9.019, "intermolecular_energy": -14.622, "internal_energy": -1.289}

$$$$
2zcr_ligand
     RDKit          3D

 53 54  0  0  0  0  0  0  0  0999 V2000
   11.9720   59.8130   37.3450 C   0  0  0  0  0  0  0  0  0  0  0  0
   12.8130   60.1040   38.5780 C   0  0  0  0  0  0  0  0  0  0  0  0
   13.6800   58.9210   39.0210 C   0  0  0  0  0  0  0  0  0  0  0  0
   13.3350   57.5770   38.3700 C   0  0  0  0  0  0  0  0  0  0  0  0
   14.5400   56.7500   38.0010 C   0  0  0  0  0  0  0  0  0  0  0  0
   15.3730   56.2180   38.9920 C   0  0  0  0  0  0  0  0  0  0  0  0
   16.4930   55.4550   38.6470 C   0  0  0  0  0  0  0  0  0  0  0  0
   16.8110   55.2000   37.3040 C   0  0  0  0  0  0  0  0  0  0  0  0
   17.9910   54.3970   36.9400 C   0  0  0  0  0  0  0  0  0  0  0  0
   17.9210   52.9960   36.8690 C   0  0  0  0  0  0  0  0  0  0  0  0
   19.0470   52.2330   36.5400 C   0  0  0  0  0  0  0  0  0  0  0  0
   20.2730   52.8500   36.2660 C   0  0  0  0  0  0  0  0  0  0  0  0
   21.4920   52.0200   35.9340 C   0  0  0  0  0  0  0  0  0  0  0  0
   21.2260   50.5120   35.9800 C   0  0  0  0  0  0  0  0  0  0  0  0
   21.8650   49.6870   34.8550 C   0  0  0  0  0  0  0  0  0  0  0  0
   23.2390   50.1490   34.3200 C   0  0  2  0  0  0  0  0  0  0  0  0
   23.5850   49.7090   32.5990 P   0  0  2  0  0  5  0  0  0  0  0  0
   22.4830   50.0740   31.6370 O   0  0  0  0  0  0  0  0  0  0  0  0
   24.0710   48.2690   32.5760 O   0  0  0  0  0  0  0  0  0  0  0  0
   24.8790   50.6230   32.2360 O   0  0  0  0  0  0  0  0  0  0  0  0
   24.5560   49.4690   35.3340 S   0  0  0  0  0  0  0  0  0  0  0  0
   25.7850   49.5830   34.5530 O   0  0  0  0  0  0  0  0  0  0  0  0
   24.1400   48.1010   35.6650 O   0  0  0  0  0  0  0  0  0  0  0  0
   24.5880   50.3420   36.5160 O   0  0  0  0  0  0  0  0  0  0  0  0
   20.3510   54.2440   36.3340 C   0  0  0  0  0  0  0  0  0  0  0  0
   19.2260   55.0050   36.6670 C   0  0  0  0  0  0  0  0  0  0  0  0
   15.9680   55.7340   36.3180 C   0  0  0  0  0  0  0  0  0  0  0  0
   14.8470   56.4980   36.6590 C   0  0  0  0  0  0  0  0  0  0  0  0
   10.9745   59.4678   37.6546 H   0  0  0  0  0  0  0  0  0  0  0  0
   11.8729   60.7291   36.7442 H   0  0  0  0  0  0  0  0  0  0  0  0
   12.4602   59.0316   36.7442 H   0  0  0  0  0  0  0  0  0  0  0  0
   13.4732   60.9553   38.3559 H   0  0  0  0  0  0  0  0  0  0  0  0
   12.1158   60.3196   39.4010 H   0  0  0  0  0  0  0  0  0  0  0  0
   14.7267   59.1572   38.7790 H   0  0  0  0  0  0  0  0  0  0  0  0
   13.4948   58.7942   40.0979 H   0  0  0  0  0  0  0  0  0  0  0  0
   12.7204   56.9982   39.0752 H   0  0  0  0  0  0  0  0  0  0  0  0
   12.8037   57.8028   37.4336 H   0  0  0  0  0  0  0  0  0  0  0  0
   15.1445   56.4018   40.0522 H   0  0  0  0  0  0  0  0  0  0  0  0
   17.1356   55.0478   39.4416 H   0  0  0  0  0  0  0  0  0  0  0  0
   16.9660   52.4906   37.0753 H   0  0  0  0  0  0  0  0  0  0  0  0
   18.9677   51.1367   36.4963 H   0  0  0  0  0  0  0  0  0  0  0  0
   21.8299   52.2847   34.9212 H   0  0  0  0  0  0  0  0  0  0  0  0
   22.2550   52.2408   36.6950 H   0  0  0  0  0  0  0  0  0  0  0  0
   21.6094   50.1306   36.9379 H   0  0  0  0  0  0  0  0  0  0  0  0
   20.1392   50.3962   35.8554 H   0  0  0  0  0  0  0  0  0  0  0  0
   21.9860   48.6595   35.2286 H   0  0  0  0  0  0  0  0  0  0  0  0
   21.1804   49.8015   34.0016 H   0  0  0  0  0  0  0  0  0  0  0  0
   23.1969   51.2472   34.3678 H   0  0  0  0  0  0  0  0  0  0  0  0
   24.5710   51.3290   31.6050 H   0  0  0  0  0  0  0  0  0  0  0  0
   21.3063   54.7471   36.1236 H   0  0  0  0  0  0  0  0  0  0  0  0
   19.3107   56.1006   36.7159 H   0  0  0  0  0  0  0  0  0  0  0  0
   16.1927   55.5485   35.2573 H   0  0  0  0  0  0  0  0  0  0  0  0
   14.2016   56.9040   35.8661 H   0  0  0  0  0  0  0  0  0  0  0  0
  1  2  1  0
  2  3  1  0
  3  4  1  0
  4  5  1  0
  5  6  2  0
  6  7  1  0
  7  8  2  0
  8  9  1  0
  9 10  2  0
 10 11  1  0
 11 12  2  0
 12 13  1  0
 13 14  1  0
 14 15  1  0
 15 16  1  0
 16 17  1  0
 17 18  2  0
 17 19  1  1
 17 20  1  0
 16 21  1  0
 21 22  2  0
 21 23  2  0
 21 24  1  0
 12 25  1  0
 25 26  2  0
  8 27  1  0
 27 28  2  0
 28  5  1  0
 26  9  1  0
  1 29  1  0
  1 30  1  0
  1 31  1  0
  2 32  1  0
  2 33  1  0
  3 34  1  0
  3 35  1  0
  4 36  1  0
  4 37  1  0
  6 38  1  0
  7 39  1  0
 10 40  1  0
 11 41  1  0
 13 42  1  0
 13 43  1  0
 14 44  1  0
 14 45  1  0
 15 46  1  0
 15 47  1  0
 16 48  1  6
 20 49  1  0
 25 50  1  0
 26 51  1  0
 27 52  1  0
 28 53  1  0
M  CHG  2  19  -1  24  -1
M  END
>  <meeko>  (8) 
{"is_sidechain": [false], "free_energy": -8.842, "intermolecular_energy": -14.589, "internal_energy": -1.035}

$$$$
2zcr_ligand
     RDKit          3D

 53 54  0  0  0  0  0  0  0  0999 V2000
   10.0510   59.9890   37.3660 C   0  0  0  0  0  0  0  0  0  0  0  0
   11.5700   59.9620   37.4250 C   0  0  0  0  0  0  0  0  0  0  0  0
   12.1700   58.5900   37.1000 C   0  0  0  0  0  0  0  0  0  0  0  0
   12.7770   57.8420   38.2930 C   0  0  0  0  0  0  0  0  0  0  0  0
   14.0120   57.0490   37.9530 C   0  0  0  0  0  0  0  0  0  0  0  0
   14.3160   56.7340   36.6230 C   0  0  0  0  0  0  0  0  0  0  0  0
   15.4610   55.9940   36.3110 C   0  0  0  0  0  0  0  0  0  0  0  0
   16.3340   55.5500   37.3140 C   0  0  0  0  0  0  0  0  0  0  0  0
   17.5400   54.7700   36.9860 C   0  0  0  0  0  0  0  0  0  0  0  0
   17.5480   53.3690   37.0890 C   0  0  0  0  0  0  0  0  0  0  0  0
   18.6990   52.6300   36.7940 C   0  0  0  0  0  0  0  0  0  0  0  0
   19.8730   53.2710   36.3810 C   0  0  0  0  0  0  0  0  0  0  0  0
   21.1210   52.4700   36.0860 C   0  0  0  0  0  0  0  0  0  0  0  0
   21.0110   51.0040   36.5130 C   0  0  0  0  0  0  0  0  0  0  0  0
   22.3010   50.3640   37.0450 C   0  0  0  0  0  0  0  0  0  0  0  0
   23.6270   50.7370   36.3440 C   0  0  2  0  0  0  0  0  0  0  0  0
   24.4680   49.3720   35.5060 P   0  0  2  0  0  5  0  0  0  0  0  0
   25.2420   49.7870   34.2810 O   0  0  0  0  0  0  0  0  0  0  0  0
   23.4670   48.2410   35.3400 O   0  0  0  0  0  0  0  0  0  0  0  0
   25.5400   48.8610   36.6160 O   0  0  0  0  0  0  0  0  0  0  0  0
   24.7760   51.4420   37.5320 S   0  0  0  0  0  0  0  0  0  0  0  0
   24.2150   52.7260   37.9440 O   0  0  0  0  0  0  0  0  0  0  0  0
   26.0710   51.5060   36.8440 O   0  0  0  0  0  0  0  0  0  0  0  0
   24.7820   50.4780   38.6420 O   0  0  0  0  0  0  0  0  0  0  0  0
   19.8730   54.6650   36.2750 C   0  0  0  0  0  0  0  0  0  0  0  0
   18.7240   55.4020   36.5750 C   0  0  0  0  0  0  0  0  0  0  0  0
   16.0240   55.8730   38.6440 C   0  0  0  0  0  0  0  0  0  0  0  0
   14.8790   56.6120   38.9610 C   0  0  0  0  0  0  0  0  0  0  0  0
    9.6444   59.9962   38.3881 H   0  0  0  0  0  0  0  0  0  0  0  0
    9.7207   60.8932   36.8336 H   0  0  0  0  0  0  0  0  0  0  0  0
    9.6888   59.0971   36.8336 H   0  0  0  0  0  0  0  0  0  0  0  0
   11.9596   60.6928   36.7010 H   0  0  0  0  0  0  0  0  0  0  0  0
   11.8580   60.2045   38.4586 H   0  0  0  0  0  0  0  0  0  0  0  0
   11.3729   57.9623   36.6750 H   0  0  0  0  0  0  0  0  0  0  0  0
   13.0006   58.7780   36.4038 H   0  0  0  0  0  0  0  0  0  0  0  0
   13.0407   58.5790   39.0659 H   0  0  0  0  0  0  0  0  0  0  0  0
   12.0200   57.1217   38.6365 H   0  0  0  0  0  0  0  0  0  0  0  0
   13.6484   57.0715   35.8165 H   0  0  0  0  0  0  0  0  0  0  0  0
   15.6805   55.7561   35.2597 H   0  0  0  0  0  0  0  0  0  0  0  0
   16.6348   52.8445   37.4067 H   0  0  0  0  0  0  0  0  0  0  0  0
   18.6812   51.5341   36.8876 H   0  0  0  0  0  0  0  0  0  0  0  0
   21.3115   52.5055   35.0032 H   0  0  0  0  0  0  0  0  0  0  0  0
   21.9420   52.9185   36.6646 H   0  0  0  0  0  0  0  0  0  0  0  0
   20.2507   50.9395   37.3053 H   0  0  0  0  0  0  0  0  0  0  0  0
   20.7551   50.4457   35.6004 H   0  0  0  0  0  0  0  0  0  0  0  0
   22.3971   50.6481   38.1033 H   0  0  0  0  0  0  0  0  0  0  0  0
   22.1777   49.2876   36.8547 H   0  0  0  0  0  0  0  0  0  0  0  0
   23.3329   51.4573   35.5664 H   0  0  0  0  0  0  0  0  0  0  0  0
   25.7190   49.6270   37.2260 H   0  0  0  0  0  0  0  0  0  0  0  0
   20.7861   55.1868   35.9524 H   0  0  0  0  0  0  0  0  0  0  0  0
   18.7480   56.4982   36.4874 H   0  0  0  0  0  0  0  0  0  0  0  0
   16.6927   55.5395   39.4512 H   0  0  0  0  0  0  0  0  0  0  0  0
   14.6583   56.8516   40.0117 H   0  0  0  0  0  0  0  0  0  0  0  0
  1  2  1  0
  2  3  1  0
  3  4  1  0
  4  5  1  0
  5  6  2  0
  6  7  1  0
  7  8  2  0
  8  9  1  0
  9 10  2  0
 10 11  1  0
 11 12  2  0
 12 13  1  0
 13 14  1  0
 14 15  1  0
 15 16  1  0
 16 17  1  0
 17 18  2  0
 17 19  1  6
 17 20  1  0
 16 21  1  0
 21 22  2  0
 21 23  2  0
 21 24  1  0
 12 25  1  0
 25 26  2  0
  8 27  1  0
 27 28  2  0
 28  5  1  0
 26  9  1  0
  1 29  1  0
  1 30  1  0
  1 31  1  0
  2 32  1  0
  2 33  1  0
  3 34  1  0
  3 35  1  0
  4 36  1  0
  4 37  1  0
  6 38  1  0
  7 39  1  0
 10 40  1  0
 11 41  1  0
 13 42  1  0
 13 43  1  0
 14 44  1  0
 14 45  1  0
 15 46  1  0
 15 47  1  0
 16 48  1  6
 20 49  1  0
 25 50  1  0
 26 51  1  0
 27 52  1  0
 28 53  1  0
M  CHG  2  19  -1  24  -1
M  END
>  <meeko>  (9) 
{"is_sidechain": [false], "free_energy": -8.774, "intermolecular_energy": -14.138, "internal_energy": -1.377}

$$$$
