5tmn_ligand
     RDKit          3D

 64 64  0  0  0  0  0  0  0  0999 V2000
   49.6770   21.9310  -14.1810 C   0  0  0  0  0  0  0  0  0  0  0  0
   49.2810   20.7560  -13.2890 C   0  0  0  0  0  0  0  0  0  0  0  0
   49.0070   19.5180  -14.1410 C   0  0  0  0  0  0  0  0  0  0  0  0
   50.2540   20.4990  -12.1130 C   0  0  0  0  0  0  0  0  0  0  0  0
   49.7030   20.3780  -10.6840 C   0  0  2  0  0  0  0  0  0  0  0  0
   48.3140   19.8810  -10.6620 N   0  0  0  0  0  0  0  0  0  0  0  0
   47.9800   18.5470  -10.5340 C   0  0  0  0  0  0  0  0  0  0  0  0
   48.8040   17.6390  -10.6190 O   0  0  0  0  0  0  0  0  0  0  0  0
   46.4680   18.3210  -10.3170 C   0  0  2  0  0  0  0  0  0  0  0  0
   45.5990   19.5490  -10.6100 C   0  0  0  0  0  0  0  0  0  0  0  0
   45.0250   19.6710  -12.0410 C   0  0  0  0  0  0  0  0  0  0  0  0
   45.4260   20.9560  -12.7610 C   0  0  0  0  0  0  0  0  0  0  0  0
   45.3530   18.4540  -12.9080 C   0  0  0  0  0  0  0  0  0  0  0  0
   46.2580   17.7970   -8.9420 N   0  0  0  0  0  0  0  0  0  0  0  0
   45.4380   16.3190   -8.5990 P   0  0  1  0  0  5  0  0  0  0  0  0
   45.7350   15.3090   -9.6730 O   0  0  0  0  0  0  0  0  0  0  0  0
   45.7910   16.0260   -7.1550 O   0  0  0  0  0  0  0  0  0  0  0  0
   43.6250   16.7170   -8.5820 C   0  0  0  0  0  0  0  0  0  0  0  0
   42.9670   15.4370   -8.3290 N   0  0  0  0  0  0  0  0  0  0  0  0
   42.0340   15.3630   -7.3410 C   0  0  0  0  0  0  0  0  0  0  0  0
   42.0400   15.9830   -6.2860 O   0  0  0  0  0  0  0  0  0  0  0  0
   41.0900   14.4580   -7.6950 O   0  0  0  0  0  0  0  0  0  0  0  0
   40.7260   14.5370   -9.0720 C   0  0  0  0  0  0  0  0  0  0  0  0
   39.2800   14.1270   -9.2250 C   0  0  0  0  0  0  0  0  0  0  0  0
   38.4080   14.1350   -8.1270 C   0  0  0  0  0  0  0  0  0  0  0  0
   37.0660   13.7810   -8.2850 C   0  0  0  0  0  0  0  0  0  0  0  0
   36.5810   13.4230   -9.5420 C   0  0  0  0  0  0  0  0  0  0  0  0
   37.4350   13.4190  -10.6430 C   0  0  0  0  0  0  0  0  0  0  0  0
   38.7770   13.7730  -10.4860 C   0  0  0  0  0  0  0  0  0  0  0  0
   49.8990   21.6530   -9.8000 C   0  0  0  0  0  0  0  0  0  0  0  0
   50.1630   22.7270  -10.4130 O   0  0  0  0  0  0  0  0  0  0  0  0
   49.7880   21.4480   -8.5500 O   0  0  0  0  0  0  0  0  0  0  0  0
   49.9655   22.7870  -13.5532 H   0  0  0  0  0  0  0  0  0  0  0  0
   50.5265   21.6393  -14.8161 H   0  0  0  0  0  0  0  0  0  0  0  0
   48.8242   22.2129  -14.8161 H   0  0  0  0  0  0  0  0  0  0  0  0
   48.3433   21.0302  -12.7835 H   0  0  0  0  0  0  0  0  0  0  0  0
   48.8162   18.6561  -13.4847 H   0  0  0  0  0  0  0  0  0  0  0  0
   48.1268   19.6973  -14.7759 H   0  0  0  0  0  0  0  0  0  0  0  0
   49.8807   19.3091  -14.7759 H   0  0  0  0  0  0  0  0  0  0  0  0
   50.7797   19.5582  -12.3333 H   0  0  0  0  0  0  0  0  0  0  0  0
   50.8617   21.4152  -12.0774 H   0  0  0  0  0  0  0  0  0  0  0  0
   50.3309   19.6131  -10.2037 H   0  0  0  0  0  0  0  0  0  0  0  0
   47.6670   20.5900  -10.3190 H   0  0  0  0  0  0  0  0  0  0  0  0
   46.1305   17.5796  -11.0562 H   0  0  0  0  0  0  0  0  0  0  0  0
   44.7497   19.5302   -9.9112 H   0  0  0  0  0  0  0  0  0  0  0  0
   46.2714   20.4119  -10.4948 H   0  0  0  0  0  0  0  0  0  0  0  0
   43.9355   19.7129  -11.8957 H   0  0  0  0  0  0  0  0  0  0  0  0
   45.6680   21.7316  -12.0194 H   0  0  0  0  0  0  0  0  0  0  0  0
   46.3068   20.7636  -13.3912 H   0  0  0  0  0  0  0  0  0  0  0  0
   44.5921   21.2987  -13.3912 H   0  0  0  0  0  0  0  0  0  0  0  0
   45.5846   17.5948  -12.2613 H   0  0  0  0  0  0  0  0  0  0  0  0
   44.4879   18.2123  -13.5430 H   0  0  0  0  0  0  0  0  0  0  0  0
   46.2223   18.6798  -13.5430 H   0  0  0  0  0  0  0  0  0  0  0  0
   45.9430   18.5020   -8.2730 H   0  0  0  0  0  0  0  0  0  0  0  0
   43.3933   17.4369   -7.7832 H   0  0  0  0  0  0  0  0  0  0  0  0
   43.2911   17.1779   -9.5233 H   0  0  0  0  0  0  0  0  0  0  0  0
   42.6090   15.0490   -9.2000 H   0  0  0  0  0  0  0  0  0  0  0  0
   40.8559   15.5694   -9.4288 H   0  0  0  0  0  0  0  0  0  0  0  0
   41.3662   13.8662   -9.6638 H   0  0  0  0  0  0  0  0  0  0  0  0
   38.7835   14.4222   -7.1338 H   0  0  0  0  0  0  0  0  0  0  0  0
   36.3910   13.7847   -7.4164 H   0  0  0  0  0  0  0  0  0  0  0  0
   35.5241   13.1437   -9.6647 H   0  0  0  0  0  0  0  0  0  0  0  0
   37.0526   13.1372  -11.6351 H   0  0  0  0  0  0  0  0  0  0  0  0
   39.4459   13.7743  -11.3593 H   0  0  0  0  0  0  0  0  0  0  0  0
  1  2  1  0
  2  3  1  0
  2  4  1  0
  4  5  1  0
  5  6  1  0
  6  7  1  0
  7  8  2  0
  7  9  1  0
  9 10  1  0
 10 11  1  0
 11 12  1  0
 11 13  1  0
  9 14  1  0
 14 15  1  0
 15 16  2  0
 15 17  1  1
 15 18  1  0
 18 19  1  0
 19 20  1  0
 20 21  2  0
 20 22  1  0
 22 23  1  0
 23 24  1  0
 24 25  2  0
 25 26  1  0
 26 27  2  0
 27 28  1  0
 28 29  2  0
  5 30  1  0
 30 31  2  0
 30 32  1  0
 29 24  1  0
  1 33  1  0
  1 34  1  0
  1 35  1  0
  2 36  1  0
  3 37  1  0
  3 38  1  0
  3 39  1  0
  4 40  1  0
  4 41  1  0
  5 42  1  1
  6 43  1  0
  9 44  1  6
 10 45  1  0
 10 46  1  0
 11 47  1  0
 12 48  1  0
 12 49  1  0
 12 50  1  0
 13 51  1  0
 13 52  1  0
 13 53  1  0
 14 54  1  0
 18 55  1  0
 18 56  1  0
 19 57  1  0
 23 58  1  0
 23 59  1  0
 25 60  1  0
 26 61  1  0
 27 62  1  0
 28 63  1  0
 29 64  1  0
M  CHG  2  17  -1  32  -1
M  END
>  <meeko>  (1) 
{"is_sidechain": [false], "free_energy": -8.173, "intermolecular_energy": -14.861, "internal_energy": -1.652}

$$$$
5tmn_ligand
     RDKit          3D

 64 64  0  0  0  0  0  0  0  0999 V2000
   43.3250   15.4300  -12.9240 C   0  0  0  0  0  0  0  0  0  0  0  0
   44.7880   15.7100  -13.2570 C   0  0  0  0  0  0  0  0  0  0  0  0
   44.9490   17.1470  -13.7500 C   0  0  0  0  0  0  0  0  0  0  0  0
   45.7780   15.3240  -12.1320 C   0  0  0  0  0  0  0  0  0  0  0  0
   47.2900   15.4690  -12.3670 C   0  0  2  0  0  0  0  0  0  0  0  0
   47.7540   16.8570  -12.1750 N   0  0  0  0  0  0  0  0  0  0  0  0
   48.6900   17.2270  -11.2290 C   0  0  0  0  0  0  0  0  0  0  0  0
   49.0770   16.4730  -10.3390 O   0  0  0  0  0  0  0  0  0  0  0  0
   49.1590   18.6900  -11.3840 C   0  0  2  0  0  0  0  0  0  0  0  0
   48.9820   19.5440  -10.1240 C   0  0  0  0  0  0  0  0  0  0  0  0
   50.2440   20.2550   -9.5810 C   0  0  0  0  0  0  0  0  0  0  0  0
   50.1990   21.7760   -9.7030 C   0  0  0  0  0  0  0  0  0  0  0  0
   50.5690   19.8480   -8.1420 C   0  0  0  0  0  0  0  0  0  0  0  0
   48.4820   19.2830  -12.5670 N   0  0  0  0  0  0  0  0  0  0  0  0
   49.1860   20.5090  -13.5540 P   0  0  1  0  0  5  0  0  0  0  0  0
   50.5750   20.8230  -13.0660 O   0  0  0  0  0  0  0  0  0  0  0  0
   48.9660   20.0180  -14.9690 O   0  0  0  0  0  0  0  0  0  0  0  0
   48.1000   22.0050  -13.3870 C   0  0  0  0  0  0  0  0  0  0  0  0
   46.9850   21.5630  -12.5530 N   0  0  0  0  0  0  0  0  0  0  0  0
   45.7360   21.5240  -13.0940 C   0  0  0  0  0  0  0  0  0  0  0  0
   45.2820   22.2910  -13.9310 O   0  0  0  0  0  0  0  0  0  0  0  0
   45.0470   20.5020  -12.5310 O   0  0  0  0  0  0  0  0  0  0  0  0
   45.6330   20.0280  -11.3210 C   0  0  0  0  0  0  0  0  0  0  0  0
   44.7110   19.0110  -10.6900 C   0  0  0  0  0  0  0  0  0  0  0  0
   45.1880   18.0960   -9.7410 C   0  0  0  0  0  0  0  0  0  0  0  0
   44.3210   17.1770   -9.1450 C   0  0  0  0  0  0  0  0  0  0  0  0
   42.9690   17.1690   -9.4860 C   0  0  0  0  0  0  0  0  0  0  0  0
   42.4810   18.0780  -10.4210 C   0  0  0  0  0  0  0  0  0  0  0  0
   43.3470   18.9970  -11.0180 C   0  0  0  0  0  0  0  0  0  0  0  0
   47.8040   14.8440  -13.7050 C   0  0  0  0  0  0  0  0  0  0  0  0
   48.1760   13.6360  -13.6550 O   0  0  0  0  0  0  0  0  0  0  0  0
   47.8060   15.6440  -14.6920 O   0  0  0  0  0  0  0  0  0  0  0  0
   43.1958   15.4053  -11.8319 H   0  0  0  0  0  0  0  0  0  0  0  0
   42.6936   16.2236  -13.3501 H   0  0  0  0  0  0  0  0  0  0  0  0
   43.0313   14.4593  -13.3501 H   0  0  0  0  0  0  0  0  0  0  0  0
   45.0704   15.0380  -14.0808 H   0  0  0  0  0  0  0  0  0  0  0  0
   45.0249   17.8245  -12.8867 H   0  0  0  0  0  0  0  0  0  0  0  0
   45.8616   17.2256  -14.3591 H   0  0  0  0  0  0  0  0  0  0  0  0
   44.0765   17.4256  -14.3591 H   0  0  0  0  0  0  0  0  0  0  0  0
   45.5292   15.9470  -11.2602 H   0  0  0  0  0  0  0  0  0  0  0  0
   45.6374   14.2380  -12.0278 H   0  0  0  0  0  0  0  0  0  0  0  0
   47.7572   14.8569  -11.5815 H   0  0  0  0  0  0  0  0  0  0  0  0
   47.6700   17.4030  -13.0310 H   0  0  0  0  0  0  0  0  0  0  0  0
   50.2476   18.6791  -11.5417 H   0  0  0  0  0  0  0  0  0  0  0  0
   48.2344   20.3188  -10.3493 H   0  0  0  0  0  0  0  0  0  0  0  0
   48.6883   18.8360   -9.3350 H   0  0  0  0  0  0  0  0  0  0  0  0
   51.0570   19.9072  -10.2353 H   0  0  0  0  0  0  0  0  0  0  0  0
   50.1857   22.2242   -8.6985 H   0  0  0  0  0  0  0  0  0  0  0  0
   51.0872   22.1265  -10.2492 H   0  0  0  0  0  0  0  0  0  0  0  0
   49.2917   22.0734  -10.2492 H   0  0  0  0  0  0  0  0  0  0  0  0
   50.0384   20.5125   -7.4443 H   0  0  0  0  0  0  0  0  0  0  0  0
   50.2493   18.8090   -7.9737 H   0  0  0  0  0  0  0  0  0  0  0  0
   51.6530   19.9299   -7.9737 H   0  0  0  0  0  0  0  0  0  0  0  0
   47.5020   19.5230  -12.4080 H   0  0  0  0  0  0  0  0  0  0  0  0
   48.6452   22.8278  -12.9014 H   0  0  0  0  0  0  0  0  0  0  0  0
   47.7642   22.3863  -14.3626 H   0  0  0  0  0  0  0  0  0  0  0  0
   47.2150   20.6810  -12.0990 H   0  0  0  0  0  0  0  0  0  0  0  0
   46.6034   19.5590  -11.5408 H   0  0  0  0  0  0  0  0  0  0  0  0
   45.7856   20.8693  -10.6289 H   0  0  0  0  0  0  0  0  0  0  0  0
   46.2525   18.1017   -9.4637 H   0  0  0  0  0  0  0  0  0  0  0  0
   44.7053   16.4588   -8.4058 H   0  0  0  0  0  0  0  0  0  0  0  0
   42.2877   16.4443   -9.0162 H   0  0  0  0  0  0  0  0  0  0  0  0
   41.4142   18.0724  -10.6893 H   0  0  0  0  0  0  0  0  0  0  0  0
   42.9558   19.7166  -11.7523 H   0  0  0  0  0  0  0  0  0  0  0  0
  1  2  1  0
  2  3  1  0
  2  4  1  0
  4  5  1  0
  5  6  1  0
  6  7  1  0
  7  8  2  0
  7  9  1  0
  9 10  1  0
 10 11  1  0
 11 12  1  0
 11 13  1  0
  9 14  1  0
 14 15  1  0
 15 16  2  0
 15 17  1  6
 15 18  1  0
 18 19  1  0
 19 20  1  0
 20 21  2  0
 20 22  1  0
 22 23  1  0
 23 24  1  0
 24 25  2  0
 25 26  1  0
 26 27  2  0
 27 28  1  0
 28 29  2  0
  5 30  1  0
 30 31  2  0
 30 32  1  0
 29 24  1  0
  1 33  1  0
  1 34  1  0
  1 35  1  0
  2 36  1  0
  3 37  1  0
  3 38  1  0
  3 39  1  0
  4 40  1  0
  4 41  1  0
  5 42  1  1
  6 43  1  0
  9 44  1  6
 10 45  1  0
 10 46  1  0
 11 47  1  0
 12 48  1  0
 12 49  1  0
 12 50  1  0
 13 51  1  0
 13 52  1  0
 13 53  1  0
 14 54  1  0
 18 55  1  0
 18 56  1  0
 19 57  1  0
 23 58  1  0
 23 59  1  0
 25 60  1  0
 26 61  1  0
 27 62  1  0
 28 63  1  0
 29 64  1  0
M  CHG  2  17  -1  32  -1
M  END
>  <meeko>  (2) 
{"is_sidechain": [false], "free_energy": -7.859, "intermolecular_energy": -12.952, "internal_energy": -2.991}

$$$$
5tmn_ligand
     RDKit          3D

 64 64  0  0  0  0  0  0  0  0999 V2000
   41.4160   17.8880  -10.4640 C   0  0  0  0  0  0  0  0  0  0  0  0
   41.0620   17.6140   -9.0050 C   0  0  0  0  0  0  0  0  0  0  0  0
   39.8580   18.4570   -8.5880 C   0  0  0  0  0  0  0  0  0  0  0  0
   40.9200   16.1120   -8.6600 C   0  0  0  0  0  0  0  0  0  0  0  0
   42.1700   15.2910   -8.3070 C   0  0  2  0  0  0  0  0  0  0  0  0
   42.7980   14.6920   -9.5010 N   0  0  0  0  0  0  0  0  0  0  0  0
   42.0920   14.0380  -10.4910 C   0  0  0  0  0  0  0  0  0  0  0  0
   40.9080   13.7280  -10.3760 O   0  0  0  0  0  0  0  0  0  0  0  0
   42.9550   13.7020  -11.7270 C   0  0  2  0  0  0  0  0  0  0  0  0
   44.2300   14.5420  -11.8510 C   0  0  0  0  0  0  0  0  0  0  0  0
   44.3640   15.4230  -13.1150 C   0  0  0  0  0  0  0  0  0  0  0  0
   44.1140   16.9080  -12.8630 C   0  0  0  0  0  0  0  0  0  0  0  0
   45.7050   15.2260  -13.8250 C   0  0  0  0  0  0  0  0  0  0  0  0
   42.1010   13.7910  -12.9410 N   0  0  0  0  0  0  0  0  0  0  0  0
   41.6660   12.4280  -13.9020 P   0  0  1  0  0  5  0  0  0  0  0  0
   42.3350   12.5150  -15.2470 O   0  0  0  0  0  0  0  0  0  0  0  0
   41.9210   11.2400  -12.9980 O   0  0  0  0  0  0  0  0  0  0  0  0
   39.8210   12.4950  -14.1040 C   0  0  0  0  0  0  0  0  0  0  0  0
   39.3250   12.9820  -12.8180 N   0  0  0  0  0  0  0  0  0  0  0  0
   38.2550   13.8230  -12.8040 C   0  0  0  0  0  0  0  0  0  0  0  0
   37.9860   14.6720  -13.6420 O   0  0  0  0  0  0  0  0  0  0  0  0
   37.5320   13.5930  -11.6810 O   0  0  0  0  0  0  0  0  0  0  0  0
   36.9880   14.7820  -11.1110 C   0  0  0  0  0  0  0  0  0  0  0  0
   36.9200   14.6220   -9.6100 C   0  0  0  0  0  0  0  0  0  0  0  0
   37.2970   15.6680   -8.7560 C   0  0  0  0  0  0  0  0  0  0  0  0
   37.2040   15.5200   -7.3700 C   0  0  0  0  0  0  0  0  0  0  0  0
   36.7260   14.3280   -6.8250 C   0  0  0  0  0  0  0  0  0  0  0  0
   36.3400   13.2850   -7.6640 C   0  0  0  0  0  0  0  0  0  0  0  0
   36.4320   13.4320   -9.0490 C   0  0  0  0  0  0  0  0  0  0  0  0
   41.9670   14.2580   -7.1510 C   0  0  0  0  0  0  0  0  0  0  0  0
   42.9950   13.6250   -6.7750 O   0  0  0  0  0  0  0  0  0  0  0  0
   40.7690   14.1630   -6.7370 O   0  0  0  0  0  0  0  0  0  0  0  0
   42.2851   18.5607  -10.5103 H   0  0  0  0  0  0  0  0  0  0  0  0
   41.6588   16.9402  -10.9666 H   0  0  0  0  0  0  0  0  0  0  0  0
   40.5593   18.3606  -10.9666 H   0  0  0  0  0  0  0  0  0  0  0  0
   41.9207   17.9311   -8.3951 H   0  0  0  0  0  0  0  0  0  0  0  0
   39.8009   18.4970   -7.4902 H   0  0  0  0  0  0  0  0  0  0  0  0
   39.9682   19.4762   -8.9868 H   0  0  0  0  0  0  0  0  0  0  0  0
   38.9380   18.0048   -8.9868 H   0  0  0  0  0  0  0  0  0  0  0  0
   40.2405   16.0456   -7.7975 H   0  0  0  0  0  0  0  0  0  0  0  0
   40.5768   15.6635   -9.6039 H   0  0  0  0  0  0  0  0  0  0  0  0
   42.8815   16.0222   -7.8958 H   0  0  0  0  0  0  0  0  0  0  0  0
   43.6720   15.1590   -9.7400 H   0  0  0  0  0  0  0  0  0  0  0  0
   43.3292   12.6747  -11.6062 H   0  0  0  0  0  0  0  0  0  0  0  0
   44.2773   15.2064  -10.9756 H   0  0  0  0  0  0  0  0  0  0  0  0
   45.0501   13.8122  -11.9204 H   0  0  0  0  0  0  0  0  0  0  0  0
   43.5612   15.0714  -13.7797 H   0  0  0  0  0  0  0  0  0  0  0  0
   44.0824   17.0958  -11.7796 H   0  0  0  0  0  0  0  0  0  0  0  0
   44.9254   17.4981  -13.3139 H   0  0  0  0  0  0  0  0  0  0  0  0
   43.1541   17.1999  -13.3139 H   0  0  0  0  0  0  0  0  0  0  0  0
   46.5025   15.1088  -13.0765 H   0  0  0  0  0  0  0  0  0  0  0  0
   45.6578   14.3252  -14.4545 H   0  0  0  0  0  0  0  0  0  0  0  0
   45.9188   16.1024  -14.4545 H   0  0  0  0  0  0  0  0  0  0  0  0
   42.3480   14.5600  -13.5660 H   0  0  0  0  0  0  0  0  0  0  0  0
   39.5441   13.1863  -14.9136 H   0  0  0  0  0  0  0  0  0  0  0  0
   39.3955   11.5164  -14.3709 H   0  0  0  0  0  0  0  0  0  0  0  0
   39.1860   12.2010  -12.1780 H   0  0  0  0  0  0  0  0  0  0  0  0
   37.6309   15.6387  -11.3617 H   0  0  0  0  0  0  0  0  0  0  0  0
   35.9789   14.9581  -11.5119 H   0  0  0  0  0  0  0  0  0  0  0  0
   37.6688   16.6122   -9.1805 H   0  0  0  0  0  0  0  0  0  0  0  0
   37.5079   16.3441   -6.7078 H   0  0  0  0  0  0  0  0  0  0  0  0
   36.6540   14.2118   -5.7335 H   0  0  0  0  0  0  0  0  0  0  0  0
   35.9625   12.3452   -7.2348 H   0  0  0  0  0  0  0  0  0  0  0  0
   36.1191   12.6076   -9.7066 H   0  0  0  0  0  0  0  0  0  0  0  0
  1  2  1  0
  2  3  1  0
  2  4  1  0
  4  5  1  0
  5  6  1  0
  6  7  1  0
  7  8  2  0
  7  9  1  0
  9 10  1  0
 10 11  1  0
 11 12  1  0
 11 13  1  0
  9 14  1  0
 14 15  1  0
 15 16  2  0
 15 17  1  1
 15 18  1  0
 18 19  1  0
 19 20  1  0
 20 21  2  0
 20 22  1  0
 22 23  1  0
 23 24  1  0
 24 25  2  0
 25 26  1  0
 26 27  2  0
 27 28  1  0
 28 29  2  0
  5 30  1  0
 30 31  2  0
 30 32  1  0
 29 24  1  0
  1 33  1  0
  1 34  1  0
  1 35  1  0
  2 36  1  0
  3 37  1  0
  3 38  1  0
  3 39  1  0
  4 40  1  0
  4 41  1  0
  5 42  1  1
  6 43  1  0
  9 44  1  1
 10 45  1  0
 10 46  1  0
 11 47  1  0
 12 48  1  0
 12 49  1  0
 12 50  1  0
 13 51  1  0
 13 52  1  0
 13 53  1  0
 14 54  1  0
 18 55  1  0
 18 56  1  0
 19 57  1  0
 23 58  1  0
 23 59  1  0
 25 60  1  0
 26 61  1  0
 27 62  1  0
 28 63  1  0
 29 64  1  0
M  CHG  2  17  -1  32  -1
M  END
>  <meeko>  (3) 
{"is_sidechain": [false], "free_energy": -7.826, "intermolecular_energy": -13.488, "internal_energy": -2.395}

$$$$
5tmn_ligand
     RDKit          3D

 64 64  0  0  0  0  0  0  0  0999 V2000
   44.5970   16.7090  -13.3880 C   0  0  0  0  0  0  0  0  0  0  0  0
   43.6140   15.5540  -13.5660 C   0  0  0  0  0  0  0  0  0  0  0  0
   43.9710   14.7460  -14.8130 C   0  0  0  0  0  0  0  0  0  0  0  0
   43.4200   14.6880  -12.2980 C   0  0  0  0  0  0  0  0  0  0  0  0
   42.1330   13.8650  -12.1290 C   0  0  2  0  0  0  0  0  0  0  0  0
   41.4740   14.1210  -10.8330 N   0  0  0  0  0  0  0  0  0  0  0  0
   40.1080   14.2550  -10.6820 C   0  0  0  0  0  0  0  0  0  0  0  0
   39.3370   14.3670  -11.6320 O   0  0  0  0  0  0  0  0  0  0  0  0
   39.6650   14.2950   -9.2030 C   0  0  2  0  0  0  0  0  0  0  0  0
   38.2160   14.7460   -8.9910 C   0  0  0  0  0  0  0  0  0  0  0  0
   37.2720   13.7460   -8.2840 C   0  0  0  0  0  0  0  0  0  0  0  0
   36.7940   14.2130   -6.9110 C   0  0  0  0  0  0  0  0  0  0  0  0
   36.0770   13.3550   -9.1550 C   0  0  0  0  0  0  0  0  0  0  0  0
   40.6320   15.1280   -8.4390 N   0  0  0  0  0  0  0  0  0  0  0  0
   41.3200   14.6500   -6.9320 P   0  0  1  0  0  5  0  0  0  0  0  0
   41.7560   15.8660   -6.1610 O   0  0  0  0  0  0  0  0  0  0  0  0
   40.2990   13.6980   -6.3440 O   0  0  0  0  0  0  0  0  0  0  0  0
   42.7910   13.5920   -7.3390 C   0  0  0  0  0  0  0  0  0  0  0  0
   43.8410   14.5410   -7.7010 N   0  0  0  0  0  0  0  0  0  0  0  0
   44.5460   14.3320   -8.8460 C   0  0  0  0  0  0  0  0  0  0  0  0
   44.8550   13.2500   -9.3240 O   0  0  0  0  0  0  0  0  0  0  0  0
   44.8900   15.5320   -9.3740 O   0  0  0  0  0  0  0  0  0  0  0  0
   44.0590   16.6010   -8.9260 C   0  0  0  0  0  0  0  0  0  0  0  0
   44.3050   17.8150   -9.7910 C   0  0  0  0  0  0  0  0  0  0  0  0
   45.6070   18.2760  -10.0330 C   0  0  0  0  0  0  0  0  0  0  0  0
   45.8250   19.3830  -10.8570 C   0  0  0  0  0  0  0  0  0  0  0  0
   44.7460   20.0340  -11.4520 C   0  0  0  0  0  0  0  0  0  0  0  0
   43.4480   19.5810  -11.2270 C   0  0  0  0  0  0  0  0  0  0  0  0
   43.2290   18.4740  -10.4040 C   0  0  0  0  0  0  0  0  0  0  0  0
   42.2900   12.3400  -12.4340 C   0  0  0  0  0  0  0  0  0  0  0  0
   43.3820   11.8060  -12.0850 O   0  0  0  0  0  0  0  0  0  0  0  0
   41.2920   11.8170  -13.0230 O   0  0  0  0  0  0  0  0  0  0  0  0
   44.7547   16.8943  -12.3152 H   0  0  0  0  0  0  0  0  0  0  0  0
   45.5562   16.4502  -13.8603 H   0  0  0  0  0  0  0  0  0  0  0  0
   44.1882   17.6145  -13.8603 H   0  0  0  0  0  0  0  0  0  0  0  0
   42.6182   15.9936  -13.7247 H   0  0  0  0  0  0  0  0  0  0  0  0
   44.3987   13.7781  -14.5127 H   0  0  0  0  0  0  0  0  0  0  0  0
   43.0641   14.5762  -15.4119 H   0  0  0  0  0  0  0  0  0  0  0  0
   44.7072   15.3022  -15.4119 H   0  0  0  0  0  0  0  0  0  0  0  0
   44.2596   13.9781  -12.2647 H   0  0  0  0  0  0  0  0  0  0  0  0
   43.3589   15.4294  -11.4877 H   0  0  0  0  0  0  0  0  0  0  0  0
   41.4577   14.2316  -12.9161 H   0  0  0  0  0  0  0  0  0  0  0  0
   42.0270   13.7650  -10.0550 H   0  0  0  0  0  0  0  0  0  0  0  0
   39.6759   13.2631   -8.8222 H   0  0  0  0  0  0  0  0  0  0  0  0
   38.2384   15.6659   -8.3883 H   0  0  0  0  0  0  0  0  0  0  0  0
   37.8012   14.8683  -10.0024 H   0  0  0  0  0  0  0  0  0  0  0  0
   37.8923   12.8524   -8.1205 H   0  0  0  0  0  0  0  0  0  0  0  0
   37.3462   13.6735   -6.1274 H   0  0  0  0  0  0  0  0  0  0  0  0
   36.9734   15.2934   -6.8082 H   0  0  0  0  0  0  0  0  0  0  0  0
   35.7181   14.0085   -6.8082 H   0  0  0  0  0  0  0  0  0  0  0  0
   35.2293   13.0776   -8.5113 H   0  0  0  0  0  0  0  0  0  0  0  0
   35.7919   14.2067   -9.7901 H   0  0  0  0  0  0  0  0  0  0  0  0
   36.3505   12.4995   -9.7901 H   0  0  0  0  0  0  0  0  0  0  0  0
   40.3710   16.1130   -8.3760 H   0  0  0  0  0  0  0  0  0  0  0  0
   43.0924   12.9942   -6.4662 H   0  0  0  0  0  0  0  0  0  0  0  0
   42.5788   12.8773   -8.1478 H   0  0  0  0  0  0  0  0  0  0  0  0
   43.4820   15.4940   -7.6600 H   0  0  0  0  0  0  0  0  0  0  0  0
   43.0028   16.3029   -9.0015 H   0  0  0  0  0  0  0  0  0  0  0  0
   44.2944   16.8390   -7.8782 H   0  0  0  0  0  0  0  0  0  0  0  0
   46.4629   17.7624   -9.5708 H   0  0  0  0  0  0  0  0  0  0  0  0
   46.8495   19.7411  -11.0363 H   0  0  0  0  0  0  0  0  0  0  0  0
   44.9193   20.9060  -12.0997 H   0  0  0  0  0  0  0  0  0  0  0  0
   42.5964   20.0946  -11.6970 H   0  0  0  0  0  0  0  0  0  0  0  0
   42.2029   18.1155  -10.2349 H   0  0  0  0  0  0  0  0  0  0  0  0
  1  2  1  0
  2  3  1  0
  2  4  1  0
  4  5  1  0
  5  6  1  0
  6  7  1  0
  7  8  2  0
  7  9  1  0
  9 10  1  0
 10 11  1  0
 11 12  1  0
 11 13  1  0
  9 14  1  0
 14 15  1  0
 15 16  2  0
 15 17  1  1
 15 18  1  0
 18 19  1  0
 19 20  1  0
 20 21  2  0
 20 22  1  0
 22 23  1  0
 23 24  1  0
 24 25  2  0
 25 26  1  0
 26 27  2  0
 27 28  1  0
 28 29  2  0
  5 30  1  0
 30 31  2  0
 30 32  1  0
 29 24  1  0
  1 33  1  0
  1 34  1  0
  1 35  1  0
  2 36  1  0
  3 37  1  0
  3 38  1  0
  3 39  1  0
  4 40  1  0
  4 41  1  0
  5 42  1  6
  6 43  1  0
  9 44  1  1
 10 45  1  0
 10 46  1  0
 11 47  1  0
 12 48  1  0
 12 49  1  0
 12 50  1  0
 13 51  1  0
 13 52  1  0
 13 53  1  0
 14 54  1  0
 18 55  1  0
 18 56  1  0
 19 57  1  0
 23 58  1  0
 23 59  1  0
 25 60  1  0
 26 61  1  0
 27 62  1  0
 28 63  1  0
 29 64  1  0
M  CHG  2  17  -1  32  -1
M  END
>  <meeko>  (4) 
{"is_sidechain": [false], "free_energy": -7.796, "intermolecular_energy": -13.078, "internal_energy": -2.75}

$$$$
5tmn_ligand
     RDKit          3D

 64 64  0  0  0  0  0  0  0  0999 V2000
   42.0820   12.9090   -6.4180 C   0  0  0  0  0  0  0  0  0  0  0  0
   40.9980   13.9770   -6.5310 C   0  0  0  0  0  0  0  0  0  0  0  0
   40.1980   14.0560   -5.2320 C   0  0  0  0  0  0  0  0  0  0  0  0
   41.5110   15.3490   -7.0300 C   0  0  0  0  0  0  0  0  0  0  0  0
   41.2840   15.7600   -8.4930 C   0  0  2  0  0  0  0  0  0  0  0  0
   42.1750   15.0370   -9.4210 N   0  0  0  0  0  0  0  0  0  0  0  0
   41.7300   14.1140  -10.3470 C   0  0  0  0  0  0  0  0  0  0  0  0
   40.5830   13.6720  -10.3550 O   0  0  0  0  0  0  0  0  0  0  0  0
   42.8310   13.6720  -11.3350 C   0  0  2  0  0  0  0  0  0  0  0  0
   44.1580   14.4210  -11.1760 C   0  0  0  0  0  0  0  0  0  0  0  0
   44.4960   15.4770  -12.2550 C   0  0  0  0  0  0  0  0  0  0  0  0
   43.3700   16.4740  -12.5180 C   0  0  0  0  0  0  0  0  0  0  0  0
   45.8010   16.2180  -11.9590 C   0  0  0  0  0  0  0  0  0  0  0  0
   42.2940   13.7640  -12.7190 N   0  0  0  0  0  0  0  0  0  0  0  0
   41.9180   12.3900  -13.6890 P   0  0  1  0  0  5  0  0  0  0  0  0
   42.7250   12.4240  -14.9590 O   0  0  0  0  0  0  0  0  0  0  0  0
   42.0430   11.2180  -12.7370 O   0  0  0  0  0  0  0  0  0  0  0  0
   40.1070   12.5040  -14.0820 C   0  0  0  0  0  0  0  0  0  0  0  0
   39.4960   13.0340  -12.8650 N   0  0  0  0  0  0  0  0  0  0  0  0
   38.3300   13.7280  -12.9660 C   0  0  0  0  0  0  0  0  0  0  0  0
   37.9950   14.4580  -13.8880 O   0  0  0  0  0  0  0  0  0  0  0  0
   37.5910   13.5070  -11.8520 O   0  0  0  0  0  0  0  0  0  0  0  0
   37.0790   14.7050  -11.2710 C   0  0  0  0  0  0  0  0  0  0  0  0
   37.0580   14.5550   -9.7680 C   0  0  0  0  0  0  0  0  0  0  0  0
   37.6330   15.5270   -8.9370 C   0  0  0  0  0  0  0  0  0  0  0  0
   37.5830   15.3920   -7.5480 C   0  0  0  0  0  0  0  0  0  0  0  0
   36.9520   14.2880   -6.9760 C   0  0  0  0  0  0  0  0  0  0  0  0
   36.3690   13.3200   -7.7900 C   0  0  0  0  0  0  0  0  0  0  0  0
   36.4180   13.4540   -9.1790 C   0  0  0  0  0  0  0  0  0  0  0  0
   41.2810   17.3040   -8.7440 C   0  0  0  0  0  0  0  0  0  0  0  0
   40.2840   17.9440   -8.3000 O   0  0  0  0  0  0  0  0  0  0  0  0
   42.2870   17.7320   -9.3920 O   0  0  0  0  0  0  0  0  0  0  0  0
   42.2878   12.7063   -5.3566 H   0  0  0  0  0  0  0  0  0  0  0  0
   41.7395   11.9856   -6.9080 H   0  0  0  0  0  0  0  0  0  0  0  0
   43.0002   13.2652   -6.9080 H   0  0  0  0  0  0  0  0  0  0  0  0
   40.3106   13.6607   -7.3294 H   0  0  0  0  0  0  0  0  0  0  0  0
   40.8836   13.9883   -4.3745 H   0  0  0  0  0  0  0  0  0  0  0  0
   39.6554   15.0121   -5.1931 H   0  0  0  0  0  0  0  0  0  0  0  0
   39.4789   13.2245   -5.1931 H   0  0  0  0  0  0  0  0  0  0  0  0
   41.0303   16.1159   -6.4049 H   0  0  0  0  0  0  0  0  0  0  0  0
   42.6046   15.2558   -6.9567 H   0  0  0  0  0  0  0  0  0  0  0  0
   40.2542   15.4445   -8.7167 H   0  0  0  0  0  0  0  0  0  0  0  0
   43.0240   15.5660   -9.6150 H   0  0  0  0  0  0  0  0  0  0  0  0
   43.0903   12.6287  -11.1022 H   0  0  0  0  0  0  0  0  0  0  0  0
   44.1361   14.9342  -10.2033 H   0  0  0  0  0  0  0  0  0  0  0  0
   44.9371   13.6505  -11.2729 H   0  0  0  0  0  0  0  0  0  0  0  0
   44.6280   14.8929  -13.1777 H   0  0  0  0  0  0  0  0  0  0  0  0
   42.9658   16.8319  -11.5596 H   0  0  0  0  0  0  0  0  0  0  0  0
   43.7619   17.3267  -13.0920 H   0  0  0  0  0  0  0  0  0  0  0  0
   42.5711   15.9818  -13.0920 H   0  0  0  0  0  0  0  0  0  0  0  0
   45.9393   16.2965  -10.8706 H   0  0  0  0  0  0  0  0  0  0  0  0
   46.6446   15.6642  -12.3968 H   0  0  0  0  0  0  0  0  0  0  0  0
   45.7576   17.2262  -12.3968 H   0  0  0  0  0  0  0  0  0  0  0  0
   42.7720   14.4510  -13.3050 H   0  0  0  0  0  0  0  0  0  0  0  0
   39.9361   13.1839  -14.9297 H   0  0  0  0  0  0  0  0  0  0  0  0
   39.6820   11.5317  -14.3717 H   0  0  0  0  0  0  0  0  0  0  0  0
   39.4280   12.3020  -12.1600 H   0  0  0  0  0  0  0  0  0  0  0  0
   37.7227   15.5530  -11.5477 H   0  0  0  0  0  0  0  0  0  0  0  0
   36.0591   14.8894  -11.6395 H   0  0  0  0  0  0  0  0  0  0  0  0
   38.1274   16.4028   -9.3827 H   0  0  0  0  0  0  0  0  0  0  0  0
   38.0418   16.1572   -6.9046 H   0  0  0  0  0  0  0  0  0  0  0  0
   36.9147   14.1816   -5.8818 H   0  0  0  0  0  0  0  0  0  0  0  0
   35.8699   12.4498   -7.3387 H   0  0  0  0  0  0  0  0  0  0  0  0
   35.9507   12.6896   -9.8172 H   0  0  0  0  0  0  0  0  0  0  0  0
  1  2  1  0
  2  3  1  0
  2  4  1  0
  4  5  1  0
  5  6  1  0
  6  7  1  0
  7  8  2  0
  7  9  1  0
  9 10  1  0
 10 11  1  0
 11 12  1  0
 11 13  1  0
  9 14  1  0
 14 15  1  0
 15 16  2  0
 15 17  1  1
 15 18  1  0
 18 19  1  0
 19 20  1  0
 20 21  2  0
 20 22  1  0
 22 23  1  0
 23 24  1  0
 24 25  2  0
 25 26  1  0
 26 27  2  0
 27 28  1  0
 28 29  2  0
  5 30  1  0
 30 31  2  0
 30 32  1  0
 29 24  1  0
  1 33  1  0
  1 34  1  0
  1 35  1  0
  2 36  1  0
  3 37  1  0
  3 38  1  0
  3 39  1  0
  4 40  1  0
  4 41  1  0
  5 42  1  6
  6 43  1  0
  9 44  1  1
 10 45  1  0
 10 46  1  0
 11 47  1  0
 12 48  1  0
 12 49  1  0
 12 50  1  0
 13 51  1  0
 13 52  1  0
 13 53  1  0
 14 54  1  0
 18 55  1  0
 18 56  1  0
 19 57  1  0
 23 58  1  0
 23 59  1  0
 25 60  1  0
 26 61  1  0
 27 62  1  0
 28 63  1  0
 29 64  1  0
M  CHG  2  17  -1  32  -1
M  END
>  <meeko>  (5) 
{"is_sidechain": [false], "free_energy": -7.762, "intermolecular_energy": -13.444, "internal_energy": -2.323}

$$$$
5tmn_ligand
     RDKit          3D

 64 64  0  0  0  0  0  0  0  0999 V2000
   36.5860   13.2540   -9.2020 C   0  0  0  0  0  0  0  0  0  0  0  0
   37.8550   13.5580   -9.9950 C   0  0  0  0  0  0  0  0  0  0  0  0
   37.4970   14.1820  -11.3430 C   0  0  0  0  0  0  0  0  0  0  0  0
   38.9190   14.3550   -9.2030 C   0  0  0  0  0  0  0  0  0  0  0  0
   39.4120   15.7080   -9.7420 C   0  0  2  0  0  0  0  0  0  0  0  0
   40.8610   15.7020  -10.0220 N   0  0  0  0  0  0  0  0  0  0  0  0
   41.3980   15.4670  -11.2720 C   0  0  0  0  0  0  0  0  0  0  0  0
   40.7340   15.0540  -12.2200 O   0  0  0  0  0  0  0  0  0  0  0  0
   42.9180   15.7360  -11.3360 C   0  0  2  0  0  0  0  0  0  0  0  0
   43.3990   16.8540  -10.4050 C   0  0  0  0  0  0  0  0  0  0  0  0
   43.4880   18.2740  -11.0100 C   0  0  0  0  0  0  0  0  0  0  0  0
   42.2610   19.1400  -10.7390 C   0  0  0  0  0  0  0  0  0  0  0  0
   44.7600   19.0110  -10.5860 C   0  0  0  0  0  0  0  0  0  0  0  0
   43.2980   15.9790  -12.7530 N   0  0  0  0  0  0  0  0  0  0  0  0
   44.7070   15.3130  -13.4890 P   0  0  1  0  0  5  0  0  0  0  0  0
   45.0690   14.0150  -12.8210 O   0  0  0  0  0  0  0  0  0  0  0  0
   44.4030   15.3490  -14.9730 O   0  0  0  0  0  0  0  0  0  0  0  0
   46.0650   16.5560  -13.2440 C   0  0  0  0  0  0  0  0  0  0  0  0
   46.1980   17.2210  -14.5380 N   0  0  0  0  0  0  0  0  0  0  0  0
   46.4330   18.5600  -14.5660 C   0  0  0  0  0  0  0  0  0  0  0  0
   46.0090   19.3900  -13.7740 O   0  0  0  0  0  0  0  0  0  0  0  0
   47.2010   18.8490  -15.6450 O   0  0  0  0  0  0  0  0  0  0  0  0
   48.5760   18.5220  -15.4580 C   0  0  0  0  0  0  0  0  0  0  0  0
   49.3040   19.7360  -14.9300 C   0  0  0  0  0  0  0  0  0  0  0  0
   49.7410   20.7490  -15.7950 C   0  0  0  0  0  0  0  0  0  0  0  0
   50.3900   21.8800  -15.2940 C   0  0  0  0  0  0  0  0  0  0  0  0
   50.6010   22.0130  -13.9220 C   0  0  0  0  0  0  0  0  0  0  0  0
   50.1640   21.0180  -13.0500 C   0  0  0  0  0  0  0  0  0  0  0  0
   49.5160   19.8870  -13.5510 C   0  0  0  0  0  0  0  0  0  0  0  0
   38.9670   16.9460   -8.8970 C   0  0  0  0  0  0  0  0  0  0  0  0
   39.8490   17.4670   -8.1550 O   0  0  0  0  0  0  0  0  0  0  0  0
   37.7470   17.2730   -9.0460 O   0  0  0  0  0  0  0  0  0  0  0  0
   36.8051   13.3065   -8.1253 H   0  0  0  0  0  0  0  0  0  0  0  0
   35.8102   13.9917   -9.4547 H   0  0  0  0  0  0  0  0  0  0  0  0
   36.2286   12.2448   -9.4547 H   0  0  0  0  0  0  0  0  0  0  0  0
   38.3554   12.5985  -10.1923 H   0  0  0  0  0  0  0  0  0  0  0  0
   36.9558   15.1254  -11.1782 H   0  0  0  0  0  0  0  0  0  0  0  0
   38.4178   14.3819  -11.9106 H   0  0  0  0  0  0  0  0  0  0  0  0
   36.8597   13.4880  -11.9106 H   0  0  0  0  0  0  0  0  0  0  0  0
   38.4989   14.5431   -8.2040 H   0  0  0  0  0  0  0  0  0  0  0  0
   39.8124   13.7156   -9.2577 H   0  0  0  0  0  0  0  0  0  0  0  0
   38.8950   15.8346  -10.7047 H   0  0  0  0  0  0  0  0  0  0  0  0
   41.3720   16.2880   -9.3630 H   0  0  0  0  0  0  0  0  0  0  0  0
   43.4339   14.8411  -10.9577 H   0  0  0  0  0  0  0  0  0  0  0  0
   42.7057   16.8984   -9.5521 H   0  0  0  0  0  0  0  0  0  0  0  0
   44.4336   16.5866  -10.1441 H   0  0  0  0  0  0  0  0  0  0  0  0
   43.5268   18.1061  -12.0964 H   0  0  0  0  0  0  0  0  0  0  0  0
   42.1167   19.2419   -9.6533 H   0  0  0  0  0  0  0  0  0  0  0  0
   42.4089   20.1350  -11.1842 H   0  0  0  0  0  0  0  0  0  0  0  0
   41.3731   18.6674  -11.1842 H   0  0  0  0  0  0  0  0  0  0  0  0
   44.8162   19.0435   -9.4879 H   0  0  0  0  0  0  0  0  0  0  0  0
   45.6394   18.4825  -10.9826 H   0  0  0  0  0  0  0  0  0  0  0  0
   44.7389   20.0368  -10.9826 H   0  0  0  0  0  0  0  0  0  0  0  0
   43.2140   16.9550  -13.0430 H   0  0  0  0  0  0  0  0  0  0  0  0
   45.7916   17.2800  -12.4622 H   0  0  0  0  0  0  0  0  0  0  0  0
   47.0051   16.0862  -12.9193 H   0  0  0  0  0  0  0  0  0  0  0  0
   46.8650   16.7190  -15.1230 H   0  0  0  0  0  0  0  0  0  0  0  0
   48.6637   17.6967  -14.7361 H   0  0  0  0  0  0  0  0  0  0  0  0
   49.0176   18.2122  -16.4167 H   0  0  0  0  0  0  0  0  0  0  0  0
   49.5714   20.6524  -16.8775 H   0  0  0  0  0  0  0  0  0  0  0  0
   50.7347   22.6660  -15.9820 H   0  0  0  0  0  0  0  0  0  0  0  0
   51.1125   22.9036  -13.5281 H   0  0  0  0  0  0  0  0  0  0  0  0
   50.3293   21.1233  -11.9676 H   0  0  0  0  0  0  0  0  0  0  0  0
   49.1683   19.1068  -12.8579 H   0  0  0  0  0  0  0  0  0  0  0  0
  1  2  1  0
  2  3  1  0
  2  4  1  0
  4  5  1  0
  5  6  1  0
  6  7  1  0
  7  8  2  0
  7  9  1  0
  9 10  1  0
 10 11  1  0
 11 12  1  0
 11 13  1  0
  9 14  1  0
 14 15  1  0
 15 16  2  0
 15 17  1  6
 15 18  1  0
 18 19  1  0
 19 20  1  0
 20 21  2  0
 20 22  1  0
 22 23  1  0
 23 24  1  0
 24 25  2  0
 25 26  1  0
 26 27  2  0
 27 28  1  0
 28 29  2  0
  5 30  1  0
 30 31  2  0
 30 32  1  0
 29 24  1  0
  1 33  1  0
  1 34  1  0
  1 35  1  0
  2 36  1  0
  3 37  1  0
  3 38  1  0
  3 39  1  0
  4 40  1  0
  4 41  1  0
  5 42  1  6
  6 43  1  0
  9 44  1  1
 10 45  1  0
 10 46  1  0
 11 47  1  0
 12 48  1  0
 12 49  1  0
 12 50  1  0
 13 51  1  0
 13 52  1  0
 13 53  1  0
 14 54  1  0
 18 55  1  0
 18 56  1  0
 19 57  1  0
 23 58  1  0
 23 59  1  0
 25 60  1  0
 26 61  1  0
 27 62  1  0
 28 63  1  0
 29 64  1  0
M  CHG  2  17  -1  32  -1
M  END
>  <meeko>  (6) 
{"is_sidechain": [false], "free_energy": -7.726, "intermolecular_energy": -14.117, "internal_energy": -1.584}

$$$$
5tmn_ligand
     RDKit          3D

 64 64  0  0  0  0  0  0  0  0999 V2000
   42.1740   13.7770  -10.8490 C   0  0  0  0  0  0  0  0  0  0  0  0
   41.7940   14.4640  -12.1590 C   0  0  0  0  0  0  0  0  0  0  0  0
   40.4490   15.1730  -12.0110 C   0  0  0  0  0  0  0  0  0  0  0  0
   42.9090   15.3620  -12.7480 C   0  0  0  0  0  0  0  0  0  0  0  0
   44.1980   14.7190  -13.2850 C   0  0  2  0  0  0  0  0  0  0  0  0
   45.3460   15.6440  -13.2310 N   0  0  0  0  0  0  0  0  0  0  0  0
   46.2890   15.6370  -12.2220 C   0  0  0  0  0  0  0  0  0  0  0  0
   46.1540   14.9930  -11.1840 O   0  0  0  0  0  0  0  0  0  0  0  0
   47.4990   16.5500  -12.5190 C   0  0  2  0  0  0  0  0  0  0  0  0
   48.4700   16.7100  -11.3450 C   0  0  0  0  0  0  0  0  0  0  0  0
   48.2000   17.8820  -10.3720 C   0  0  0  0  0  0  0  0  0  0  0  0
   47.8900   17.4410   -8.9440 C   0  0  0  0  0  0  0  0  0  0  0  0
   49.3290   18.9140  -10.3740 C   0  0  0  0  0  0  0  0  0  0  0  0
   46.9960   17.8580  -13.0170 N   0  0  0  0  0  0  0  0  0  0  0  0
   47.7520   18.7510  -14.2830 P   0  0  1  0  0  5  0  0  0  0  0  0
   49.0860   18.1390  -14.6140 O   0  0  0  0  0  0  0  0  0  0  0  0
   46.6800   18.8660  -15.3470 O   0  0  0  0  0  0  0  0  0  0  0  0
   47.9840   20.4770  -13.6410 C   0  0  0  0  0  0  0  0  0  0  0  0
   46.9360   20.6440  -12.6370 N   0  0  0  0  0  0  0  0  0  0  0  0
   45.7570   21.2120  -13.0090 C   0  0  0  0  0  0  0  0  0  0  0  0
   45.6040   22.0940  -13.8430 O   0  0  0  0  0  0  0  0  0  0  0  0
   44.7560   20.6620  -12.2790 O   0  0  0  0  0  0  0  0  0  0  0  0
   45.2250   19.9020  -11.1670 C   0  0  0  0  0  0  0  0  0  0  0  0
   44.0950   19.0460  -10.6420 C   0  0  0  0  0  0  0  0  0  0  0  0
   42.7580   19.3770  -10.9040 C   0  0  0  0  0  0  0  0  0  0  0  0
   41.7230   18.5640  -10.4370 C   0  0  0  0  0  0  0  0  0  0  0  0
   42.0140   17.4100   -9.7110 C   0  0  0  0  0  0  0  0  0  0  0  0
   43.3380   17.0660   -9.4520 C   0  0  0  0  0  0  0  0  0  0  0  0
   44.3740   17.8770   -9.9180 C   0  0  0  0  0  0  0  0  0  0  0  0
   44.0480   14.0270  -14.6790 C   0  0  0  0  0  0  0  0  0  0  0  0
   44.2740   14.7490  -15.6930 O   0  0  0  0  0  0  0  0  0  0  0  0
   43.6920   12.8080  -14.6240 O   0  0  0  0  0  0  0  0  0  0  0  0
   41.8347   14.3905  -10.0014 H   0  0  0  0  0  0  0  0  0  0  0  0
   41.6946   12.7881  -10.8011 H   0  0  0  0  0  0  0  0  0  0  0  0
   43.2664   13.6576  -10.8011 H   0  0  0  0  0  0  0  0  0  0  0  0
   41.6767   13.6774  -12.9189 H   0  0  0  0  0  0  0  0  0  0  0  0
   40.2151   15.2963  -10.9433 H   0  0  0  0  0  0  0  0  0  0  0  0
   40.5005   16.1611  -12.4916 H   0  0  0  0  0  0  0  0  0  0  0  0
   39.6629   14.5721  -12.4916 H   0  0  0  0  0  0  0  0  0  0  0  0
   42.4606   15.9227  -13.5814 H   0  0  0  0  0  0  0  0  0  0  0  0
   43.2542   15.9449  -11.8814 H   0  0  0  0  0  0  0  0  0  0  0  0
   44.4123   13.8925  -12.5915 H   0  0  0  0  0  0  0  0  0  0  0  0
   45.6170   15.9610  -14.1620 H   0  0  0  0  0  0  0  0  0  0  0  0
   48.1059   16.0611  -13.2953 H   0  0  0  0  0  0  0  0  0  0  0  0
   48.4417   15.7787  -10.7603 H   0  0  0  0  0  0  0  0  0  0  0  0
   49.4434   16.9358  -11.8049 H   0  0  0  0  0  0  0  0  0  0  0  0
   47.2896   18.3591  -10.7637 H   0  0  0  0  0  0  0  0  0  0  0  0
   48.3735   18.1288   -8.2347 H   0  0  0  0  0  0  0  0  0  0  0  0
   46.8018   17.4547   -8.7841 H   0  0  0  0  0  0  0  0  0  0  0  0
   48.2713   16.4217   -8.7841 H   0  0  0  0  0  0  0  0  0  0  0  0
   49.6006   19.1623   -9.3374 H   0  0  0  0  0  0  0  0  0  0  0  0
   50.2051   18.4980  -10.8930 H   0  0  0  0  0  0  0  0  0  0  0  0
   48.9932   19.8239  -10.8930 H   0  0  0  0  0  0  0  0  0  0  0  0
   46.7330   18.5100  -12.2760 H   0  0  0  0  0  0  0  0  0  0  0  0
   48.9789   20.5909  -13.1857 H   0  0  0  0  0  0  0  0  0  0  0  0
   47.9184   21.2302  -14.4400 H   0  0  0  0  0  0  0  0  0  0  0  0
   46.7810   19.7660  -12.1440 H   0  0  0  0  0  0  0  0  0  0  0  0
   46.0578   19.2579  -11.4858 H   0  0  0  0  0  0  0  0  0  0  0  0
   45.5751   20.5806  -10.3752 H   0  0  0  0  0  0  0  0  0  0  0  0
   42.5227   20.2833  -11.4813 H   0  0  0  0  0  0  0  0  0  0  0  0
   40.6767   18.8345  -10.6423 H   0  0  0  0  0  0  0  0  0  0  0  0
   41.1976   16.7713   -9.3428 H   0  0  0  0  0  0  0  0  0  0  0  0
   43.5676   16.1549   -8.8800 H   0  0  0  0  0  0  0  0  0  0  0  0
   45.4184   17.5972   -9.7159 H   0  0  0  0  0  0  0  0  0  0  0  0
  1  2  1  0
  2  3  1  0
  2  4  1  0
  4  5  1  0
  5  6  1  0
  6  7  1  0
  7  8  2  0
  7  9  1  0
  9 10  1  0
 10 11  1  0
 11 12  1  0
 11 13  1  0
  9 14  1  0
 14 15  1  0
 15 16  2  0
 15 17  1  6
 15 18  1  0
 18 19  1  0
 19 20  1  0
 20 21  2  0
 20 22  1  0
 22 23  1  0
 23 24  1  0
 24 25  2  0
 25 26  1  0
 26 27  2  0
 27 28  1  0
 28 29  2  0
  5 30  1  0
 30 31  2  0
 30 32  1  0
 29 24  1  0
  1 33  1  0
  1 34  1  0
  1 35  1  0
  2 36  1  0
  3 37  1  0
  3 38  1  0
  3 39  1  0
  4 40  1  0
  4 41  1  0
  5 42  1  1
  6 43  1  0
  9 44  1  6
 10 45  1  0
 10 46  1  0
 11 47  1  0
 12 48  1  0
 12 49  1  0
 12 50  1  0
 13 51  1  0
 13 52  1  0
 13 53  1  0
 14 54  1  0
 18 55  1  0
 18 56  1  0
 19 57  1  0
 23 58  1  0
 23 59  1  0
 25 60  1  0
 26 61  1  0
 27 62  1  0
 28 63  1  0
 29 64  1  0
M  CHG  2  17  -1  32  -1
M  END
>  <meeko>  (7) 
{"is_sidechain": [false], "free_energy": -7.68, "intermolecular_energy": -12.327, "internal_energy": -3.291}

$$$$
5tmn_ligand
     RDKit          3D

 64 64  0  0  0  0  0  0  0  0999 V2000
   48.7450   16.4900  -14.7600 C   0  0  0  0  0  0  0  0  0  0  0  0
   48.2530   17.9350  -14.7690 C   0  0  0  0  0  0  0  0  0  0  0  0
   48.9450   18.7200  -15.8830 C   0  0  0  0  0  0  0  0  0  0  0  0
   46.7120   18.0780  -14.7740 C   0  0  0  0  0  0  0  0  0  0  0  0
   45.9490   18.1250  -13.4400 C   0  0  2  0  0  0  0  0  0  0  0  0
   44.7070   17.3290  -13.4800 N   0  0  0  0  0  0  0  0  0  0  0  0
   44.5170   16.1700  -12.7530 C   0  0  0  0  0  0  0  0  0  0  0  0
   45.4260   15.5950  -12.1590 O   0  0  0  0  0  0  0  0  0  0  0  0
   43.0600   15.6580  -12.8030 C   0  0  2  0  0  0  0  0  0  0  0  0
   42.1790   16.1530  -11.6520 C   0  0  0  0  0  0  0  0  0  0  0  0
   42.7610   17.2770  -10.7630 C   0  0  0  0  0  0  0  0  0  0  0  0
   41.9490   18.5700  -10.7900 C   0  0  0  0  0  0  0  0  0  0  0  0
   42.9840   16.8230   -9.3190 C   0  0  0  0  0  0  0  0  0  0  0  0
   43.0820   14.1740  -12.8990 N   0  0  0  0  0  0  0  0  0  0  0  0
   43.2200   13.3170  -14.3890 P   0  0  1  0  0  5  0  0  0  0  0  0
   43.1710   14.2830  -15.5410 O   0  0  0  0  0  0  0  0  0  0  0  0
   44.4280   12.4250  -14.1920 O   0  0  0  0  0  0  0  0  0  0  0  0
   41.7710   12.1600  -14.4650 C   0  0  0  0  0  0  0  0  0  0  0  0
   40.6240   12.9740  -14.0700 N   0  0  0  0  0  0  0  0  0  0  0  0
   39.4170   12.3700  -13.9010 C   0  0  0  0  0  0  0  0  0  0  0  0
   38.9850   11.4180  -14.5360 O   0  0  0  0  0  0  0  0  0  0  0  0
   38.7380   13.0130  -12.9210 O   0  0  0  0  0  0  0  0  0  0  0  0
   39.5850   13.5280  -11.8960 C   0  0  0  0  0  0  0  0  0  0  0  0
   38.7880   13.6680  -10.6200 C   0  0  0  0  0  0  0  0  0  0  0  0
   39.3650   14.2140   -9.4650 C   0  0  0  0  0  0  0  0  0  0  0  0
   38.6120   14.3630   -8.2980 C   0  0  0  0  0  0  0  0  0  0  0  0
   37.2730   13.9750   -8.2770 C   0  0  0  0  0  0  0  0  0  0  0  0
   36.6850   13.4390   -9.4210 C   0  0  0  0  0  0  0  0  0  0  0  0
   37.4370   13.2890  -10.5880 C   0  0  0  0  0  0  0  0  0  0  0  0
   45.7230   19.5630  -12.8690 C   0  0  0  0  0  0  0  0  0  0  0  0
   46.0250   20.5250  -13.6320 O   0  0  0  0  0  0  0  0  0  0  0  0
   45.2770   19.5910  -11.6790 O   0  0  0  0  0  0  0  0  0  0  0  0
   48.8612   16.1487  -13.7208 H   0  0  0  0  0  0  0  0  0  0  0  0
   48.0140   15.8505  -15.2764 H   0  0  0  0  0  0  0  0  0  0  0  0
   49.7144   16.4295  -15.2764 H   0  0  0  0  0  0  0  0  0  0  0  0
   48.5448   18.3854  -13.8088 H   0  0  0  0  0  0  0  0  0  0  0  0
   49.6109   19.4753  -15.4402 H   0  0  0  0  0  0  0  0  0  0  0  0
   49.5348   18.0309  -16.5053 H   0  0  0  0  0  0  0  0  0  0  0  0
   48.1873   19.2187  -16.5053 H   0  0  0  0  0  0  0  0  0  0  0  0
   46.4796   19.0112  -15.3079 H   0  0  0  0  0  0  0  0  0  0  0  0
   46.3683   17.1397  -15.2338 H   0  0  0  0  0  0  0  0  0  0  0  0
   46.6212   17.6452  -12.7134 H   0  0  0  0  0  0  0  0  0  0  0  0
   43.9000   17.9040  -13.7180 H   0  0  0  0  0  0  0  0  0  0  0  0
   42.5840   16.0851  -13.6980 H   0  0  0  0  0  0  0  0  0  0  0  0
   41.2402   16.5256  -12.0877 H   0  0  0  0  0  0  0  0  0  0  0  0
   42.0646   15.2869  -10.9836 H   0  0  0  0  0  0  0  0  0  0  0  0
   43.7386   17.5036  -11.2136 H   0  0  0  0  0  0  0  0  0  0  0  0
   41.7443   18.8960   -9.7596 H   0  0  0  0  0  0  0  0  0  0  0  0
   42.5195   19.3504  -11.3149 H   0  0  0  0  0  0  0  0  0  0  0  0
   40.9983   18.3950  -11.3149 H   0  0  0  0  0  0  0  0  0  0  0  0
   42.6059   17.5927   -8.6301 H   0  0  0  0  0  0  0  0  0  0  0  0
   42.4471   15.8790   -9.1444 H   0  0  0  0  0  0  0  0  0  0  0  0
   44.0593   16.6709   -9.1444 H   0  0  0  0  0  0  0  0  0  0  0  0
   42.3740   13.7120  -12.3270 H   0  0  0  0  0  0  0  0  0  0  0  0
   41.6379   11.7718  -15.4856 H   0  0  0  0  0  0  0  0  0  0  0  0
   41.9036   11.2842  -13.8128 H   0  0  0  0  0  0  0  0  0  0  0  0
   40.8630   13.5480  -13.2630 H   0  0  0  0  0  0  0  0  0  0  0  0
   40.4256   12.8378  -11.7314 H   0  0  0  0  0  0  0  0  0  0  0  0
   39.9768   14.5105  -12.1979 H   0  0  0  0  0  0  0  0  0  0  0  0
   40.4193   14.5276   -9.4778 H   0  0  0  0  0  0  0  0  0  0  0  0
   39.0757   14.7867   -7.3950 H   0  0  0  0  0  0  0  0  0  0  0  0
   36.6808   14.0920   -7.3574 H   0  0  0  0  0  0  0  0  0  0  0  0
   35.6283   13.1340   -9.4048 H   0  0  0  0  0  0  0  0  0  0  0  0
   36.9666   12.8703  -11.4899 H   0  0  0  0  0  0  0  0  0  0  0  0
  1  2  1  0
  2  3  1  0
  2  4  1  0
  4  5  1  0
  5  6  1  0
  6  7  1  0
  7  8  2  0
  7  9  1  0
  9 10  1  0
 10 11  1  0
 11 12  1  0
 11 13  1  0
  9 14  1  0
 14 15  1  0
 15 16  2  0
 15 17  1  1
 15 18  1  0
 18 19  1  0
 19 20  1  0
 20 21  2  0
 20 22  1  0
 22 23  1  0
 23 24  1  0
 24 25  2  0
 25 26  1  0
 26 27  2  0
 27 28  1  0
 28 29  2  0
  5 30  1  0
 30 31  2  0
 30 32  1  0
 29 24  1  0
  1 33  1  0
  1 34  1  0
  1 35  1  0
  2 36  1  0
  3 37  1  0
  3 38  1  0
  3 39  1  0
  4 40  1  0
  4 41  1  0
  5 42  1  1
  6 43  1  0
  9 44  1  6
 10 45  1  0
 10 46  1  0
 11 47  1  0
 12 48  1  0
 12 49  1  0
 12 50  1  0
 13 51  1  0
 13 52  1  0
 13 53  1  0
 14 54  1  0
 18 55  1  0
 18 56  1  0
 19 57  1  0
 23 58  1  0
 23 59  1  0
 25 60  1  0
 26 61  1  0
 27 62  1  0
 28 63  1  0
 29 64  1  0
M  CHG  2  17  -1  32  -1
M  END
>  <meeko>  (8) 
{"is_sidechain": [false], "free_energy": -7.68, "intermolecular_energy": -13.854, "internal_energy": -1.764}

$$$$
5tmn_ligand
     RDKit          3D

 64 64  0  0  0  0  0  0  0  0999 V2000
   36.1010   13.3890   -6.4260 C   0  0  0  0  0  0  0  0  0  0  0  0
   36.8960   13.7410   -7.6810 C   0  0  0  0  0  0  0  0  0  0  0  0
   35.9800   13.7320   -8.9040 C   0  0  0  0  0  0  0  0  0  0  0  0
   37.7460   15.0270   -7.5510 C   0  0  0  0  0  0  0  0  0  0  0  0
   38.2530   15.7350   -8.8180 C   0  0  2  0  0  0  0  0  0  0  0  0
   39.4450   15.0760   -9.3860 N   0  0  0  0  0  0  0  0  0  0  0  0
   39.4490   14.4150  -10.5980 C   0  0  0  0  0  0  0  0  0  0  0  0
   38.4230   14.1500  -11.2200 O   0  0  0  0  0  0  0  0  0  0  0  0
   40.8670   14.0100  -11.0600 C   0  0  2  0  0  0  0  0  0  0  0  0
   41.9620   15.0110  -10.6800 C   0  0  0  0  0  0  0  0  0  0  0  0
   43.1270   14.4750   -9.8160 C   0  0  0  0  0  0  0  0  0  0  0  0
   42.7540   13.2740   -8.9520 C   0  0  0  0  0  0  0  0  0  0  0  0
   44.3750   14.1640  -10.6450 C   0  0  0  0  0  0  0  0  0  0  0  0
   40.8310   13.7400  -12.5220 N   0  0  0  0  0  0  0  0  0  0  0  0
   41.5970   12.3840  -13.2600 P   0  0  1  0  0  5  0  0  0  0  0  0
   42.4870   11.6940  -12.2630 O   0  0  0  0  0  0  0  0  0  0  0  0
   40.4600   11.6300  -13.9190 O   0  0  0  0  0  0  0  0  0  0  0  0
   42.6110   13.0530  -14.6640 C   0  0  0  0  0  0  0  0  0  0  0  0
   43.3070   14.2070  -14.1010 N   0  0  0  0  0  0  0  0  0  0  0  0
   44.3990   14.6960  -14.7500 C   0  0  0  0  0  0  0  0  0  0  0  0
   45.2230   14.0460  -15.3790 O   0  0  0  0  0  0  0  0  0  0  0  0
   44.4540   16.0370  -14.5680 O   0  0  0  0  0  0  0  0  0  0  0  0
   45.5200   16.4440  -13.7120 C   0  0  0  0  0  0  0  0  0  0  0  0
   45.0880   17.6610  -12.9290 C   0  0  0  0  0  0  0  0  0  0  0  0
   44.0240   17.5940  -12.0190 C   0  0  0  0  0  0  0  0  0  0  0  0
   43.6500   18.7190  -11.2800 C   0  0  0  0  0  0  0  0  0  0  0  0
   44.3400   19.9190  -11.4390 C   0  0  0  0  0  0  0  0  0  0  0  0
   45.4060   19.9970  -12.3330 C   0  0  0  0  0  0  0  0  0  0  0  0
   45.7800   18.8730  -13.0720 C   0  0  0  0  0  0  0  0  0  0  0  0
   38.4330   17.2820   -8.6720 C   0  0  0  0  0  0  0  0  0  0  0  0
   39.4380   17.7880   -9.2500 O   0  0  0  0  0  0  0  0  0  0  0  0
   37.5440   17.8490   -7.9620 O   0  0  0  0  0  0  0  0  0  0  0  0
   36.6896   13.6496   -5.5340 H   0  0  0  0  0  0  0  0  0  0  0  0
   35.1567   13.9531   -6.4199 H   0  0  0  0  0  0  0  0  0  0  0  0
   35.8839   12.3106   -6.4199 H   0  0  0  0  0  0  0  0  0  0  0  0
   37.6514   12.9537   -7.8209 H   0  0  0  0  0  0  0  0  0  0  0  0
   34.9302   13.7217   -8.5757 H   0  0  0  0  0  0  0  0  0  0  0  0
   36.1664   14.6320   -9.5083 H   0  0  0  0  0  0  0  0  0  0  0  0
   36.1840   12.8358   -9.5083 H   0  0  0  0  0  0  0  0  0  0  0  0
   37.1368   15.7579   -6.9991 H   0  0  0  0  0  0  0  0  0  0  0  0
   38.6691   14.6766   -7.0661 H   0  0  0  0  0  0  0  0  0  0  0  0
   37.4389   15.6226   -9.5491 H   0  0  0  0  0  0  0  0  0  0  0  0
   40.3070   15.5050   -9.0510 H   0  0  0  0  0  0  0  0  0  0  0  0
   41.1494   13.0959  -10.5171 H   0  0  0  0  0  0  0  0  0  0  0  0
   42.3927   15.4032  -11.6131 H   0  0  0  0  0  0  0  0  0  0  0  0
   41.4601   15.7623  -10.0525 H   0  0  0  0  0  0  0  0  0  0  0  0
   43.3612   15.3021   -9.1296 H   0  0  0  0  0  0  0  0  0  0  0  0
   42.8385   13.5462   -7.8896 H   0  0  0  0  0  0  0  0  0  0  0  0
   41.7195   12.9713   -9.1718 H   0  0  0  0  0  0  0  0  0  0  0  0
   43.4350   12.4386   -9.1718 H   0  0  0  0  0  0  0  0  0  0  0  0
   45.2192   13.9536   -9.9719 H   0  0  0  0  0  0  0  0  0  0  0  0
   44.1843   13.2859  -11.2795 H   0  0  0  0  0  0  0  0  0  0  0  0
   44.6186   15.0289  -11.2795 H   0  0  0  0  0  0  0  0  0  0  0  0
   41.0080   14.5640  -13.1000 H   0  0  0  0  0  0  0  0  0  0  0  0
   43.3309   12.2995  -15.0162 H   0  0  0  0  0  0  0  0  0  0  0  0
   41.9925   13.3228  -15.5327 H   0  0  0  0  0  0  0  0  0  0  0  0
   42.6420   14.9510  -13.8920 H   0  0  0  0  0  0  0  0  0  0  0  0
   45.7668   15.6276  -13.0173 H   0  0  0  0  0  0  0  0  0  0  0  0
   46.4073   16.6871  -14.3151 H   0  0  0  0  0  0  0  0  0  0  0  0
   43.4790   16.6478  -11.8857 H   0  0  0  0  0  0  0  0  0  0  0  0
   42.8103   18.6574  -10.5722 H   0  0  0  0  0  0  0  0  0  0  0  0
   44.0431   20.8050  -10.8586 H   0  0  0  0  0  0  0  0  0  0  0  0
   45.9526   20.9436  -12.4564 H   0  0  0  0  0  0  0  0  0  0  0  0
   46.6252   18.9384  -13.7730 H   0  0  0  0  0  0  0  0  0  0  0  0
  1  2  1  0
  2  3  1  0
  2  4  1  0
  4  5  1  0
  5  6  1  0
  6  7  1  0
  7  8  2  0
  7  9  1  0
  9 10  1  0
 10 11  1  0
 11 12  1  0
 11 13  1  0
  9 14  1  0
 14 15  1  0
 15 16  2  0
 15 17  1  6
 15 18  1  0
 18 19  1  0
 19 20  1  0
 20 21  2  0
 20 22  1  0
 22 23  1  0
 23 24  1  0
 24 25  2  0
 25 26  1  0
 26 27  2  0
 27 28  1  0
 28 29  2  0
  5 30  1  0
 30 31  2  0
 30 32  1  0
 29 24  1  0
  1 33  1  0
  1 34  1  0
  1 35  1  0
  2 36  1  0
  3 37  1  0
  3 38  1  0
  3 39  1  0
  4 40  1  0
  4 41  1  0
  5 42  1  6
  6 43  1  0
  9 44  1  1
 10 45  1  0
 10 46  1  0
 11 47  1  0
 12 48  1  0
 12 49  1  0
 12 50  1  0
 13 51  1  0
 13 52  1  0
 13 53  1  0
 14 54  1  0
 18 55  1  0
 18 56  1  0
 19 57  1  0
 23 58  1  0
 23 59  1  0
 25 60  1  0
 26 61  1  0
 27 62  1  0
 28 63  1  0
 29 64  1  0
M  CHG  2  17  -1  32  -1
M  END
>  <meeko>  (9) 
{"is_sidechain": [false], "free_energy": -7.678, "intermolecular_energy": -13.397, "internal_energy": -2.218}

$$$$
