4gfm_ligand
     RDKit          3D

 26 27  0  0  0  0  0  0  0  0999 V2000
   32.2960  -12.4320    5.3720 O   0  0  0  0  0  0  0  0  0  0  0  0
   32.0820  -12.3900    4.1690 C   0  0  0  0  0  0  0  0  0  0  0  0
   31.4270  -13.3240    3.3860 N   0  0  0  0  0  0  0  0  0  0  0  0
   30.8670  -14.5200    3.7910 C   0  0  0  0  0  0  0  0  0  0  0  0
   29.5590  -14.4260    4.4230 C   0  0  0  0  0  0  0  0  0  0  0  0
   28.9310  -15.5270    4.8510 C   0  0  0  0  0  0  0  0  0  0  0  0
   29.5140  -16.7530    4.7000 N   0  0  0  0  0  0  0  0  0  0  0  0
   30.7420  -16.9490    4.1180 C   0  0  0  0  0  0  0  0  0  0  0  0
   31.2390  -18.0630    3.9960 O   0  0  0  0  0  0  0  0  0  0  0  0
   31.4390  -15.7270    3.6430 C   0  0  0  0  0  0  0  0  0  0  0  0
   32.5630  -11.2150    3.4260 C   0  0  0  0  0  0  0  0  0  0  0  0
   33.7550  -11.2880    2.6980 C   0  0  0  0  0  0  0  0  0  0  0  0
   34.6760  -12.7440    2.5760 Cl  0  0  0  0  0  0  0  0  0  0  0  0
   34.2260  -10.1610    2.0170 C   0  0  0  0  0  0  0  0  0  0  0  0
   33.5120   -8.9650    2.0630 C   0  0  0  0  0  0  0  0  0  0  0  0
   32.3210   -8.8920    2.7880 C   0  0  0  0  0  0  0  0  0  0  0  0
   31.8440  -10.0150    3.4710 C   0  0  0  0  0  0  0  0  0  0  0  0
   30.3520   -9.8630    4.3260 Cl  0  0  0  0  0  0  0  0  0  0  0  0
   31.3470  -13.1080    2.4000 H   0  0  0  0  0  0  0  0  0  0  0  0
   29.0834  -13.4422    4.5496 H   0  0  0  0  0  0  0  0  0  0  0  0
   27.9422  -15.4447    5.3259 H   0  0  0  0  0  0  0  0  0  0  0  0
   29.0450  -17.5920    5.0210 H   0  0  0  0  0  0  0  0  0  0  0  0
   32.4277  -15.8100    3.1680 H   0  0  0  0  0  0  0  0  0  0  0  0
   35.1628  -10.2187    1.4433 H   0  0  0  0  0  0  0  0  0  0  0  0
   33.8864   -8.0794    1.5286 H   0  0  0  0  0  0  0  0  0  0  0  0
   31.7564   -7.9485    2.8220 H   0  0  0  0  0  0  0  0  0  0  0  0
  1  2  2  0
  2  3  1  0
  3  4  1  0
  4  5  1  0
  5  6  2  0
  6  7  1  0
  7  8  1  0
  8  9  2  0
  8 10  1  0
  2 11  1  0
 11 12  2  0
 12 13  1  0
 12 14  1  0
 14 15  2  0
 15 16  1  0
 16 17  2  0
 17 18  1  0
 10  4  2  0
 17 11  1  0
  3 19  1  0
  5 20  1  0
  6 21  1  0
  7 22  1  0
 10 23  1  0
 14 24  1  0
 15 25  1  0
 16 26  1  0
M  END
>  <meeko>  (1) 
{"is_sidechain": [false], "free_energy": -7.854, "intermolecular_energy": -8.773, "internal_energy": -0.486}

$$$$
4gfm_ligand
     RDKit          3D

 26 27  0  0  0  0  0  0  0  0999 V2000
   32.3020  -12.4250    5.3860 O   0  0  0  0  0  0  0  0  0  0  0  0
   32.1130  -12.3890    4.1780 C   0  0  0  0  0  0  0  0  0  0  0  0
   31.4670  -13.3230    3.3880 N   0  0  0  0  0  0  0  0  0  0  0  0
   30.8890  -14.5120    3.7890 C   0  0  0  0  0  0  0  0  0  0  0  0
   29.5840  -14.4000    4.4250 C   0  0  0  0  0  0  0  0  0  0  0  0
   28.9400  -15.4920    4.8500 C   0  0  0  0  0  0  0  0  0  0  0  0
   29.5030  -16.7270    4.6920 N   0  0  0  0  0  0  0  0  0  0  0  0
   30.7270  -16.9400    4.1070 C   0  0  0  0  0  0  0  0  0  0  0  0
   31.2060  -18.0610    3.9790 O   0  0  0  0  0  0  0  0  0  0  0  0
   31.4420  -15.7270    3.6350 C   0  0  0  0  0  0  0  0  0  0  0  0
   32.6190  -11.2230    3.4370 C   0  0  0  0  0  0  0  0  0  0  0  0
   31.9070  -10.0190    3.4550 C   0  0  0  0  0  0  0  0  0  0  0  0
   30.4620   -9.8140    4.3770 Cl  0  0  0  0  0  0  0  0  0  0  0  0
   32.3750   -8.9230    2.7240 C   0  0  0  0  0  0  0  0  0  0  0  0
   33.5480   -9.0260    1.9780 C   0  0  0  0  0  0  0  0  0  0  0  0
   34.2600  -10.2260    1.9620 C   0  0  0  0  0  0  0  0  0  0  0  0
   33.7980  -11.3270    2.6890 C   0  0  0  0  0  0  0  0  0  0  0  0
   34.7410  -12.7730    2.6460 Cl  0  0  0  0  0  0  0  0  0  0  0  0
   31.4090  -13.1140    2.3990 H   0  0  0  0  0  0  0  0  0  0  0  0
   29.1244  -13.4094    4.5569 H   0  0  0  0  0  0  0  0  0  0  0  0
   27.9541  -15.3959    5.3282 H   0  0  0  0  0  0  0  0  0  0  0  0
   29.0220  -17.5600    5.0110 H   0  0  0  0  0  0  0  0  0  0  0  0
   32.4282  -15.8235    3.1574 H   0  0  0  0  0  0  0  0  0  0  0  0
   31.8156   -7.9760    2.7376 H   0  0  0  0  0  0  0  0  0  0  0  0
   33.9120   -8.1622    1.4025 H   0  0  0  0  0  0  0  0  0  0  0  0
   35.1873  -10.3058    1.3757 H   0  0  0  0  0  0  0  0  0  0  0  0
  1  2  2  0
  2  3  1  0
  3  4  1  0
  4  5  1  0
  5  6  2  0
  6  7  1  0
  7  8  1  0
  8  9  2  0
  8 10  1  0
  2 11  1  0
 11 12  2  0
 12 13  1  0
 12 14  1  0
 14 15  2  0
 15 16  1  0
 16 17  2  0
 17 18  1  0
 10  4  2  0
 17 11  1  0
  3 19  1  0
  5 20  1  0
  6 21  1  0
  7 22  1  0
 10 23  1  0
 14 24  1  0
 15 25  1  0
 16 26  1  0
M  END
>  <meeko>  (2) 
{"is_sidechain": [false], "free_energy": -7.842, "intermolecular_energy": -8.774, "internal_energy": -0.472}

$$$$
4gfm_ligand
     RDKit          3D

 26 27  0  0  0  0  0  0  0  0999 V2000
   32.1380  -12.6660    5.5480 O   0  0  0  0  0  0  0  0  0  0  0  0
   31.7700  -12.5200    4.3910 C   0  0  0  0  0  0  0  0  0  0  0  0
   31.0790  -13.4180    3.5970 N   0  0  0  0  0  0  0  0  0  0  0  0
   30.6490  -14.6860    3.9360 C   0  0  0  0  0  0  0  0  0  0  0  0
   31.5660  -15.7710    3.6170 C   0  0  0  0  0  0  0  0  0  0  0  0
   31.2440  -17.0380    3.9040 C   0  0  0  0  0  0  0  0  0  0  0  0
   30.0480  -17.3250    4.4990 N   0  0  0  0  0  0  0  0  0  0  0  0
   29.1160  -16.3760    4.8390 C   0  0  0  0  0  0  0  0  0  0  0  0
   28.0510  -16.6650    5.3730 O   0  0  0  0  0  0  0  0  0  0  0  0
   29.4730  -14.9700    4.5210 C   0  0  0  0  0  0  0  0  0  0  0  0
   32.0810  -11.2450    3.7260 C   0  0  0  0  0  0  0  0  0  0  0  0
   33.2470  -11.1210    2.9620 C   0  0  0  0  0  0  0  0  0  0  0  0
   34.3300  -12.4410    2.7070 Cl  0  0  0  0  0  0  0  0  0  0  0  0
   33.5540   -9.8990    2.3560 C   0  0  0  0  0  0  0  0  0  0  0  0
   32.7040   -8.8040    2.5120 C   0  0  0  0  0  0  0  0  0  0  0  0
   31.5400   -8.9300    3.2710 C   0  0  0  0  0  0  0  0  0  0  0  0
   31.2260  -10.1480    3.8810 C   0  0  0  0  0  0  0  0  0  0  0  0
   29.7590  -10.2400    4.7850 Cl  0  0  0  0  0  0  0  0  0  0  0  0
   30.8620  -13.1120    2.6560 H   0  0  0  0  0  0  0  0  0  0  0  0
   32.5302  -15.5479    3.1368 H   0  0  0  0  0  0  0  0  0  0  0  0
   31.9442  -17.8505    3.6602 H   0  0  0  0  0  0  0  0  0  0  0  0
   29.7960  -18.2820    4.7200 H   0  0  0  0  0  0  0  0  0  0  0  0
   28.7722  -14.1580    4.7652 H   0  0  0  0  0  0  0  0  0  0  0  0
   34.4693   -9.8007    1.7539 H   0  0  0  0  0  0  0  0  0  0  0  0
   32.9509   -7.8428    2.0375 H   0  0  0  0  0  0  0  0  0  0  0  0
   30.8671   -8.0680    3.3898 H   0  0  0  0  0  0  0  0  0  0  0  0
  1  2  2  0
  2  3  1  0
  3  4  1  0
  4  5  1  0
  5  6  2  0
  6  7  1  0
  7  8  1  0
  8  9  2  0
  8 10  1  0
  2 11  1  0
 11 12  2  0
 12 13  1  0
 12 14  1  0
 14 15  2  0
 15 16  1  0
 16 17  2  0
 17 18  1  0
 10  4  2  0
 17 11  1  0
  3 19  1  0
  5 20  1  0
  6 21  1  0
  7 22  1  0
 10 23  1  0
 14 24  1  0
 15 25  1  0
 16 26  1  0
M  END
>  <meeko>  (3) 
{"is_sidechain": [false], "free_energy": -7.82, "intermolecular_energy": -8.676, "internal_energy": -0.545}

$$$$
4gfm_ligand
     RDKit          3D

 26 27  0  0  0  0  0  0  0  0999 V2000
   32.3030  -12.4740    5.3270 O   0  0  0  0  0  0  0  0  0  0  0  0
   32.1350  -12.4310    4.1170 C   0  0  0  0  0  0  0  0  0  0  0  0
   31.5000  -13.3590    3.3110 N   0  0  0  0  0  0  0  0  0  0  0  0
   30.9130  -14.5480    3.6950 C   0  0  0  0  0  0  0  0  0  0  0  0
   31.6950  -15.7510    3.4440 C   0  0  0  0  0  0  0  0  0  0  0  0
   31.2160  -16.9550    3.7790 C   0  0  0  0  0  0  0  0  0  0  0  0
   29.9850  -17.0670    4.3610 N   0  0  0  0  0  0  0  0  0  0  0  0
   29.1700  -15.9960    4.6390 C   0  0  0  0  0  0  0  0  0  0  0  0
   28.0700  -16.1290    5.1620 O   0  0  0  0  0  0  0  0  0  0  0  0
   29.7020  -14.6600    4.2670 C   0  0  0  0  0  0  0  0  0  0  0  0
   32.6560  -11.2620    3.3910 C   0  0  0  0  0  0  0  0  0  0  0  0
   31.9510  -10.0540    3.4110 C   0  0  0  0  0  0  0  0  0  0  0  0
   30.4970   -9.8480    4.3190 Cl  0  0  0  0  0  0  0  0  0  0  0  0
   32.4330   -8.9540    2.6960 C   0  0  0  0  0  0  0  0  0  0  0  0
   33.6140   -9.0580    1.9610 C   0  0  0  0  0  0  0  0  0  0  0  0
   34.3190  -10.2620    1.9440 C   0  0  0  0  0  0  0  0  0  0  0  0
   33.8430  -11.3660    2.6560 C   0  0  0  0  0  0  0  0  0  0  0  0
   34.7770  -12.8170    2.6120 Cl  0  0  0  0  0  0  0  0  0  0  0  0
   31.4600  -13.1430    2.3220 H   0  0  0  0  0  0  0  0  0  0  0  0
   32.6869  -15.6693    2.9755 H   0  0  0  0  0  0  0  0  0  0  0  0
   31.8151  -17.8569    3.5852 H   0  0  0  0  0  0  0  0  0  0  0  0
   29.6140  -17.9740    4.6180 H   0  0  0  0  0  0  0  0  0  0  0  0
   29.1022  -13.7584    4.4605 H   0  0  0  0  0  0  0  0  0  0  0  0
   31.8795   -8.0036    2.7129 H   0  0  0  0  0  0  0  0  0  0  0  0
   33.9890   -8.1921    1.3956 H   0  0  0  0  0  0  0  0  0  0  0  0
   35.2527  -10.3423    1.3681 H   0  0  0  0  0  0  0  0  0  0  0  0
  1  2  2  0
  2  3  1  0
  3  4  1  0
  4  5  1  0
  5  6  2  0
  6  7  1  0
  7  8  1  0
  8  9  2  0
  8 10  1  0
  2 11  1  0
 11 12  2  0
 12 13  1  0
 12 14  1  0
 14 15  2  0
 15 16  1  0
 16 17  2  0
 17 18  1  0
 10  4  2  0
 17 11  1  0
  3 19  1  0
  5 20  1  0
  6 21  1  0
  7 22  1  0
 10 23  1  0
 14 24  1  0
 15 25  1  0
 16 26  1  0
M  END
>  <meeko>  (4) 
{"is_sidechain": [false], "free_energy": -7.784, "intermolecular_energy": -8.704, "internal_energy": -0.477}

$$$$
4gfm_ligand
     RDKit          3D

 26 27  0  0  0  0  0  0  0  0999 V2000
   30.9410  -12.3990    3.3320 O   0  0  0  0  0  0  0  0  0  0  0  0
   31.8080  -13.2610    3.3640 C   0  0  0  0  0  0  0  0  0  0  0  0
   33.1300  -13.1540    2.9710 N   0  0  0  0  0  0  0  0  0  0  0  0
   33.7680  -12.0460    2.4510 C   0  0  0  0  0  0  0  0  0  0  0  0
   34.9560  -12.3150    1.6520 C   0  0  0  0  0  0  0  0  0  0  0  0
   35.6470  -11.3090    1.1030 C   0  0  0  0  0  0  0  0  0  0  0  0
   35.2450  -10.0170    1.2890 N   0  0  0  0  0  0  0  0  0  0  0  0
   34.1420   -9.6580    2.0240 C   0  0  0  0  0  0  0  0  0  0  0  0
   33.8060   -8.4880    2.1720 O   0  0  0  0  0  0  0  0  0  0  0  0
   33.3740  -10.7740    2.6330 C   0  0  0  0  0  0  0  0  0  0  0  0
   31.4390  -14.5890    3.8780 C   0  0  0  0  0  0  0  0  0  0  0  0
   31.1020  -15.6150    2.9880 C   0  0  0  0  0  0  0  0  0  0  0  0
   31.1600  -15.4080    1.2750 Cl  0  0  0  0  0  0  0  0  0  0  0  0
   30.7230  -16.8670    3.4810 C   0  0  0  0  0  0  0  0  0  0  0  0
   30.6780  -17.0960    4.8560 C   0  0  0  0  0  0  0  0  0  0  0  0
   31.0170  -16.0740    5.7430 C   0  0  0  0  0  0  0  0  0  0  0  0
   31.3970  -14.8190    5.2580 C   0  0  0  0  0  0  0  0  0  0  0  0
   31.8280  -13.6070    6.4100 Cl  0  0  0  0  0  0  0  0  0  0  0  0
   33.6990  -13.9860    3.0740 H   0  0  0  0  0  0  0  0  0  0  0  0
   35.2875  -13.3526    1.4988 H   0  0  0  0  0  0  0  0  0  0  0  0
   36.5417  -11.5233    0.5000 H   0  0  0  0  0  0  0  0  0  0  0  0
   35.7630   -9.2490    0.8770 H   0  0  0  0  0  0  0  0  0  0  0  0
   32.4792  -10.5586    3.2354 H   0  0  0  0  0  0  0  0  0  0  0  0
   30.4593  -17.6744    2.7820 H   0  0  0  0  0  0  0  0  0  0  0  0
   30.3756  -18.0812    5.2406 H   0  0  0  0  0  0  0  0  0  0  0  0
   30.9852  -16.2561    6.8274 H   0  0  0  0  0  0  0  0  0  0  0  0
  1  2  2  0
  2  3  1  0
  3  4  1  0
  4  5  1  0
  5  6  2  0
  6  7  1  0
  7  8  1  0
  8  9  2  0
  8 10  1  0
  2 11  1  0
 11 12  2  0
 12 13  1  0
 12 14  1  0
 14 15  2  0
 15 16  1  0
 16 17  2  0
 17 18  1  0
 10  4  2  0
 17 11  1  0
  3 19  1  0
  5 20  1  0
  6 21  1  0
  7 22  1  0
 10 23  1  0
 14 24  1  0
 15 25  1  0
 16 26  1  0
M  END
>  <meeko>  (5) 
{"is_sidechain": [false], "free_energy": -7.554, "intermolecular_energy": -8.779, "internal_energy": -0.145}

$$$$
4gfm_ligand
     RDKit          3D

 26 27  0  0  0  0  0  0  0  0999 V2000
   31.7390  -13.2600    5.6290 O   0  0  0  0  0  0  0  0  0  0  0  0
   31.5980  -13.1940    4.4170 C   0  0  0  0  0  0  0  0  0  0  0  0
   30.5380  -13.6550    3.6560 N   0  0  0  0  0  0  0  0  0  0  0  0
   29.3970  -14.2960    4.0990 C   0  0  0  0  0  0  0  0  0  0  0  0
   29.5520  -15.7040    4.4340 C   0  0  0  0  0  0  0  0  0  0  0  0
   28.5080  -16.4170    4.8740 C   0  0  0  0  0  0  0  0  0  0  0  0
   27.2830  -15.8270    5.0110 N   0  0  0  0  0  0  0  0  0  0  0  0
   27.0330  -14.5080    4.7220 C   0  0  0  0  0  0  0  0  0  0  0  0
   25.9220  -14.0070    4.8550 O   0  0  0  0  0  0  0  0  0  0  0  0
   28.1920  -13.7170    4.2350 C   0  0  0  0  0  0  0  0  0  0  0  0
   32.6650  -12.5520    3.6330 C   0  0  0  0  0  0  0  0  0  0  0  0
   32.6680  -11.1640    3.4600 C   0  0  0  0  0  0  0  0  0  0  0  0
   31.4870  -10.1390    4.1930 Cl  0  0  0  0  0  0  0  0  0  0  0  0
   33.6660  -10.5610    2.6900 C   0  0  0  0  0  0  0  0  0  0  0  0
   34.6570  -11.3380    2.0910 C   0  0  0  0  0  0  0  0  0  0  0  0
   34.6550  -12.7230    2.2650 C   0  0  0  0  0  0  0  0  0  0  0  0
   33.6600  -13.3330    3.0340 C   0  0  0  0  0  0  0  0  0  0  0  0
   33.7320  -15.0470    3.2290 Cl  0  0  0  0  0  0  0  0  0  0  0  0
   30.6020  -13.5060    2.6560 H   0  0  0  0  0  0  0  0  0  0  0  0
   30.5348  -16.1859    4.3247 H   0  0  0  0  0  0  0  0  0  0  0  0
   28.6364  -17.4801    5.1258 H   0  0  0  0  0  0  0  0  0  0  0  0
   26.4860  -16.3590    5.3420 H   0  0  0  0  0  0  0  0  0  0  0  0
   28.0635  -12.6536    3.9848 H   0  0  0  0  0  0  0  0  0  0  0  0
   33.6699   -9.4692    2.5558 H   0  0  0  0  0  0  0  0  0  0  0  0
   35.4390  -10.8603    1.4824 H   0  0  0  0  0  0  0  0  0  0  0  0
   35.4386  -13.3360    1.7957 H   0  0  0  0  0  0  0  0  0  0  0  0
  1  2  2  0
  2  3  1  0
  3  4  1  0
  4  5  1  0
  5  6  2  0
  6  7  1  0
  7  8  1  0
  8  9  2  0
  8 10  1  0
  2 11  1  0
 11 12  2  0
 12 13  1  0
 12 14  1  0
 14 15  2  0
 15 16  1  0
 16 17  2  0
 17 18  1  0
 10  4  2  0
 17 11  1  0
  3 19  1  0
  5 20  1  0
  6 21  1  0
  7 22  1  0
 10 23  1  0
 14 24  1  0
 15 25  1  0
 16 26  1  0
M  END
>  <meeko>  (6) 
{"is_sidechain": [false], "free_energy": -7.51, "intermolecular_energy": -8.348, "internal_energy": -0.526}

$$$$
4gfm_ligand
     RDKit          3D

 26 27  0  0  0  0  0  0  0  0999 V2000
   31.8280  -13.4550    5.6490 O   0  0  0  0  0  0  0  0  0  0  0  0
   31.5420  -13.2040    4.4870 C   0  0  0  0  0  0  0  0  0  0  0  0
   30.3350  -13.4120    3.8430 N   0  0  0  0  0  0  0  0  0  0  0  0
   29.1790  -13.9520    4.3710 C   0  0  0  0  0  0  0  0  0  0  0  0
   28.1540  -12.9960    4.7630 C   0  0  0  0  0  0  0  0  0  0  0  0
   26.9960  -13.4160    5.2850 C   0  0  0  0  0  0  0  0  0  0  0  0
   26.7650  -14.7520    5.4580 N   0  0  0  0  0  0  0  0  0  0  0  0
   27.6660  -15.7330    5.1230 C   0  0  0  0  0  0  0  0  0  0  0  0
   27.4300  -16.9240    5.2900 O   0  0  0  0  0  0  0  0  0  0  0  0
   28.9510  -15.2660    4.5430 C   0  0  0  0  0  0  0  0  0  0  0  0
   32.5820  -12.6070    3.6350 C   0  0  0  0  0  0  0  0  0  0  0  0
   33.5290  -13.4240    3.0100 C   0  0  0  0  0  0  0  0  0  0  0  0
   33.4970  -15.1450    3.1430 Cl  0  0  0  0  0  0  0  0  0  0  0  0
   34.5350  -12.8500    2.2260 C   0  0  0  0  0  0  0  0  0  0  0  0
   34.5970  -11.4670    2.0670 C   0  0  0  0  0  0  0  0  0  0  0  0
   33.6500  -10.6510    2.6890 C   0  0  0  0  0  0  0  0  0  0  0  0
   32.6420  -11.2180    3.4740 C   0  0  0  0  0  0  0  0  0  0  0  0
   31.4890  -10.1530    4.1940 Cl  0  0  0  0  0  0  0  0  0  0  0  0
   30.2910  -13.1370    2.8690 H   0  0  0  0  0  0  0  0  0  0  0  0
   28.3329  -11.9190    4.6289 H   0  0  0  0  0  0  0  0  0  0  0  0
   26.2278  -12.6843    5.5757 H   0  0  0  0  0  0  0  0  0  0  0  0
   25.8920  -15.0800    5.8530 H   0  0  0  0  0  0  0  0  0  0  0  0
   29.7193  -15.9979    4.2530 H   0  0  0  0  0  0  0  0  0  0  0  0
   35.2797  -13.4924    1.7333 H   0  0  0  0  0  0  0  0  0  0  0  0
   35.3912  -11.0186    1.4521 H   0  0  0  0  0  0  0  0  0  0  0  0
   33.6973   -9.5595    2.5610 H   0  0  0  0  0  0  0  0  0  0  0  0
  1  2  2  0
  2  3  1  0
  3  4  1  0
  4  5  1  0
  5  6  2  0
  6  7  1  0
  7  8  1  0
  8  9  2  0
  8 10  1  0
  2 11  1  0
 11 12  2  0
 12 13  1  0
 12 14  1  0
 14 15  2  0
 15 16  1  0
 16 17  2  0
 17 18  1  0
 10  4  2  0
 17 11  1  0
  3 19  1  0
  5 20  1  0
  6 21  1  0
  7 22  1  0
 10 23  1  0
 14 24  1  0
 15 25  1  0
 16 26  1  0
M  END
>  <meeko>  (7) 
{"is_sidechain": [false], "free_energy": -7.424, "intermolecular_energy": -8.245, "internal_energy": -0.533}

$$$$
4gfm_ligand
     RDKit          3D

 26 27  0  0  0  0  0  0  0  0999 V2000
   31.3840  -14.0000    2.1350 O   0  0  0  0  0  0  0  0  0  0  0  0
   31.5480  -13.5850    3.2740 C   0  0  0  0  0  0  0  0  0  0  0  0
   32.4300  -12.6120    3.7080 N   0  0  0  0  0  0  0  0  0  0  0  0
   33.3280  -11.8880    2.9480 C   0  0  0  0  0  0  0  0  0  0  0  0
   34.4110  -12.6530    2.3470 C   0  0  0  0  0  0  0  0  0  0  0  0
   35.3340  -12.0450    1.5920 C   0  0  0  0  0  0  0  0  0  0  0  0
   35.2680  -10.6970    1.3790 N   0  0  0  0  0  0  0  0  0  0  0  0
   34.2890   -9.8870    1.9000 C   0  0  0  0  0  0  0  0  0  0  0  0
   34.2570   -8.6800    1.6900 O   0  0  0  0  0  0  0  0  0  0  0  0
   33.2650  -10.5620    2.7380 C   0  0  0  0  0  0  0  0  0  0  0  0
   30.7240  -14.1690    4.3440 C   0  0  0  0  0  0  0  0  0  0  0  0
   29.5820  -13.4970    4.7920 C   0  0  0  0  0  0  0  0  0  0  0  0
   29.0470  -12.0120    4.0900 Cl  0  0  0  0  0  0  0  0  0  0  0  0
   28.8180  -14.0390    5.8300 C   0  0  0  0  0  0  0  0  0  0  0  0
   29.1910  -15.2460    6.4200 C   0  0  0  0  0  0  0  0  0  0  0  0
   30.3290  -15.9180    5.9700 C   0  0  0  0  0  0  0  0  0  0  0  0
   31.0980  -15.3810    4.9340 C   0  0  0  0  0  0  0  0  0  0  0  0
   32.4780  -16.2770    4.4100 Cl  0  0  0  0  0  0  0  0  0  0  0  0
   32.4190  -12.4040    4.6990 H   0  0  0  0  0  0  0  0  0  0  0  0
   34.4712  -13.7385    2.5145 H   0  0  0  0  0  0  0  0  0  0  0  0
   36.1479  -12.6322    1.1418 H   0  0  0  0  0  0  0  0  0  0  0  0
   35.9630  -10.2290    0.8090 H   0  0  0  0  0  0  0  0  0  0  0  0
   32.4517   -9.9741    3.1886 H   0  0  0  0  0  0  0  0  0  0  0  0
   27.9195  -13.5113    6.1824 H   0  0  0  0  0  0  0  0  0  0  0  0
   28.5896  -15.6681    7.2387 H   0  0  0  0  0  0  0  0  0  0  0  0
   30.6211  -16.8726    6.4321 H   0  0  0  0  0  0  0  0  0  0  0  0
  1  2  2  0
  2  3  1  0
  3  4  1  0
  4  5  1  0
  5  6  2  0
  6  7  1  0
  7  8  1  0
  8  9  2  0
  8 10  1  0
  2 11  1  0
 11 12  2  0
 12 13  1  0
 12 14  1  0
 14 15  2  0
 15 16  1  0
 16 17  2  0
 17 18  1  0
 10  4  2  0
 17 11  1  0
  3 19  1  0
  5 20  1  0
  6 21  1  0
  7 22  1  0
 10 23  1  0
 14 24  1  0
 15 25  1  0
 16 26  1  0
M  END
>  <meeko>  (8) 
{"is_sidechain": [false], "free_energy": -7.234, "intermolecular_energy": -8.133, "internal_energy": -0.432}

$$$$
4gfm_ligand
     RDKit          3D

 26 27  0  0  0  0  0  0  0  0999 V2000
   31.3470  -13.9360    2.1680 O   0  0  0  0  0  0  0  0  0  0  0  0
   31.5580  -13.5290    3.3020 C   0  0  0  0  0  0  0  0  0  0  0  0
   32.4790  -12.5800    3.7080 N   0  0  0  0  0  0  0  0  0  0  0  0
   33.3700  -11.8780    2.9200 C   0  0  0  0  0  0  0  0  0  0  0  0
   34.4220  -12.6670    2.2950 C   0  0  0  0  0  0  0  0  0  0  0  0
   35.3360  -12.0820    1.5120 C   0  0  0  0  0  0  0  0  0  0  0  0
   35.2910  -10.7340    1.2930 N   0  0  0  0  0  0  0  0  0  0  0  0
   34.3430   -9.9030    1.8360 C   0  0  0  0  0  0  0  0  0  0  0  0
   34.3290   -8.6960    1.6210 O   0  0  0  0  0  0  0  0  0  0  0  0
   33.3280  -10.5520    2.7040 C   0  0  0  0  0  0  0  0  0  0  0  0
   30.7540  -14.0940    4.3970 C   0  0  0  0  0  0  0  0  0  0  0  0
   31.1280  -15.3060    4.9860 C   0  0  0  0  0  0  0  0  0  0  0  0
   32.5550  -16.1600    4.5200 Cl  0  0  0  0  0  0  0  0  0  0  0  0
   30.3440  -15.8550    6.0060 C   0  0  0  0  0  0  0  0  0  0  0  0
   29.1920  -15.1980    6.4370 C   0  0  0  0  0  0  0  0  0  0  0  0
   28.8220  -13.9870    5.8510 C   0  0  0  0  0  0  0  0  0  0  0  0
   29.5990  -13.4320    4.8300 C   0  0  0  0  0  0  0  0  0  0  0  0
   29.0970  -11.9200    4.1670 Cl  0  0  0  0  0  0  0  0  0  0  0  0
   32.5060  -12.3740    4.7000 H   0  0  0  0  0  0  0  0  0  0  0  0
   34.4658  -13.7525    2.4678 H   0  0  0  0  0  0  0  0  0  0  0  0
   36.1256  -12.6878    1.0435 H   0  0  0  0  0  0  0  0  0  0  0  0
   35.9800  -10.2830    0.7020 H   0  0  0  0  0  0  0  0  0  0  0  0
   32.5387   -9.9453    3.1720 H   0  0  0  0  0  0  0  0  0  0  0  0
   30.6372  -16.8084    6.4698 H   0  0  0  0  0  0  0  0  0  0  0  0
   28.5761  -15.6337    7.2375 H   0  0  0  0  0  0  0  0  0  0  0  0
   27.9153  -13.4670    6.1938 H   0  0  0  0  0  0  0  0  0  0  0  0
  1  2  2  0
  2  3  1  0
  3  4  1  0
  4  5  1  0
  5  6  2  0
  6  7  1  0
  7  8  1  0
  8  9  2  0
  8 10  1  0
  2 11  1  0
 11 12  2  0
 12 13  1  0
 12 14  1  0
 14 15  2  0
 15 16  1  0
 16 17  2  0
 17 18  1  0
 10  4  2  0
 17 11  1  0
  3 19  1  0
  5 20  1  0
  6 21  1  0
  7 22  1  0
 10 23  1  0
 14 24  1  0
 15 25  1  0
 16 26  1  0
M  END
>  <meeko>  (9) 
{"is_sidechain": [false], "free_energy": -7.212, "intermolecular_energy": -8.089, "internal_energy": -0.452}

$$$$
