2hb1_ligand
     RDKit          3D

 17 17  0  0  0  0  0  0  0  0999 V2000
   44.8430   17.4170   -0.9580 O   0  0  0  0  0  0  0  0  0  0  0  0
   44.2240   16.5620   -0.2520 C   0  0  0  0  0  0  0  0  0  0  0  0
   43.4130   15.6710   -0.6520 O   0  0  0  0  0  0  0  0  0  0  0  0
   44.4350   16.6710    1.2740 C   0  0  0  0  0  0  0  0  0  0  0  0
   44.0350   15.4570    1.9500 O   0  0  0  0  0  0  0  0  0  0  0  0
   45.0790   14.8580    2.5740 C   0  0  0  0  0  0  0  0  0  0  0  0
   45.5550   13.5580    2.2390 C   0  0  0  0  0  0  0  0  0  0  0  0
   44.8100   12.4870    0.8680 Br  0  0  0  0  0  0  0  0  0  0  0  0
   46.6020   13.1430    3.0210 C   0  0  0  0  0  0  0  0  0  0  0  0
   46.9820   14.2980    4.2170 S   0  0  0  0  0  0  0  0  0  0  0  0
   45.7340   15.3650    3.6850 C   0  0  0  0  0  0  0  0  0  0  0  0
   45.4490   16.7300    4.4520 C   0  0  0  0  0  0  0  0  0  0  0  0
   46.3230   17.6480    4.4220 O   0  0  0  0  0  0  0  0  0  0  0  0
   44.3350   16.8020    5.0720 O   0  0  0  0  0  0  0  0  0  0  0  0
   45.5000   16.8586    1.4755 H   0  0  0  0  0  0  0  0  0  0  0  0
   43.8149   17.4976    1.6510 H   0  0  0  0  0  0  0  0  0  0  0  0
   47.1299   12.1865    2.8932 H   0  0  0  0  0  0  0  0  0  0  0  0
  1  2  2  0
  2  3  1  0
  2  4  1  0
  4  5  1  0
  5  6  1  0
  6  7  1  0
  7  8  1  0
  7  9  2  0
  9 10  1  0
 10 11  1  0
 11 12  1  0
 12 13  2  0
 12 14  1  0
 11  6  2  0
  4 15  1  0
  4 16  1  0
  9 17  1  0
M  CHG  2   3  -1  14  -1
M  END
>  <meeko>  (1) 
{"is_sidechain": [false], "free_energy": -6.318, "intermolecular_energy": -7.795, "internal_energy": -0.216}

$$$$
2hb1_ligand
     RDKit          3D

 17 17  0  0  0  0  0  0  0  0999 V2000
   47.0830   17.8110    4.3460 O   0  0  0  0  0  0  0  0  0  0  0  0
   46.0960   17.0300    4.1760 C   0  0  0  0  0  0  0  0  0  0  0  0
   44.9470   17.1090    4.7090 O   0  0  0  0  0  0  0  0  0  0  0  0
   46.3550   15.8070    3.2700 C   0  0  0  0  0  0  0  0  0  0  0  0
   45.1980   14.9430    3.2060 O   0  0  0  0  0  0  0  0  0  0  0  0
   45.0390   14.3990    1.9740 C   0  0  0  0  0  0  0  0  0  0  0  0
   45.4790   13.0880    1.6310 C   0  0  0  0  0  0  0  0  0  0  0  0
   46.3330   11.9150    2.8450 Br  0  0  0  0  0  0  0  0  0  0  0  0
   45.2400   12.7590    0.3220 C   0  0  0  0  0  0  0  0  0  0  0  0
   44.5360   14.0590   -0.5290 S   0  0  0  0  0  0  0  0  0  0  0  0
   44.5510   15.0740    0.8670 C   0  0  0  0  0  0  0  0  0  0  0  0
   44.0540   16.5840    0.7810 C   0  0  0  0  0  0  0  0  0  0  0  0
   43.0910   16.9580    1.5170 O   0  0  0  0  0  0  0  0  0  0  0  0
   44.6670   17.3290   -0.0540 O   0  0  0  0  0  0  0  0  0  0  0  0
   46.5961   16.1578    2.2557 H   0  0  0  0  0  0  0  0  0  0  0  0
   47.1922   15.2333    3.6942 H   0  0  0  0  0  0  0  0  0  0  0  0
   45.4727   11.7805   -0.1234 H   0  0  0  0  0  0  0  0  0  0  0  0
  1  2  2  0
  2  3  1  0
  2  4  1  0
  4  5  1  0
  5  6  1  0
  6  7  1  0
  7  8  1  0
  7  9  2  0
  9 10  1  0
 10 11  1  0
 11 12  1  0
 12 13  2  0
 12 14  1  0
 11  6  2  0
  4 15  1  0
  4 16  1  0
  9 17  1  0
M  CHG  2   3  -1  14  -1
M  END
>  <meeko>  (2) 
{"is_sidechain": [false], "free_energy": -6.095, "intermolecular_energy": -7.422, "internal_energy": -0.315}

$$$$
2hb1_ligand
     RDKit          3D

 17 17  0  0  0  0  0  0  0  0999 V2000
   46.6460   17.2080    5.8620 O   0  0  0  0  0  0  0  0  0  0  0  0
   47.5050   17.0310    4.9440 C   0  0  0  0  0  0  0  0  0  0  0  0
   48.7520   17.2630    4.9980 O   0  0  0  0  0  0  0  0  0  0  0  0
   46.9510   16.5440    3.5870 C   0  0  0  0  0  0  0  0  0  0  0  0
   45.7580   15.7470    3.7610 O   0  0  0  0  0  0  0  0  0  0  0  0
   45.4370   15.0650    2.6340 C   0  0  0  0  0  0  0  0  0  0  0  0
   44.6030   15.5920    1.6070 C   0  0  0  0  0  0  0  0  0  0  0  0
   43.8350   17.3210    1.6600 Br  0  0  0  0  0  0  0  0  0  0  0  0
   44.3900   14.7160    0.5740 C   0  0  0  0  0  0  0  0  0  0  0  0
   45.1470   13.2150    0.8650 S   0  0  0  0  0  0  0  0  0  0  0  0
   45.7660   13.7410    2.3880 C   0  0  0  0  0  0  0  0  0  0  0  0
   46.5890   12.7480    3.3190 C   0  0  0  0  0  0  0  0  0  0  0  0
   46.8330   11.5740    2.9050 O   0  0  0  0  0  0  0  0  0  0  0  0
   46.9450   13.2090    4.4550 O   0  0  0  0  0  0  0  0  0  0  0  0
   46.7100   17.4181    2.9641 H   0  0  0  0  0  0  0  0  0  0  0  0
   47.7172   15.9201    3.1036 H   0  0  0  0  0  0  0  0  0  0  0  0
   43.8054   14.9511   -0.3277 H   0  0  0  0  0  0  0  0  0  0  0  0
  1  2  2  0
  2  3  1  0
  2  4  1  0
  4  5  1  0
  5  6  1  0
  6  7  1  0
  7  8  1  0
  7  9  2  0
  9 10  1  0
 10 11  1  0
 11 12  1  0
 12 13  2  0
 12 14  1  0
 11  6  2  0
  4 15  1  0
  4 16  1  0
  9 17  1  0
M  CHG  2   3  -1  14  -1
M  END
>  <meeko>  (3) 
{"is_sidechain": [false], "free_energy": -5.4, "intermolecular_energy": -6.849, "internal_energy": -0.03}

$$$$
2hb1_ligand
     RDKit          3D

 17 17  0  0  0  0  0  0  0  0999 V2000
   46.2370   14.6730    5.5480 O   0  0  0  0  0  0  0  0  0  0  0  0
   46.9330   14.8510    4.5010 C   0  0  0  0  0  0  0  0  0  0  0  0
   47.9420   15.6100    4.3650 O   0  0  0  0  0  0  0  0  0  0  0  0
   46.4480   14.1110    3.2360 C   0  0  0  0  0  0  0  0  0  0  0  0
   45.0230   14.2640    3.0490 O   0  0  0  0  0  0  0  0  0  0  0  0
   44.7190   14.6760    1.7930 C   0  0  0  0  0  0  0  0  0  0  0  0
   44.7390   13.8150    0.6580 C   0  0  0  0  0  0  0  0  0  0  0  0
   45.1780   11.9770    0.7390 Br  0  0  0  0  0  0  0  0  0  0  0  0
   44.4250   14.4540   -0.5140 C   0  0  0  0  0  0  0  0  0  0  0  0
   44.1640   16.1210   -0.2650 S   0  0  0  0  0  0  0  0  0  0  0  0
   44.4740   15.9900    1.4280 C   0  0  0  0  0  0  0  0  0  0  0  0
   44.4660   17.2800    2.3600 C   0  0  0  0  0  0  0  0  0  0  0  0
   45.3610   17.4030    3.2500 O   0  0  0  0  0  0  0  0  0  0  0  0
   43.5250   18.1170    2.1500 O   0  0  0  0  0  0  0  0  0  0  0  0
   46.9701   14.5214    2.3591 H   0  0  0  0  0  0  0  0  0  0  0  0
   46.6683   13.0400    3.3557 H   0  0  0  0  0  0  0  0  0  0  0  0
   44.3508   13.9545   -1.4913 H   0  0  0  0  0  0  0  0  0  0  0  0
  1  2  2  0
  2  3  1  0
  2  4  1  0
  4  5  1  0
  5  6  1  0
  6  7  1  0
  7  8  1  0
  7  9  2  0
  9 10  1  0
 10 11  1  0
 11 12  1  0
 12 13  2  0
 12 14  1  0
 11  6  2  0
  4 15  1  0
  4 16  1  0
  9 17  1  0
M  CHG  2   3  -1  14  -1
M  END
>  <meeko>  (4) 
{"is_sidechain": [false], "free_energy": -5.349, "intermolecular_energy": -6.703, "internal_energy": -0.113}

$$$$
2hb1_ligand
     RDKit          3D

 17 17  0  0  0  0  0  0  0  0999 V2000
   44.6030   11.3380    1.1080 O   0  0  0  0  0  0  0  0  0  0  0  0
   44.7920   12.0600    0.0800 C   0  0  0  0  0  0  0  0  0  0  0  0
   44.9660   11.6710   -1.1160 O   0  0  0  0  0  0  0  0  0  0  0  0
   44.8900   13.5800    0.3340 C   0  0  0  0  0  0  0  0  0  0  0  0
   44.4010   13.9280    1.6490 O   0  0  0  0  0  0  0  0  0  0  0  0
   45.2350   14.7830    2.2890 C   0  0  0  0  0  0  0  0  0  0  0  0
   46.3210   14.3580    3.1080 C   0  0  0  0  0  0  0  0  0  0  0  0
   46.7620   12.5430    3.4080 Br  0  0  0  0  0  0  0  0  0  0  0  0
   47.0120   15.3960    3.6780 C   0  0  0  0  0  0  0  0  0  0  0  0
   46.3150   16.9010    3.2810 S   0  0  0  0  0  0  0  0  0  0  0  0
   45.0750   16.1590    2.3360 C   0  0  0  0  0  0  0  0  0  0  0  0
   43.9340   17.0360    1.6570 C   0  0  0  0  0  0  0  0  0  0  0  0
   43.3800   16.6130    0.5970 O   0  0  0  0  0  0  0  0  0  0  0  0
   43.6570   18.1400    2.2350 O   0  0  0  0  0  0  0  0  0  0  0  0
   45.9421   13.8897    0.2500 H   0  0  0  0  0  0  0  0  0  0  0  0
   44.2700   14.0964   -0.4136 H   0  0  0  0  0  0  0  0  0  0  0  0
   47.9031   15.2736    4.3112 H   0  0  0  0  0  0  0  0  0  0  0  0
  1  2  2  0
  2  3  1  0
  2  4  1  0
  4  5  1  0
  5  6  1  0
  6  7  1  0
  7  8  1  0
  7  9  2  0
  9 10  1  0
 10 11  1  0
 11 12  1  0
 12 13  2  0
 12 14  1  0
 11  6  2  0
  4 15  1  0
  4 16  1  0
  9 17  1  0
M  CHG  2   3  -1  14  -1
M  END
>  <meeko>  (5) 
{"is_sidechain": [false], "free_energy": -5.234, "intermolecular_energy": -6.526, "internal_energy": -0.148}

$$$$
2hb1_ligand
     RDKit          3D

 17 17  0  0  0  0  0  0  0  0999 V2000
   44.7160   17.3890   -1.1300 O   0  0  0  0  0  0  0  0  0  0  0  0
   44.1670   16.5410   -0.3600 C   0  0  0  0  0  0  0  0  0  0  0  0
   43.1990   15.7660   -0.6300 O   0  0  0  0  0  0  0  0  0  0  0  0
   44.6970   16.5070    1.0900 C   0  0  0  0  0  0  0  0  0  0  0  0
   44.1260   15.4070    1.8340 O   0  0  0  0  0  0  0  0  0  0  0  0
   45.0780   14.6670    2.4540 C   0  0  0  0  0  0  0  0  0  0  0  0
   45.9060   15.1680    3.4990 C   0  0  0  0  0  0  0  0  0  0  0  0
   45.7890   16.9280    4.1810 Br  0  0  0  0  0  0  0  0  0  0  0  0
   46.8170   14.2520    3.9570 C   0  0  0  0  0  0  0  0  0  0  0  0
   46.7260   12.7900    3.0830 S   0  0  0  0  0  0  0  0  0  0  0  0
   45.4540   13.3870    2.0800 C   0  0  0  0  0  0  0  0  0  0  0  0
   44.8670   12.5000    0.8950 C   0  0  0  0  0  0  0  0  0  0  0  0
   44.7750   13.0050   -0.2650 O   0  0  0  0  0  0  0  0  0  0  0  0
   44.5080   11.3150    1.2070 O   0  0  0  0  0  0  0  0  0  0  0  0
   45.7911   16.3951    1.0687 H   0  0  0  0  0  0  0  0  0  0  0  0
   44.4105   17.4463    1.5857 H   0  0  0  0  0  0  0  0  0  0  0  0
   47.5184   14.4365    4.7840 H   0  0  0  0  0  0  0  0  0  0  0  0
  1  2  2  0
  2  3  1  0
  2  4  1  0
  4  5  1  0
  5  6  1  0
  6  7  1  0
  7  8  1  0
  7  9  2  0
  9 10  1  0
 10 11  1  0
 11 12  1  0
 12 13  2  0
 12 14  1  0
 11  6  2  0
  4 15  1  0
  4 16  1  0
  9 17  1  0
M  CHG  2   3  -1  14  -1
M  END
>  <meeko>  (6) 
{"is_sidechain": [false], "free_energy": -4.806, "intermolecular_energy": -6.1, "internal_energy": -0.046}

$$$$
2hb1_ligand
     RDKit          3D

 17 17  0  0  0  0  0  0  0  0999 V2000
   46.2230   14.9830    5.8160 O   0  0  0  0  0  0  0  0  0  0  0  0
   46.4080   15.9150    4.9730 C   0  0  0  0  0  0  0  0  0  0  0  0
   46.5550   17.1530    5.2100 O   0  0  0  0  0  0  0  0  0  0  0  0
   46.3780   15.4940    3.4880 C   0  0  0  0  0  0  0  0  0  0  0  0
   45.2270   14.6700    3.1960 O   0  0  0  0  0  0  0  0  0  0  0  0
   44.9800   14.5990    1.8640 C   0  0  0  0  0  0  0  0  0  0  0  0
   44.4700   15.6880    1.1010 C   0  0  0  0  0  0  0  0  0  0  0  0
   44.0780   17.3900    1.8280 Br  0  0  0  0  0  0  0  0  0  0  0  0
   44.2710   15.3800   -0.2200 C   0  0  0  0  0  0  0  0  0  0  0  0
   44.6380   13.7460   -0.5420 S   0  0  0  0  0  0  0  0  0  0  0  0
   45.0690   13.4450    1.1030 C   0  0  0  0  0  0  0  0  0  0  0  0
   45.4890   11.9860    1.5810 C   0  0  0  0  0  0  0  0  0  0  0  0
   44.7940   10.9920    1.2100 O   0  0  0  0  0  0  0  0  0  0  0  0
   46.5160   11.9180    2.3350 O   0  0  0  0  0  0  0  0  0  0  0  0
   46.3400   16.3969    2.8608 H   0  0  0  0  0  0  0  0  0  0  0  0
   47.2850   14.9089    3.2759 H   0  0  0  0  0  0  0  0  0  0  0  0
   43.9190   16.0965   -0.9768 H   0  0  0  0  0  0  0  0  0  0  0  0
  1  2  2  0
  2  3  1  0
  2  4  1  0
  4  5  1  0
  5  6  1  0
  6  7  1  0
  7  8  1  0
  7  9  2  0
  9 10  1  0
 10 11  1  0
 11 12  1  0
 12 13  2  0
 12 14  1  0
 11  6  2  0
  4 15  1  0
  4 16  1  0
  9 17  1  0
M  CHG  2   3  -1  14  -1
M  END
>  <meeko>  (7) 
{"is_sidechain": [false], "free_energy": -4.516, "intermolecular_energy": -5.738, "internal_energy": -0.05}

$$$$
2hb1_ligand
     RDKit          3D

 17 17  0  0  0  0  0  0  0  0999 V2000
   45.0190   17.3030    3.9480 O   0  0  0  0  0  0  0  0  0  0  0  0
   44.4230   17.0600    2.8530 C   0  0  0  0  0  0  0  0  0  0  0  0
   43.8850   17.8960    2.0640 O   0  0  0  0  0  0  0  0  0  0  0  0
   44.2780   15.5680    2.4830 C   0  0  0  0  0  0  0  0  0  0  0  0
   45.3590   15.1290    1.6290 O   0  0  0  0  0  0  0  0  0  0  0  0
   45.7600   13.8690    1.9280 C   0  0  0  0  0  0  0  0  0  0  0  0
   45.4830   12.7400    1.1040 C   0  0  0  0  0  0  0  0  0  0  0  0
   44.5300   12.8380   -0.5270 Br  0  0  0  0  0  0  0  0  0  0  0  0
   45.9600   11.5620    1.6170 C   0  0  0  0  0  0  0  0  0  0  0  0
   46.6960   11.7960    3.1380 S   0  0  0  0  0  0  0  0  0  0  0  0
   46.3730   13.4920    3.1120 C   0  0  0  0  0  0  0  0  0  0  0  0
   46.7630   14.4140    4.3490 C   0  0  0  0  0  0  0  0  0  0  0  0
   46.1330   14.2770    5.4420 O   0  0  0  0  0  0  0  0  0  0  0  0
   47.6980   15.2590    4.1470 O   0  0  0  0  0  0  0  0  0  0  0  0
   44.2842   14.9683    3.4051 H   0  0  0  0  0  0  0  0  0  0  0  0
   43.3313   15.4367    1.9385 H   0  0  0  0  0  0  0  0  0  0  0  0
   45.8785   10.5884    1.1116 H   0  0  0  0  0  0  0  0  0  0  0  0
  1  2  2  0
  2  3  1  0
  2  4  1  0
  4  5  1  0
  5  6  1  0
  6  7  1  0
  7  8  1  0
  7  9  2  0
  9 10  1  0
 10 11  1  0
 11 12  1  0
 12 13  2  0
 12 14  1  0
 11  6  2  0
  4 15  1  0
  4 16  1  0
  9 17  1  0
M  CHG  2   3  -1  14  -1
M  END
>  <meeko>  (8) 
{"is_sidechain": [false], "free_energy": -4.487, "intermolecular_energy": -5.5, "internal_energy": -0.253}

$$$$
2hb1_ligand
     RDKit          3D

 17 17  0  0  0  0  0  0  0  0999 V2000
   47.1150   10.5940    2.2810 O   0  0  0  0  0  0  0  0  0  0  0  0
   46.1900   11.2510    1.7080 C   0  0  0  0  0  0  0  0  0  0  0  0
   45.3730   10.8310    0.8320 O   0  0  0  0  0  0  0  0  0  0  0  0
   46.1040   12.7480    2.0740 C   0  0  0  0  0  0  0  0  0  0  0  0
   44.7350   13.2130    2.0730 O   0  0  0  0  0  0  0  0  0  0  0  0
   44.6420   14.5130    1.6990 C   0  0  0  0  0  0  0  0  0  0  0  0
   44.4560   14.9310    0.3500 C   0  0  0  0  0  0  0  0  0  0  0  0
   44.2990   13.7360   -1.1090 Br  0  0  0  0  0  0  0  0  0  0  0  0
   44.4190   16.2930    0.2020 C   0  0  0  0  0  0  0  0  0  0  0  0
   44.6730   17.0880    1.6900 S   0  0  0  0  0  0  0  0  0  0  0  0
   44.8350   15.5960    2.5420 C   0  0  0  0  0  0  0  0  0  0  0  0
   45.1760   15.5780    4.0960 C   0  0  0  0  0  0  0  0  0  0  0  0
   44.3520   16.0900    4.9130 O   0  0  0  0  0  0  0  0  0  0  0  0
   46.2910   15.0480    4.4190 O   0  0  0  0  0  0  0  0  0  0  0  0
   46.5318   12.8966    3.0764 H   0  0  0  0  0  0  0  0  0  0  0  0
   46.6652   13.3214    1.3215 H   0  0  0  0  0  0  0  0  0  0  0  0
   44.2473   16.8081   -0.7546 H   0  0  0  0  0  0  0  0  0  0  0  0
  1  2  2  0
  2  3  1  0
  2  4  1  0
  4  5  1  0
  5  6  1  0
  6  7  1  0
  7  8  1  0
  7  9  2  0
  9 10  1  0
 10 11  1  0
 11 12  1  0
 12 13  2  0
 12 14  1  0
 11  6  2  0
  4 15  1  0
  4 16  1  0
  9 17  1  0
M  CHG  2   3  -1  14  -1
M  END
>  <meeko>  (9) 
{"is_sidechain": [false], "free_energy": -4.437, "intermolecular_energy": -5.449, "internal_energy": -0.242}

$$$$
