2xdl_ligand
     RDKit          3D

 33 33  0  0  0  0  0  0  0  0999 V2000
   69.6370   39.2680   27.8980 C   0  0  0  0  0  0  0  0  0  0  0  0
   68.5100   38.4830   28.5520 C   0  0  0  0  0  0  0  0  0  0  0  0
   67.5010   38.0800   27.5740 N   0  0  0  0  0  0  0  0  0  0  0  0
   66.3550   38.9750   27.3880 C   0  0  0  0  0  0  0  0  0  0  0  0
   66.6390   40.0490   26.3490 C   0  0  0  0  0  0  0  0  0  0  0  0
   67.6560   36.8400   26.9540 C   0  0  0  0  0  0  0  0  0  0  0  0
   68.5660   36.0540   27.2050 O   0  0  0  0  0  0  0  0  0  0  0  0
   66.6670   36.4170   25.9460 C   0  0  0  0  0  0  0  0  0  0  0  0
   66.8130   36.8190   24.6150 C   0  0  0  0  0  0  0  0  0  0  0  0
   65.8810   36.3990   23.6690 C   0  0  0  0  0  0  0  0  0  0  0  0
   64.8370   35.5720   24.0680 C   0  0  0  0  0  0  0  0  0  0  0  0
   63.9330   35.1750   23.1190 O   0  0  0  0  0  0  0  0  0  0  0  0
   64.6980   35.1370   25.3950 C   0  0  0  0  0  0  0  0  0  0  0  0
   63.6260   34.3150   25.6270 O   0  0  0  0  0  0  0  0  0  0  0  0
   63.4760   33.8270   26.9550 C   0  0  0  0  0  0  0  0  0  0  0  0
   65.6280   35.5620   26.3410 C   0  0  0  0  0  0  0  0  0  0  0  0
   70.2745   39.7121   28.6767 H   0  0  0  0  0  0  0  0  0  0  0  0
   70.2391   38.5928   27.2722 H   0  0  0  0  0  0  0  0  0  0  0  0
   69.2124   40.0668   27.2722 H   0  0  0  0  0  0  0  0  0  0  0  0
   68.9290   37.5827   29.0252 H   0  0  0  0  0  0  0  0  0  0  0  0
   68.0274   39.1294   29.2998 H   0  0  0  0  0  0  0  0  0  0  0  0
   65.4895   38.3813   27.0588 H   0  0  0  0  0  0  0  0  0  0  0  0
   66.1513   39.4731   28.3474 H   0  0  0  0  0  0  0  0  0  0  0  0
   66.8886   40.9928   26.8560 H   0  0  0  0  0  0  0  0  0  0  0  0
   67.4852   39.7359   25.7198 H   0  0  0  0  0  0  0  0  0  0  0  0
   65.7486   40.1951   25.7198 H   0  0  0  0  0  0  0  0  0  0  0  0
   67.6556   37.4606   24.3178 H   0  0  0  0  0  0  0  0  0  0  0  0
   65.9698   36.7175   22.6199 H   0  0  0  0  0  0  0  0  0  0  0  0
   63.6690   35.9960   22.6610 H   0  0  0  0  0  0  0  0  0  0  0  0
   63.7218   34.6265   27.6694 H   0  0  0  0  0  0  0  0  0  0  0  0
   62.4366   33.5025   27.1112 H   0  0  0  0  0  0  0  0  0  0  0  0
   64.1536   32.9747   27.1112 H   0  0  0  0  0  0  0  0  0  0  0  0
   65.5482   35.2304   27.3868 H   0  0  0  0  0  0  0  0  0  0  0  0
  1  2  1  0
  2  3  1  0
  3  4  1  0
  4  5  1  0
  3  6  1  0
  6  7  2  0
  6  8  1  0
  8  9  2  0
  9 10  1  0
 10 11  2  0
 11 12  1  0
 11 13  1  0
 13 14  1  0
 14 15  1  0
 13 16  2  0
 16  8  1  0
  1 17  1  0
  1 18  1  0
  1 19  1  0
  2 20  1  0
  2 21  1  0
  4 22  1  0
  4 23  1  0
  5 24  1  0
  5 25  1  0
  5 26  1  0
  9 27  1  0
 10 28  1  0
 12 29  1  0
 15 30  1  0
 15 31  1  0
 15 32  1  0
 16 33  1  0
M  END
>  <meeko>  (1) 
{"is_sidechain": [false], "free_energy": -5.535, "intermolecular_energy": -6.992, "internal_energy": -0.36}

$$$$
2xdl_ligand
     RDKit          3D

 33 33  0  0  0  0  0  0  0  0999 V2000
   63.6650   49.0010   26.0690 C   0  0  0  0  0  0  0  0  0  0  0  0
   64.8130   49.6870   26.7920 C   0  0  0  0  0  0  0  0  0  0  0  0
   65.2570   50.8820   26.0770 N   0  0  0  0  0  0  0  0  0  0  0  0
   64.2860   51.9690   25.9240 C   0  0  0  0  0  0  0  0  0  0  0  0
   64.0190   52.6780   27.2440 C   0  0  0  0  0  0  0  0  0  0  0  0
   66.5360   50.8680   25.5200 C   0  0  0  0  0  0  0  0  0  0  0  0
   67.2950   49.9030   25.5630 O   0  0  0  0  0  0  0  0  0  0  0  0
   67.0200   52.0680   24.8130 C   0  0  0  0  0  0  0  0  0  0  0  0
   67.2080   52.0330   23.4270 C   0  0  0  0  0  0  0  0  0  0  0  0
   67.6480   53.1780   22.7700 C   0  0  0  0  0  0  0  0  0  0  0  0
   67.8730   54.3380   23.5050 C   0  0  0  0  0  0  0  0  0  0  0  0
   68.3080   55.4500   22.8350 O   0  0  0  0  0  0  0  0  0  0  0  0
   67.6580   54.3920   24.8910 C   0  0  0  0  0  0  0  0  0  0  0  0
   67.9110   55.6090   25.4690 O   0  0  0  0  0  0  0  0  0  0  0  0
   68.9720   55.6540   26.4160 C   0  0  0  0  0  0  0  0  0  0  0  0
   67.2220   53.2450   25.5480 C   0  0  0  0  0  0  0  0  0  0  0  0
   62.9647   48.5826   26.8069 H   0  0  0  0  0  0  0  0  0  0  0  0
   63.1391   49.7330   25.4385 H   0  0  0  0  0  0  0  0  0  0  0  0
   64.0605   48.1911   25.4385 H   0  0  0  0  0  0  0  0  0  0  0  0
   64.4793   49.9763   27.7994 H   0  0  0  0  0  0  0  0  0  0  0  0
   65.6568   48.9834   26.8467 H   0  0  0  0  0  0  0  0  0  0  0  0
   64.6794   52.6988   25.2010 H   0  0  0  0  0  0  0  0  0  0  0  0
   63.3389   51.5345   25.5715 H   0  0  0  0  0  0  0  0  0  0  0  0
   64.2717   52.0071   28.0783 H   0  0  0  0  0  0  0  0  0  0  0  0
   64.6367   53.5862   27.3039 H   0  0  0  0  0  0  0  0  0  0  0  0
   62.9557   52.9532   27.3039 H   0  0  0  0  0  0  0  0  0  0  0  0
   67.0100   51.1099   22.8625 H   0  0  0  0  0  0  0  0  0  0  0  0
   67.8159   53.1663   21.6830 H   0  0  0  0  0  0  0  0  0  0  0  0
   67.5280   55.7680   22.3400 H   0  0  0  0  0  0  0  0  0  0  0  0
   68.5558   55.6363   27.4341 H   0  0  0  0  0  0  0  0  0  0  0  0
   69.6283   54.7829   26.2730 H   0  0  0  0  0  0  0  0  0  0  0  0
   69.5522   56.5776   26.2730 H   0  0  0  0  0  0  0  0  0  0  0  0
   67.0378   53.2616   26.6323 H   0  0  0  0  0  0  0  0  0  0  0  0
  1  2  1  0
  2  3  1  0
  3  4  1  0
  4  5  1  0
  3  6  1  0
  6  7  2  0
  6  8  1  0
  8  9  2  0
  9 10  1  0
 10 11  2  0
 11 12  1  0
 11 13  1  0
 13 14  1  0
 14 15  1  0
 13 16  2  0
 16  8  1  0
  1 17  1  0
  1 18  1  0
  1 19  1  0
  2 20  1  0
  2 21  1  0
  4 22  1  0
  4 23  1  0
  5 24  1  0
  5 25  1  0
  5 26  1  0
  9 27  1  0
 10 28  1  0
 12 29  1  0
 15 30  1  0
 15 31  1  0
 15 32  1  0
 16 33  1  0
M  END
>  <meeko>  (2) 
{"is_sidechain": [false], "free_energy": -5.533, "intermolecular_energy": -7.093, "internal_energy": -0.256}

$$$$
2xdl_ligand
     RDKit          3D

 33 33  0  0  0  0  0  0  0  0999 V2000
   62.8320   50.8110   27.8260 C   0  0  0  0  0  0  0  0  0  0  0  0
   63.9650   51.5770   28.4900 C   0  0  0  0  0  0  0  0  0  0  0  0
   64.9750   51.9880   27.5160 N   0  0  0  0  0  0  0  0  0  0  0  0
   66.1310   51.1040   27.3380 C   0  0  0  0  0  0  0  0  0  0  0  0
   65.8600   50.0210   26.3050 C   0  0  0  0  0  0  0  0  0  0  0  0
   64.8120   53.2260   26.8950 C   0  0  0  0  0  0  0  0  0  0  0  0
   63.8930   54.0030   27.1390 O   0  0  0  0  0  0  0  0  0  0  0  0
   65.8020   53.6570   25.8910 C   0  0  0  0  0  0  0  0  0  0  0  0
   65.6500   53.2780   24.5530 C   0  0  0  0  0  0  0  0  0  0  0  0
   66.5820   53.7050   23.6130 C   0  0  0  0  0  0  0  0  0  0  0  0
   67.6350   54.5170   24.0220 C   0  0  0  0  0  0  0  0  0  0  0  0
   68.5400   54.9220   23.0780 O   0  0  0  0  0  0  0  0  0  0  0  0
   67.7800   54.9290   25.3560 C   0  0  0  0  0  0  0  0  0  0  0  0
   68.8600   55.7380   25.5980 O   0  0  0  0  0  0  0  0  0  0  0  0
   68.9340   56.3270   26.8920 C   0  0  0  0  0  0  0  0  0  0  0  0
   66.8490   54.4970   26.2970 C   0  0  0  0  0  0  0  0  0  0  0  0
   62.1835   50.3726   28.5988 H   0  0  0  0  0  0  0  0  0  0  0  0
   62.2433   51.4972   27.1994 H   0  0  0  0  0  0  0  0  0  0  0  0
   63.2494   50.0091   27.1994 H   0  0  0  0  0  0  0  0  0  0  0  0
   63.5534   52.4727   28.9781 H   0  0  0  0  0  0  0  0  0  0  0  0
   64.4442   50.9157   29.2269 H   0  0  0  0  0  0  0  0  0  0  0  0
   66.9910   51.7047   27.0069 H   0  0  0  0  0  0  0  0  0  0  0  0
   66.3383   50.6140   28.3008 H   0  0  0  0  0  0  0  0  0  0  0  0
   65.6237   49.0766   26.8172 H   0  0  0  0  0  0  0  0  0  0  0  0
   65.0089   50.3196   25.6754 H   0  0  0  0  0  0  0  0  0  0  0  0
   66.7514   49.8835   25.6754 H   0  0  0  0  0  0  0  0  0  0  0  0
   64.8015   52.6483   24.2472 H   0  0  0  0  0  0  0  0  0  0  0  0
   66.4876   53.4043   22.5591 H   0  0  0  0  0  0  0  0  0  0  0  0
   69.3920   54.9790   23.5510 H   0  0  0  0  0  0  0  0  0  0  0  0
   68.8356   55.5434   27.6577 H   0  0  0  0  0  0  0  0  0  0  0  0
   69.9029   56.8344   27.0091 H   0  0  0  0  0  0  0  0  0  0  0  0
   68.1207   57.0583   27.0091 H   0  0  0  0  0  0  0  0  0  0  0  0
   66.9339   54.8113   27.3477 H   0  0  0  0  0  0  0  0  0  0  0  0
  1  2  1  0
  2  3  1  0
  3  4  1  0
  4  5  1  0
  3  6  1  0
  6  7  2  0
  6  8  1  0
  8  9  2  0
  9 10  1  0
 10 11  2  0
 11 12  1  0
 11 13  1  0
 13 14  1  0
 14 15  1  0
 13 16  2  0
 16  8  1  0
  1 17  1  0
  1 18  1  0
  1 19  1  0
  2 20  1  0
  2 21  1  0
  4 22  1  0
  4 23  1  0
  5 24  1  0
  5 25  1  0
  5 26  1  0
  9 27  1  0
 10 28  1  0
 12 29  1  0
 15 30  1  0
 15 31  1  0
 15 32  1  0
 16 33  1  0
M  END
>  <meeko>  (3) 
{"is_sidechain": [false], "free_energy": -5.523, "intermolecular_energy": -6.959, "internal_energy": -0.377}

$$$$
2xdl_ligand
     RDKit          3D

 33 33  0  0  0  0  0  0  0  0999 V2000
   68.8000   41.0110   26.0210 C   0  0  0  0  0  0  0  0  0  0  0  0
   67.6460   40.3320   26.7420 C   0  0  0  0  0  0  0  0  0  0  0  0
   67.1800   39.1540   26.0120 N   0  0  0  0  0  0  0  0  0  0  0  0
   68.1370   38.0590   25.8290 C   0  0  0  0  0  0  0  0  0  0  0  0
   68.4140   37.3280   27.1340 C   0  0  0  0  0  0  0  0  0  0  0  0
   65.8940   39.1930   25.4710 C   0  0  0  0  0  0  0  0  0  0  0  0
   65.1470   40.1650   25.5400 O   0  0  0  0  0  0  0  0  0  0  0  0
   65.3880   38.0110   24.7500 C   0  0  0  0  0  0  0  0  0  0  0  0
   65.1850   38.0700   23.3680 C   0  0  0  0  0  0  0  0  0  0  0  0
   64.7230   36.9420   22.6970 C   0  0  0  0  0  0  0  0  0  0  0  0
   64.4930   35.7730   23.4150 C   0  0  0  0  0  0  0  0  0  0  0  0
   64.0360   34.6780   22.7320 O   0  0  0  0  0  0  0  0  0  0  0  0
   64.7220   35.6930   24.7970 C   0  0  0  0  0  0  0  0  0  0  0  0
   64.4620   34.4690   25.3580 O   0  0  0  0  0  0  0  0  0  0  0  0
   63.5540   34.4540   26.4540 C   0  0  0  0  0  0  0  0  0  0  0  0
   65.1800   36.8240   25.4680 C   0  0  0  0  0  0  0  0  0  0  0  0
   69.5020   41.4241   26.7603 H   0  0  0  0  0  0  0  0  0  0  0  0
   69.3218   40.2760   25.3906 H   0  0  0  0  0  0  0  0  0  0  0  0
   68.4109   41.8241   25.3906 H   0  0  0  0  0  0  0  0  0  0  0  0
   67.9815   40.0231   27.7430 H   0  0  0  0  0  0  0  0  0  0  0  0
   66.8133   41.0472   26.8128 H   0  0  0  0  0  0  0  0  0  0  0  0
   67.7257   37.3444   25.1008 H   0  0  0  0  0  0  0  0  0  0  0  0
   69.0838   38.4884   25.4695 H   0  0  0  0  0  0  0  0  0  0  0  0
   68.1655   37.9838   27.9815 H   0  0  0  0  0  0  0  0  0  0  0  0
   67.7985   36.4176   27.1821 H   0  0  0  0  0  0  0  0  0  0  0  0
   69.4783   37.0541   27.1821 H   0  0  0  0  0  0  0  0  0  0  0  0
   65.3886   38.9996   22.8162 H   0  0  0  0  0  0  0  0  0  0  0  0
   64.5419   36.9743   21.6125 H   0  0  0  0  0  0  0  0  0  0  0  0
   63.9510   33.9760   23.4060 H   0  0  0  0  0  0  0  0  0  0  0  0
   64.1186   34.4633   27.3980 H   0  0  0  0  0  0  0  0  0  0  0  0
   62.9060   35.3416   26.4055 H   0  0  0  0  0  0  0  0  0  0  0  0
   62.9357   33.5455   26.4055 H   0  0  0  0  0  0  0  0  0  0  0  0
   65.3766   36.7870   26.5497 H   0  0  0  0  0  0  0  0  0  0  0  0
  1  2  1  0
  2  3  1  0
  3  4  1  0
  4  5  1  0
  3  6  1  0
  6  7  2  0
  6  8  1  0
  8  9  2  0
  9 10  1  0
 10 11  2  0
 11 12  1  0
 11 13  1  0
 13 14  1  0
 14 15  1  0
 13 16  2  0
 16  8  1  0
  1 17  1  0
  1 18  1  0
  1 19  1  0
  2 20  1  0
  2 21  1  0
  4 22  1  0
  4 23  1  0
  5 24  1  0
  5 25  1  0
  5 26  1  0
  9 27  1  0
 10 28  1  0
 12 29  1  0
 15 30  1  0
 15 31  1  0
 15 32  1  0
 16 33  1  0
M  END
>  <meeko>  (4) 
{"is_sidechain": [false], "free_energy": -5.493, "intermolecular_energy": -7.045, "internal_energy": -0.254}

$$$$
2xdl_ligand
     RDKit          3D

 33 33  0  0  0  0  0  0  0  0999 V2000
   69.4740   39.0730   27.8020 C   0  0  0  0  0  0  0  0  0  0  0  0
   68.3820   38.2460   28.4630 C   0  0  0  0  0  0  0  0  0  0  0  0
   67.3650   37.8340   27.4980 N   0  0  0  0  0  0  0  0  0  0  0  0
   66.1920   38.7010   27.3510 C   0  0  0  0  0  0  0  0  0  0  0  0
   66.4780   39.8870   26.4420 C   0  0  0  0  0  0  0  0  0  0  0  0
   67.5400   36.6080   26.8540 C   0  0  0  0  0  0  0  0  0  0  0  0
   68.4750   35.8430   27.0730 O   0  0  0  0  0  0  0  0  0  0  0  0
   66.5420   36.1770   25.8580 C   0  0  0  0  0  0  0  0  0  0  0  0
   65.6260   35.1690   26.1790 C   0  0  0  0  0  0  0  0  0  0  0  0
   64.6790   34.7840   25.2350 C   0  0  0  0  0  0  0  0  0  0  0  0
   64.6510   35.4240   24.0010 C   0  0  0  0  0  0  0  0  0  0  0  0
   63.7100   35.0240   23.0900 O   0  0  0  0  0  0  0  0  0  0  0  0
   65.5450   36.4570   23.6800 C   0  0  0  0  0  0  0  0  0  0  0  0
   65.3820   36.9970   22.4300 O   0  0  0  0  0  0  0  0  0  0  0  0
   65.7680   38.3580   22.2720 C   0  0  0  0  0  0  0  0  0  0  0  0
   66.4960   36.8390   24.6230 C   0  0  0  0  0  0  0  0  0  0  0  0
   70.0966   39.5445   28.5767 H   0  0  0  0  0  0  0  0  0  0  0  0
   70.0998   38.4203   27.1756 H   0  0  0  0  0  0  0  0  0  0  0  0
   69.0154   39.8523   27.1756 H   0  0  0  0  0  0  0  0  0  0  0  0
   68.8344   37.3488   28.9107 H   0  0  0  0  0  0  0  0  0  0  0  0
   67.8975   38.8653   29.2323 H   0  0  0  0  0  0  0  0  0  0  0  0
   65.3666   38.1140   26.9218 H   0  0  0  0  0  0  0  0  0  0  0  0
   65.9255   39.0882   28.3455 H   0  0  0  0  0  0  0  0  0  0  0  0
   66.6922   40.7752   27.0546 H   0  0  0  0  0  0  0  0  0  0  0  0
   67.3474   39.6611   25.8071 H   0  0  0  0  0  0  0  0  0  0  0  0
   65.6012   40.0822   25.8071 H   0  0  0  0  0  0  0  0  0  0  0  0
   65.6543   34.6862   27.1670 H   0  0  0  0  0  0  0  0  0  0  0  0
   63.9608   33.9825   25.4624 H   0  0  0  0  0  0  0  0  0  0  0  0
   62.9080   35.5350   23.3140 H   0  0  0  0  0  0  0  0  0  0  0  0
   65.8988   38.8193   23.2620 H   0  0  0  0  0  0  0  0  0  0  0  0
   66.7158   38.4081   21.7160 H   0  0  0  0  0  0  0  0  0  0  0  0
   64.9877   38.8983   21.7160 H   0  0  0  0  0  0  0  0  0  0  0  0
   67.2036   37.6515   24.4012 H   0  0  0  0  0  0  0  0  0  0  0  0
  1  2  1  0
  2  3  1  0
  3  4  1  0
  4  5  1  0
  3  6  1  0
  6  7  2  0
  6  8  1  0
  8  9  2  0
  9 10  1  0
 10 11  2  0
 11 12  1  0
 11 13  1  0
 13 14  1  0
 14 15  1  0
 13 16  2  0
 16  8  1  0
  1 17  1  0
  1 18  1  0
  1 19  1  0
  2 20  1  0
  2 21  1  0
  4 22  1  0
  4 23  1  0
  5 24  1  0
  5 25  1  0
  5 26  1  0
  9 27  1  0
 10 28  1  0
 12 29  1  0
 15 30  1  0
 15 31  1  0
 15 32  1  0
 16 33  1  0
M  END
>  <meeko>  (5) 
{"is_sidechain": [false], "free_energy": -5.249, "intermolecular_energy": -6.848, "internal_energy": -0.142}

$$$$
2xdl_ligand
     RDKit          3D

 33 33  0  0  0  0  0  0  0  0999 V2000
   62.9830   51.0560   27.8020 C   0  0  0  0  0  0  0  0  0  0  0  0
   64.0670   51.8830   28.4760 C   0  0  0  0  0  0  0  0  0  0  0  0
   65.0840   52.3130   27.5190 N   0  0  0  0  0  0  0  0  0  0  0  0
   66.2570   51.4480   27.3570 C   0  0  0  0  0  0  0  0  0  0  0  0
   65.9490   50.2390   26.4870 C   0  0  0  0  0  0  0  0  0  0  0  0
   64.9110   53.5500   26.8990 C   0  0  0  0  0  0  0  0  0  0  0  0
   63.9760   54.3120   27.1320 O   0  0  0  0  0  0  0  0  0  0  0  0
   65.9090   53.9990   25.9110 C   0  0  0  0  0  0  0  0  0  0  0  0
   66.7960   55.0310   26.2360 C   0  0  0  0  0  0  0  0  0  0  0  0
   67.7450   55.4340   25.3010 C   0  0  0  0  0  0  0  0  0  0  0  0
   67.8020   54.7870   24.0710 C   0  0  0  0  0  0  0  0  0  0  0  0
   68.7440   55.2040   23.1690 O   0  0  0  0  0  0  0  0  0  0  0  0
   66.9380   53.7300   23.7470 C   0  0  0  0  0  0  0  0  0  0  0  0
   67.1290   53.1860   22.5030 O   0  0  0  0  0  0  0  0  0  0  0  0
   66.2060   52.1790   22.1020 C   0  0  0  0  0  0  0  0  0  0  0  0
   65.9860   53.3300   24.6810 C   0  0  0  0  0  0  0  0  0  0  0  0
   62.3563   50.5779   28.5692 H   0  0  0  0  0  0  0  0  0  0  0  0
   62.3596   51.7101   27.1747 H   0  0  0  0  0  0  0  0  0  0  0  0
   63.4491   50.2819   27.1747 H   0  0  0  0  0  0  0  0  0  0  0  0
   63.6069   52.7718   28.9324 H   0  0  0  0  0  0  0  0  0  0  0  0
   64.5534   51.2585   29.2398 H   0  0  0  0  0  0  0  0  0  0  0  0
   67.0655   52.0280   26.8879 H   0  0  0  0  0  0  0  0  0  0  0  0
   66.5567   51.0869   28.3519 H   0  0  0  0  0  0  0  0  0  0  0  0
   65.7283   49.3727   27.1280 H   0  0  0  0  0  0  0  0  0  0  0  0
   65.0776   50.4567   25.8519 H   0  0  0  0  0  0  0  0  0  0  0  0
   66.8183   50.0132   25.8519 H   0  0  0  0  0  0  0  0  0  0  0  0
   66.7439   55.5189   27.2205 H   0  0  0  0  0  0  0  0  0  0  0  0
   68.4412   56.2538   25.5319 H   0  0  0  0  0  0  0  0  0  0  0  0
   68.9820   56.1080   23.4500 H   0  0  0  0  0  0  0  0  0  0  0  0
   65.7709   51.7043   22.9938 H   0  0  0  0  0  0  0  0  0  0  0  0
   65.4049   52.6342   21.5012 H   0  0  0  0  0  0  0  0  0  0  0  0
   66.7291   51.4204   21.5012 H   0  0  0  0  0  0  0  0  0  0  0  0
   65.3019   52.4984   24.4565 H   0  0  0  0  0  0  0  0  0  0  0  0
  1  2  1  0
  2  3  1  0
  3  4  1  0
  4  5  1  0
  3  6  1  0
  6  7  2  0
  6  8  1  0
  8  9  2  0
  9 10  1  0
 10 11  2  0
 11 12  1  0
 11 13  1  0
 13 14  1  0
 14 15  1  0
 13 16  2  0
 16  8  1  0
  1 17  1  0
  1 18  1  0
  1 19  1  0
  2 20  1  0
  2 21  1  0
  4 22  1  0
  4 23  1  0
  5 24  1  0
  5 25  1  0
  5 26  1  0
  9 27  1  0
 10 28  1  0
 12 29  1  0
 15 30  1  0
 15 31  1  0
 15 32  1  0
 16 33  1  0
M  END
>  <meeko>  (6) 
{"is_sidechain": [false], "free_energy": -5.215, "intermolecular_energy": -6.857, "internal_energy": -0.091}

$$$$
2xdl_ligand
     RDKit          3D

 33 33  0  0  0  0  0  0  0  0999 V2000
   68.5150   38.5760   28.2340 C   0  0  0  0  0  0  0  0  0  0  0  0
   67.0690   38.3520   27.8200 C   0  0  0  0  0  0  0  0  0  0  0  0
   66.9700   37.9470   26.4190 N   0  0  0  0  0  0  0  0  0  0  0  0
   67.3270   36.5620   26.0970 C   0  0  0  0  0  0  0  0  0  0  0  0
   66.1520   35.6160   26.2920 C   0  0  0  0  0  0  0  0  0  0  0  0
   66.6310   38.9250   25.4830 C   0  0  0  0  0  0  0  0  0  0  0  0
   66.4440   40.1060   25.7600 O   0  0  0  0  0  0  0  0  0  0  0  0
   66.5010   38.5410   24.0660 C   0  0  0  0  0  0  0  0  0  0  0  0
   65.2880   38.0350   23.5890 C   0  0  0  0  0  0  0  0  0  0  0  0
   65.1730   37.6920   22.2440 C   0  0  0  0  0  0  0  0  0  0  0  0
   66.2640   37.8800   21.4020 C   0  0  0  0  0  0  0  0  0  0  0  0
   66.1250   37.5330   20.0840 O   0  0  0  0  0  0  0  0  0  0  0  0
   67.4760   38.4160   21.8630 C   0  0  0  0  0  0  0  0  0  0  0  0
   68.4500   38.5520   20.9090 O   0  0  0  0  0  0  0  0  0  0  0  0
   68.7690   39.8820   20.5140 C   0  0  0  0  0  0  0  0  0  0  0  0
   67.5910   38.7540   23.2090 C   0  0  0  0  0  0  0  0  0  0  0  0
   68.5846   38.5868   29.3317 H   0  0  0  0  0  0  0  0  0  0  0  0
   69.1407   37.7641   27.8349 H   0  0  0  0  0  0  0  0  0  0  0  0
   68.8657   39.5392   27.8349 H   0  0  0  0  0  0  0  0  0  0  0  0
   66.6343   37.5634   28.4517 H   0  0  0  0  0  0  0  0  0  0  0  0
   66.5233   39.2989   27.9452 H   0  0  0  0  0  0  0  0  0  0  0  0
   67.6531   36.5131   25.0476 H   0  0  0  0  0  0  0  0  0  0  0  0
   68.1337   36.2500   26.7766 H   0  0  0  0  0  0  0  0  0  0  0  0
   65.9723   35.4713   27.3675 H   0  0  0  0  0  0  0  0  0  0  0  0
   65.2537   36.0459   25.8247 H   0  0  0  0  0  0  0  0  0  0  0  0
   66.3802   34.6467   25.8247 H   0  0  0  0  0  0  0  0  0  0  0  0
   64.4329   37.9090   24.2693 H   0  0  0  0  0  0  0  0  0  0  0  0
   64.2319   37.2780   21.8529 H   0  0  0  0  0  0  0  0  0  0  0  0
   66.1690   38.3770   19.5940 H   0  0  0  0  0  0  0  0  0  0  0  0
   68.9183   40.5044   21.4086 H   0  0  0  0  0  0  0  0  0  0  0  0
   69.6910   39.8752   19.9141 H   0  0  0  0  0  0  0  0  0  0  0  0
   67.9442   40.2941   19.9141 H   0  0  0  0  0  0  0  0  0  0  0  0
   68.5267   39.1835   23.5962 H   0  0  0  0  0  0  0  0  0  0  0  0
  1  2  1  0
  2  3  1  0
  3  4  1  0
  4  5  1  0
  3  6  1  0
  6  7  2  0
  6  8  1  0
  8  9  2  0
  9 10  1  0
 10 11  2  0
 11 12  1  0
 11 13  1  0
 13 14  1  0
 14 15  1  0
 13 16  2  0
 16  8  1  0
  1 17  1  0
  1 18  1  0
  1 19  1  0
  2 20  1  0
  2 21  1  0
  4 22  1  0
  4 23  1  0
  5 24  1  0
  5 25  1  0
  5 26  1  0
  9 27  1  0
 10 28  1  0
 12 29  1  0
 15 30  1  0
 15 31  1  0
 15 32  1  0
 16 33  1  0
M  END
>  <meeko>  (7) 
{"is_sidechain": [false], "free_energy": -5.18, "intermolecular_energy": -6.401, "internal_energy": -0.502}

$$$$
2xdl_ligand
     RDKit          3D

 33 33  0  0  0  0  0  0  0  0999 V2000
   61.9550   47.5640   23.1560 C   0  0  0  0  0  0  0  0  0  0  0  0
   62.6380   47.1340   24.4450 C   0  0  0  0  0  0  0  0  0  0  0  0
   62.4240   48.1080   25.5130 N   0  0  0  0  0  0  0  0  0  0  0  0
   61.0530   48.5810   25.7230 C   0  0  0  0  0  0  0  0  0  0  0  0
   60.2330   47.5930   26.5380 C   0  0  0  0  0  0  0  0  0  0  0  0
   63.5460   48.5810   26.1950 C   0  0  0  0  0  0  0  0  0  0  0  0
   64.7000   48.2550   25.9300 O   0  0  0  0  0  0  0  0  0  0  0  0
   63.3600   49.5460   27.2930 C   0  0  0  0  0  0  0  0  0  0  0  0
   62.9380   49.1000   28.5500 C   0  0  0  0  0  0  0  0  0  0  0  0
   62.7820   50.0190   29.5840 C   0  0  0  0  0  0  0  0  0  0  0  0
   63.0690   51.3600   29.3470 C   0  0  0  0  0  0  0  0  0  0  0  0
   62.9050   52.2440   30.3800 O   0  0  0  0  0  0  0  0  0  0  0  0
   63.5220   51.8140   28.0990 C   0  0  0  0  0  0  0  0  0  0  0  0
   63.7750   53.1590   28.0290 O   0  0  0  0  0  0  0  0  0  0  0  0
   64.5970   53.5950   26.9520 C   0  0  0  0  0  0  0  0  0  0  0  0
   63.6730   50.8940   27.0650 C   0  0  0  0  0  0  0  0  0  0  0  0
   61.0465   48.1360   23.3956 H   0  0  0  0  0  0  0  0  0  0  0  0
   62.6408   48.1936   22.5700 H   0  0  0  0  0  0  0  0  0  0  0  0
   61.6837   46.6735   22.5700 H   0  0  0  0  0  0  0  0  0  0  0  0
   62.2292   46.1624   24.7596 H   0  0  0  0  0  0  0  0  0  0  0  0
   63.7191   47.0601   24.2557 H   0  0  0  0  0  0  0  0  0  0  0  0
   61.0859   49.5422   26.2570 H   0  0  0  0  0  0  0  0  0  0  0  0
   60.5750   48.6916   24.7385 H   0  0  0  0  0  0  0  0  0  0  0  0
   60.3903   47.7825   27.6101 H   0  0  0  0  0  0  0  0  0  0  0  0
   59.1667   47.7145   26.2967 H   0  0  0  0  0  0  0  0  0  0  0  0
   60.5489   46.5673   26.2967 H   0  0  0  0  0  0  0  0  0  0  0  0
   62.7313   48.0330   28.7198 H   0  0  0  0  0  0  0  0  0  0  0  0
   62.4365   49.6896   30.5750 H   0  0  0  0  0  0  0  0  0  0  0  0
   63.0350   53.1260   29.9810 H   0  0  0  0  0  0  0  0  0  0  0  0
   65.5020   54.0751   27.3525 H   0  0  0  0  0  0  0  0  0  0  0  0
   64.8830   52.7300   26.3355 H   0  0  0  0  0  0  0  0  0  0  0  0
   64.0413   54.3169   26.3355 H   0  0  0  0  0  0  0  0  0  0  0  0
   64.0343   51.2212   26.0789 H   0  0  0  0  0  0  0  0  0  0  0  0
  1  2  1  0
  2  3  1  0
  3  4  1  0
  4  5  1  0
  3  6  1  0
  6  7  2  0
  6  8  1  0
  8  9  2  0
  9 10  1  0
 10 11  2  0
 11 12  1  0
 11 13  1  0
 13 14  1  0
 14 15  1  0
 13 16  2  0
 16  8  1  0
  1 17  1  0
  1 18  1  0
  1 19  1  0
  2 20  1  0
  2 21  1  0
  4 22  1  0
  4 23  1  0
  5 24  1  0
  5 25  1  0
  5 26  1  0
  9 27  1  0
 10 28  1  0
 12 29  1  0
 15 30  1  0
 15 31  1  0
 15 32  1  0
 16 33  1  0
M  END
>  <meeko>  (8) 
{"is_sidechain": [false], "free_energy": -5.095, "intermolecular_energy": -6.355, "internal_energy": -0.441}

$$$$
2xdl_ligand
     RDKit          3D

 33 33  0  0  0  0  0  0  0  0999 V2000
   70.5740   42.4980   23.1520 C   0  0  0  0  0  0  0  0  0  0  0  0
   69.9240   42.9810   24.4390 C   0  0  0  0  0  0  0  0  0  0  0  0
   70.0940   42.0130   25.5200 N   0  0  0  0  0  0  0  0  0  0  0  0
   71.4550   41.5350   25.7820 C   0  0  0  0  0  0  0  0  0  0  0  0
   72.2580   42.5370   26.5970 C   0  0  0  0  0  0  0  0  0  0  0  0
   68.9460   41.5500   26.1630 C   0  0  0  0  0  0  0  0  0  0  0  0
   67.8040   41.8790   25.8550 O   0  0  0  0  0  0  0  0  0  0  0  0
   69.0880   40.5900   27.2740 C   0  0  0  0  0  0  0  0  0  0  0  0
   69.4720   41.0410   28.5410 C   0  0  0  0  0  0  0  0  0  0  0  0
   69.5860   40.1280   29.5850 C   0  0  0  0  0  0  0  0  0  0  0  0
   69.2960   38.7880   29.3480 C   0  0  0  0  0  0  0  0  0  0  0  0
   69.4170   37.9100   30.3910 O   0  0  0  0  0  0  0  0  0  0  0  0
   68.8800   38.3300   28.0880 C   0  0  0  0  0  0  0  0  0  0  0  0
   68.6180   36.9860   28.0190 O   0  0  0  0  0  0  0  0  0  0  0  0
   67.7810   36.5570   26.9500 C   0  0  0  0  0  0  0  0  0  0  0  0
   68.7710   39.2440   27.0440 C   0  0  0  0  0  0  0  0  0  0  0  0
   71.4353   41.8580   23.3940 H   0  0  0  0  0  0  0  0  0  0  0  0
   69.8428   41.9224   22.5655 H   0  0  0  0  0  0  0  0  0  0  0  0
   70.9141   43.3642   22.5655 H   0  0  0  0  0  0  0  0  0  0  0  0
   70.3853   43.9342   24.7367 H   0  0  0  0  0  0  0  0  0  0  0  0
   68.8469   43.1081   24.2554 H   0  0  0  0  0  0  0  0  0  0  0  0
   71.3988   40.5874   26.3378 H   0  0  0  0  0  0  0  0  0  0  0  0
   71.9610   41.3966   24.8152 H   0  0  0  0  0  0  0  0  0  0  0  0
   72.1040   42.3449   27.6691 H   0  0  0  0  0  0  0  0  0  0  0  0
   73.3262   42.4337   26.3557 H   0  0  0  0  0  0  0  0  0  0  0  0
   71.9245   43.5571   26.3557 H   0  0  0  0  0  0  0  0  0  0  0  0
   69.6819   42.1074   28.7106 H   0  0  0  0  0  0  0  0  0  0  0  0
   69.9013   40.4614   30.5847 H   0  0  0  0  0  0  0  0  0  0  0  0
   70.3230   37.5510   30.3150 H   0  0  0  0  0  0  0  0  0  0  0  0
   66.8725   36.0914   27.3598 H   0  0  0  0  0  0  0  0  0  0  0  0
   67.5022   37.4234   26.3322 H   0  0  0  0  0  0  0  0  0  0  0  0
   68.3216   35.8248   26.3322 H   0  0  0  0  0  0  0  0  0  0  0  0
   68.4395   38.9135   26.0486 H   0  0  0  0  0  0  0  0  0  0  0  0
  1  2  1  0
  2  3  1  0
  3  4  1  0
  4  5  1  0
  3  6  1  0
  6  7  2  0
  6  8  1  0
  8  9  2  0
  9 10  1  0
 10 11  2  0
 11 12  1  0
 11 13  1  0
 13 14  1  0
 14 15  1  0
 13 16  2  0
 16  8  1  0
  1 17  1  0
  1 18  1  0
  1 19  1  0
  2 20  1  0
  2 21  1  0
  4 22  1  0
  4 23  1  0
  5 24  1  0
  5 25  1  0
  5 26  1  0
  9 27  1  0
 10 28  1  0
 12 29  1  0
 15 30  1  0
 15 31  1  0
 15 32  1  0
 16 33  1  0
M  END
>  <meeko>  (9) 
{"is_sidechain": [false], "free_energy": -5.087, "intermolecular_energy": -6.341, "internal_energy": -0.445}

$$$$
