4ddh_ligand
     RDKit          3D

 24 25  0  0  0  0  0  0  0  0999 V2000
   13.8210    9.5450   -4.2320 C   0  0  0  0  0  0  0  0  0  0  0  0
   13.8810    8.8230   -3.0100 O   0  0  0  0  0  0  0  0  0  0  0  0
   14.6030    9.3970   -1.9940 C   0  0  0  0  0  0  0  0  0  0  0  0
   15.8280    9.9460   -2.3950 C   0  0  0  0  0  0  0  0  0  0  0  0
   16.6870   10.5730   -1.4800 C   0  0  0  0  0  0  0  0  0  0  0  0
   16.2970   10.6500   -0.1340 C   0  0  0  0  0  0  0  0  0  0  0  0
   16.8610   11.1910    1.0620 C   0  0  0  0  0  0  0  0  0  0  0  0
   18.1460   11.9330    1.2080 C   0  0  0  0  0  0  0  0  0  0  0  0
   19.3520   11.0310    0.9460 C   0  0  0  0  0  0  0  0  0  0  0  0
   20.1870   11.4730    0.1030 O   0  0  0  0  0  0  0  0  0  0  0  0
   19.3470    9.9280    1.5660 O   0  0  0  0  0  0  0  0  0  0  0  0
   15.9580   10.8930    2.0630 C   0  0  0  0  0  0  0  0  0  0  0  0
   14.8710   10.2430    1.5690 O   0  0  0  0  0  0  0  0  0  0  0  0
   15.0810   10.0900    0.2320 C   0  0  0  0  0  0  0  0  0  0  0  0
   14.2040    9.4610   -0.6530 C   0  0  0  0  0  0  0  0  0  0  0  0
   13.7316   10.6204   -4.0185 H   0  0  0  0  0  0  0  0  0  0  0  0
   14.7375    9.3612   -4.8119 H   0  0  0  0  0  0  0  0  0  0  0  0
   12.9474    9.2125   -4.8119 H   0  0  0  0  0  0  0  0  0  0  0  0
   16.1234    9.8839   -3.4528 H   0  0  0  0  0  0  0  0  0  0  0  0
   17.6470   10.9958   -1.8109 H   0  0  0  0  0  0  0  0  0  0  0  0
   18.1606   12.7656    0.4893 H   0  0  0  0  0  0  0  0  0  0  0  0
   18.2127   12.3035    2.2416 H   0  0  0  0  0  0  0  0  0  0  0  0
   16.0998   11.1486    3.1235 H   0  0  0  0  0  0  0  0  0  0  0  0
   13.2473    9.0368   -0.3142 H   0  0  0  0  0  0  0  0  0  0  0  0
  1  2  1  0
  2  3  1  0
  3  4  2  0
  4  5  1  0
  5  6  2  0
  6  7  1  0
  7  8  1  0
  8  9  1  0
  9 10  2  0
  9 11  1  0
  7 12  2  0
 12 13  1  0
 13 14  1  0
 14 15  2  0
 15  3  1  0
 14  6  1  0
  1 16  1  0
  1 17  1  0
  1 18  1  0
  4 19  1  0
  5 20  1  0
  8 21  1  0
  8 22  1  0
 12 23  1  0
 15 24  1  0
M  CHG  1  11  -1
M  END
>  <meeko>  (1) 
{"is_sidechain": [false], "free_energy": -6.838, "intermolecular_energy": -8.037, "internal_energy": -0.27}

$$$$
4ddh_ligand
     RDKit          3D

 24 25  0  0  0  0  0  0  0  0999 V2000
   15.1520    9.7400   -5.3920 C   0  0  0  0  0  0  0  0  0  0  0  0
   13.9690    9.8780   -4.6180 O   0  0  0  0  0  0  0  0  0  0  0  0
   14.1350    9.9920   -3.2600 C   0  0  0  0  0  0  0  0  0  0  0  0
   12.9380   10.0650   -2.5360 C   0  0  0  0  0  0  0  0  0  0  0  0
   12.9310   10.1810   -1.1380 C   0  0  0  0  0  0  0  0  0  0  0  0
   14.1600   10.2200   -0.4590 C   0  0  0  0  0  0  0  0  0  0  0  0
   14.5670   10.3200    0.9060 C   0  0  0  0  0  0  0  0  0  0  0  0
   13.6960   10.3850    2.1150 C   0  0  0  0  0  0  0  0  0  0  0  0
   13.2270    8.9960    2.5480 C   0  0  0  0  0  0  0  0  0  0  0  0
   13.9370    8.4370    3.4350 O   0  0  0  0  0  0  0  0  0  0  0  0
   12.2150    8.5500    1.9330 O   0  0  0  0  0  0  0  0  0  0  0  0
   15.9480   10.3350    0.8780 C   0  0  0  0  0  0  0  0  0  0  0  0
   16.4170   10.2170   -0.3930 O   0  0  0  0  0  0  0  0  0  0  0  0
   15.3270   10.1530   -1.2080 C   0  0  0  0  0  0  0  0  0  0  0  0
   15.3680   10.0350   -2.5980 C   0  0  0  0  0  0  0  0  0  0  0  0
   16.0187    9.6389   -4.7222 H   0  0  0  0  0  0  0  0  0  0  0  0
   15.0727    8.8450   -6.0266 H   0  0  0  0  0  0  0  0  0  0  0  0
   15.2808   10.6292   -6.0266 H   0  0  0  0  0  0  0  0  0  0  0  0
   11.9806   10.0305   -3.0766 H   0  0  0  0  0  0  0  0  0  0  0  0
   11.9822   10.2402   -0.5847 H   0  0  0  0  0  0  0  0  0  0  0  0
   14.2630   10.8429    2.9389 H   0  0  0  0  0  0  0  0  0  0  0  0
   12.8083   10.9852    1.8668 H   0  0  0  0  0  0  0  0  0  0  0  0
   16.5861   10.4301    1.7689 H   0  0  0  0  0  0  0  0  0  0  0  0
   16.3204    9.9787   -3.1455 H   0  0  0  0  0  0  0  0  0  0  0  0
  1  2  1  0
  2  3  1  0
  3  4  2  0
  4  5  1  0
  5  6  2  0
  6  7  1  0
  7  8  1  0
  8  9  1  0
  9 10  2  0
  9 11  1  0
  7 12  2  0
 12 13  1  0
 13 14  1  0
 14 15  2  0
 15  3  1  0
 14  6  1  0
  1 16  1  0
  1 17  1  0
  1 18  1  0
  4 19  1  0
  5 20  1  0
  8 21  1  0
  8 22  1  0
 12 23  1  0
 15 24  1  0
M  CHG  1  11  -1
M  END
>  <meeko>  (2) 
{"is_sidechain": [false], "free_energy": -6.705, "intermolecular_energy": -7.892, "internal_energy": -0.259}

$$$$
4ddh_ligand
     RDKit          3D

 24 25  0  0  0  0  0  0  0  0999 V2000
   11.7010    9.1470    2.7670 C   0  0  0  0  0  0  0  0  0  0  0  0
   12.4400    8.4630    1.7650 O   0  0  0  0  0  0  0  0  0  0  0  0
   13.5730    9.0870    1.3070 C   0  0  0  0  0  0  0  0  0  0  0  0
   14.2490    9.8400    2.2740 C   0  0  0  0  0  0  0  0  0  0  0  0
   15.4270   10.5400    1.9710 C   0  0  0  0  0  0  0  0  0  0  0  0
   15.9320   10.4720    0.6620 C   0  0  0  0  0  0  0  0  0  0  0  0
   17.0630   11.0110   -0.0230 C   0  0  0  0  0  0  0  0  0  0  0  0
   18.1510   11.8610    0.5420 C   0  0  0  0  0  0  0  0  0  0  0  0
   19.4580   11.0810    0.6900 C   0  0  0  0  0  0  0  0  0  0  0  0
   19.4020   10.0710    1.4520 O   0  0  0  0  0  0  0  0  0  0  0  0
   20.4500   11.5670    0.0740 O   0  0  0  0  0  0  0  0  0  0  0  0
   16.9480   10.5710   -1.3270 C   0  0  0  0  0  0  0  0  0  0  0  0
   15.8560    9.7770   -1.4850 O   0  0  0  0  0  0  0  0  0  0  0  0
   15.2340    9.7210   -0.2740 C   0  0  0  0  0  0  0  0  0  0  0  0
   14.0620    9.0140   -0.0040 C   0  0  0  0  0  0  0  0  0  0  0  0
   12.0471    8.8266    3.7608 H   0  0  0  0  0  0  0  0  0  0  0  0
   11.8519   10.2311    2.6581 H   0  0  0  0  0  0  0  0  0  0  0  0
   10.6317    8.9129    2.6581 H   0  0  0  0  0  0  0  0  0  0  0  0
   13.8469    9.8842    3.2969 H   0  0  0  0  0  0  0  0  0  0  0  0
   15.9440   11.1296    2.7424 H   0  0  0  0  0  0  0  0  0  0  0  0
   18.3201   12.7163   -0.1287 H   0  0  0  0  0  0  0  0  0  0  0  0
   17.8384   12.1996    1.5408 H   0  0  0  0  0  0  0  0  0  0  0  0
   17.6496   10.8297   -2.1338 H   0  0  0  0  0  0  0  0  0  0  0  0
   13.5480    8.4290   -0.7809 H   0  0  0  0  0  0  0  0  0  0  0  0
  1  2  1  0
  2  3  1  0
  3  4  2  0
  4  5  1  0
  5  6  2  0
  6  7  1  0
  7  8  1  0
  8  9  1  0
  9 10  2  0
  9 11  1  0
  7 12  2  0
 12 13  1  0
 13 14  1  0
 14 15  2  0
 15  3  1  0
 14  6  1  0
  1 16  1  0
  1 17  1  0
  1 18  1  0
  4 19  1  0
  5 20  1  0
  8 21  1  0
  8 22  1  0
 12 23  1  0
 15 24  1  0
M  CHG  1  11  -1
M  END
>  <meeko>  (3) 
{"is_sidechain": [false], "free_energy": -6.542, "intermolecular_energy": -7.699, "internal_energy": -0.261}

$$$$
4ddh_ligand
     RDKit          3D

 24 25  0  0  0  0  0  0  0  0999 V2000
   18.5290   10.8410    1.9900 C   0  0  0  0  0  0  0  0  0  0  0  0
   17.1210   10.8690    2.1720 O   0  0  0  0  0  0  0  0  0  0  0  0
   16.3540   10.6810    1.0500 C   0  0  0  0  0  0  0  0  0  0  0  0
   17.0890   10.5050   -0.1290 C   0  0  0  0  0  0  0  0  0  0  0  0
   16.4590   10.2980   -1.3650 C   0  0  0  0  0  0  0  0  0  0  0  0
   15.0550   10.2660   -1.4080 C   0  0  0  0  0  0  0  0  0  0  0  0
   14.0710   10.0790   -2.4250 C   0  0  0  0  0  0  0  0  0  0  0  0
   14.2980    9.8070   -3.8740 C   0  0  0  0  0  0  0  0  0  0  0  0
   13.2530    8.8430   -4.4370 C   0  0  0  0  0  0  0  0  0  0  0  0
   13.4460    7.6200   -4.1710 O   0  0  0  0  0  0  0  0  0  0  0  0
   12.3490    9.3760   -5.1430 O   0  0  0  0  0  0  0  0  0  0  0  0
   12.8530   10.1950   -1.7850 C   0  0  0  0  0  0  0  0  0  0  0  0
   13.0150   10.4010   -0.4510 O   0  0  0  0  0  0  0  0  0  0  0  0
   14.3570   10.4500   -0.2230 C   0  0  0  0  0  0  0  0  0  0  0  0
   14.9540   10.6560    1.0220 C   0  0  0  0  0  0  0  0  0  0  0  0
   19.0255   10.8311    2.9715 H   0  0  0  0  0  0  0  0  0  0  0  0
   18.8083    9.9371    1.4287 H   0  0  0  0  0  0  0  0  0  0  0  0
   18.8440   11.7331    1.4287 H   0  0  0  0  0  0  0  0  0  0  0  0
   18.1878   10.5297   -0.0847 H   0  0  0  0  0  0  0  0  0  0  0  0
   17.0519   10.1635   -2.2817 H   0  0  0  0  0  0  0  0  0  0  0  0
   14.2434   10.7557   -4.4280 H   0  0  0  0  0  0  0  0  0  0  0  0
   15.2891    9.3430   -3.9855 H   0  0  0  0  0  0  0  0  0  0  0  0
   11.8776   10.1292   -2.2893 H   0  0  0  0  0  0  0  0  0  0  0  0
   14.3552   10.7918    1.9347 H   0  0  0  0  0  0  0  0  0  0  0  0
  1  2  1  0
  2  3  1  0
  3  4  2  0
  4  5  1  0
  5  6  2  0
  6  7  1  0
  7  8  1  0
  8  9  1  0
  9 10  2  0
  9 11  1  0
  7 12  2  0
 12 13  1  0
 13 14  1  0
 14 15  2  0
 15  3  1  0
 14  6  1  0
  1 16  1  0
  1 17  1  0
  1 18  1  0
  4 19  1  0
  5 20  1  0
  8 21  1  0
  8 22  1  0
 12 23  1  0
 15 24  1  0
M  CHG  1  11  -1
M  END
>  <meeko>  (4) 
{"is_sidechain": [false], "free_energy": -6.467, "intermolecular_energy": -7.663, "internal_energy": -0.209}

$$$$
4ddh_ligand
     RDKit          3D

 24 25  0  0  0  0  0  0  0  0999 V2000
   13.0280   10.3750   -1.9670 C   0  0  0  0  0  0  0  0  0  0  0  0
   12.8260    9.5870   -0.8020 O   0  0  0  0  0  0  0  0  0  0  0  0
   13.7990    9.6610    0.1640 C   0  0  0  0  0  0  0  0  0  0  0  0
   14.7840   10.6260   -0.0810 C   0  0  0  0  0  0  0  0  0  0  0  0
   15.8480   10.8320    0.8090 C   0  0  0  0  0  0  0  0  0  0  0  0
   15.9140   10.0490    1.9730 C   0  0  0  0  0  0  0  0  0  0  0  0
   16.7970    9.9580    3.0910 C   0  0  0  0  0  0  0  0  0  0  0  0
   18.0050   10.7880    3.3690 C   0  0  0  0  0  0  0  0  0  0  0  0
   19.0360   10.6780    2.2450 C   0  0  0  0  0  0  0  0  0  0  0  0
   19.3670    9.4980    1.9270 O   0  0  0  0  0  0  0  0  0  0  0  0
   19.4710   11.7800    1.8010 O   0  0  0  0  0  0  0  0  0  0  0  0
   16.2930    8.9400    3.8770 C   0  0  0  0  0  0  0  0  0  0  0  0
   15.1530    8.4250    3.3450 O   0  0  0  0  0  0  0  0  0  0  0  0
   14.9250    9.0970    2.1820 C   0  0  0  0  0  0  0  0  0  0  0  0
   13.8540    8.8690    1.3170 C   0  0  0  0  0  0  0  0  0  0  0  0
   13.2913   11.4020   -1.6739 H   0  0  0  0  0  0  0  0  0  0  0  0
   13.8446    9.9435   -2.5645 H   0  0  0  0  0  0  0  0  0  0  0  0
   12.1045   10.3895   -2.5645 H   0  0  0  0  0  0  0  0  0  0  0  0
   14.7215   11.2371   -0.9935 H   0  0  0  0  0  0  0  0  0  0  0  0
   16.6155   11.5916    0.5996 H   0  0  0  0  0  0  0  0  0  0  0  0
   17.6994   11.8398    3.4711 H   0  0  0  0  0  0  0  0  0  0  0  0
   18.4679   10.4209    4.2969 H   0  0  0  0  0  0  0  0  0  0  0  0
   16.7545    8.5911    4.8126 H   0  0  0  0  0  0  0  0  0  0  0  0
   13.0914    8.1055    1.5304 H   0  0  0  0  0  0  0  0  0  0  0  0
  1  2  1  0
  2  3  1  0
  3  4  2  0
  4  5  1  0
  5  6  2  0
  6  7  1  0
  7  8  1  0
  8  9  1  0
  9 10  2  0
  9 11  1  0
  7 12  2  0
 12 13  1  0
 13 14  1  0
 14 15  2  0
 15  3  1  0
 14  6  1  0
  1 16  1  0
  1 17  1  0
  1 18  1  0
  4 19  1  0
  5 20  1  0
  8 21  1  0
  8 22  1  0
 12 23  1  0
 15 24  1  0
M  CHG  1  11  -1
M  END
>  <meeko>  (5) 
{"is_sidechain": [false], "free_energy": -6.424, "intermolecular_energy": -7.592, "internal_energy": -0.228}

$$$$
4ddh_ligand
     RDKit          3D

 24 25  0  0  0  0  0  0  0  0999 V2000
   14.8860   11.2550    3.6650 C   0  0  0  0  0  0  0  0  0  0  0  0
   15.8410   10.8020    2.7160 O   0  0  0  0  0  0  0  0  0  0  0  0
   15.3770   10.5630    1.4460 C   0  0  0  0  0  0  0  0  0  0  0  0
   14.0000   10.3200    1.3710 C   0  0  0  0  0  0  0  0  0  0  0  0
   13.3650   10.0600    0.1470 C   0  0  0  0  0  0  0  0  0  0  0  0
   14.1390   10.0500   -1.0240 C   0  0  0  0  0  0  0  0  0  0  0  0
   13.8830    9.8430   -2.4140 C   0  0  0  0  0  0  0  0  0  0  0  0
   12.5680    9.5840   -3.0690 C   0  0  0  0  0  0  0  0  0  0  0  0
   12.7380    8.8730   -4.4120 C   0  0  0  0  0  0  0  0  0  0  0  0
   12.4970    9.5810   -5.4340 O   0  0  0  0  0  0  0  0  0  0  0  0
   13.0500    7.6490   -4.3400 O   0  0  0  0  0  0  0  0  0  0  0  0
   15.1130    9.9420   -3.0340 C   0  0  0  0  0  0  0  0  0  0  0  0
   16.0950   10.2280   -2.1390 O   0  0  0  0  0  0  0  0  0  0  0  0
   15.5020   10.2880   -0.9130 C   0  0  0  0  0  0  0  0  0  0  0  0
   16.1630   10.5510    0.2880 C   0  0  0  0  0  0  0  0  0  0  0  0
   15.2655   11.0750    4.6817 H   0  0  0  0  0  0  0  0  0  0  0  0
   14.7114   12.3319    3.5241 H   0  0  0  0  0  0  0  0  0  0  0  0
   13.9416   10.7089    3.5241 H   0  0  0  0  0  0  0  0  0  0  0  0
   13.4016   10.3332    2.2939 H   0  0  0  0  0  0  0  0  0  0  0  0
   12.2827    9.8679    0.1060 H   0  0  0  0  0  0  0  0  0  0  0  0
   11.9572    8.9535   -2.4062 H   0  0  0  0  0  0  0  0  0  0  0  0
   12.0783   10.5519   -3.2519 H   0  0  0  0  0  0  0  0  0  0  0  0
   15.2769    9.8068   -4.1133 H   0  0  0  0  0  0  0  0  0  0  0  0
   17.2462   10.7392    0.3225 H   0  0  0  0  0  0  0  0  0  0  0  0
  1  2  1  0
  2  3  1  0
  3  4  2  0
  4  5  1  0
  5  6  2  0
  6  7  1  0
  7  8  1  0
  8  9  1  0
  9 10  2  0
  9 11  1  0
  7 12  2  0
 12 13  1  0
 13 14  1  0
 14 15  2  0
 15  3  1  0
 14  6  1  0
  1 16  1  0
  1 17  1  0
  1 18  1  0
  4 19  1  0
  5 20  1  0
  8 21  1  0
  8 22  1  0
 12 23  1  0
 15 24  1  0
M  CHG  1  11  -1
M  END
>  <meeko>  (6) 
{"is_sidechain": [false], "free_energy": -6.289, "intermolecular_energy": -7.509, "internal_energy": -0.153}

$$$$
4ddh_ligand
     RDKit          3D

 24 25  0  0  0  0  0  0  0  0999 V2000
   13.5880    9.2170    6.6550 C   0  0  0  0  0  0  0  0  0  0  0  0
   14.2940    8.4210    5.7140 O   0  0  0  0  0  0  0  0  0  0  0  0
   14.9570    9.0930    4.7180 C   0  0  0  0  0  0  0  0  0  0  0  0
   16.1380    9.7220    5.1330 C   0  0  0  0  0  0  0  0  0  0  0  0
   16.9370   10.4500    4.2390 C   0  0  0  0  0  0  0  0  0  0  0  0
   16.5350   10.5390    2.8960 C   0  0  0  0  0  0  0  0  0  0  0  0
   17.0520   11.1540    1.7160 C   0  0  0  0  0  0  0  0  0  0  0  0
   18.3200   11.9270    1.5720 C   0  0  0  0  0  0  0  0  0  0  0  0
   19.4470   11.0630    1.0060 C   0  0  0  0  0  0  0  0  0  0  0  0
   20.1520   11.6110    0.1080 O   0  0  0  0  0  0  0  0  0  0  0  0
   19.5110    9.8870    1.4690 O   0  0  0  0  0  0  0  0  0  0  0  0
   16.1350   10.8750    0.7220 C   0  0  0  0  0  0  0  0  0  0  0  0
   15.1150   10.1090    1.1930 O   0  0  0  0  0  0  0  0  0  0  0  0
   15.3560    9.9090    2.5190 C   0  0  0  0  0  0  0  0  0  0  0  0
   14.5410    9.1780    3.3840 C   0  0  0  0  0  0  0  0  0  0  0  0
   13.8617    8.9085    7.6748 H   0  0  0  0  0  0  0  0  0  0  0  0
   13.8497   10.2755    6.5095 H   0  0  0  0  0  0  0  0  0  0  0  0
   12.5059    9.0835    6.5095 H   0  0  0  0  0  0  0  0  0  0  0  0
   16.4464    9.6430    6.1859 H   0  0  0  0  0  0  0  0  0  0  0  0
   17.8594   10.9411    4.5825 H   0  0  0  0  0  0  0  0  0  0  0  0
   18.1456   12.7750    0.8934 H   0  0  0  0  0  0  0  0  0  0  0  0
   18.6238   12.2769    2.5696 H   0  0  0  0  0  0  0  0  0  0  0  0
   16.2188   11.2270   -0.3168 H   0  0  0  0  0  0  0  0  0  0  0  0
   13.6176    8.6926    3.0351 H   0  0  0  0  0  0  0  0  0  0  0  0
  1  2  1  0
  2  3  1  0
  3  4  2  0
  4  5  1  0
  5  6  2  0
  6  7  1  0
  7  8  1  0
  8  9  1  0
  9 10  2  0
  9 11  1  0
  7 12  2  0
 12 13  1  0
 13 14  1  0
 14 15  2  0
 15  3  1  0
 14  6  1  0
  1 16  1  0
  1 17  1  0
  1 18  1  0
  4 19  1  0
  5 20  1  0
  8 21  1  0
  8 22  1  0
 12 23  1  0
 15 24  1  0
M  CHG  1  11  -1
M  END
>  <meeko>  (7) 
{"is_sidechain": [false], "free_energy": -6.243, "intermolecular_energy": -7.4, "internal_energy": -0.208}

$$$$
4ddh_ligand
     RDKit          3D

 24 25  0  0  0  0  0  0  0  0999 V2000
   13.8420    9.1710    4.2740 C   0  0  0  0  0  0  0  0  0  0  0  0
   13.6220    8.1640    3.2960 O   0  0  0  0  0  0  0  0  0  0  0  0
   13.6990    8.5580    1.9840 C   0  0  0  0  0  0  0  0  0  0  0  0
   14.3450    7.6420    1.1430 C   0  0  0  0  0  0  0  0  0  0  0  0
   14.5060    7.8900   -0.2280 C   0  0  0  0  0  0  0  0  0  0  0  0
   13.9990    9.0870   -0.7600 C   0  0  0  0  0  0  0  0  0  0  0  0
   13.9530    9.6880   -2.0550 C   0  0  0  0  0  0  0  0  0  0  0  0
   14.4610    9.1250   -3.3390 C   0  0  0  0  0  0  0  0  0  0  0  0
   13.3220    8.6000   -4.2150 C   0  0  0  0  0  0  0  0  0  0  0  0
   12.4890    9.4730   -4.6000 O   0  0  0  0  0  0  0  0  0  0  0  0
   13.3210    7.3500   -4.4100 O   0  0  0  0  0  0  0  0  0  0  0  0
   13.3270   10.9050   -1.8740 C   0  0  0  0  0  0  0  0  0  0  0  0
   12.9550   11.0800   -0.5780 O   0  0  0  0  0  0  0  0  0  0  0  0
   13.3700    9.9750    0.1010 C   0  0  0  0  0  0  0  0  0  0  0  0
   13.1930    9.7570    1.4680 C   0  0  0  0  0  0  0  0  0  0  0  0
   13.7464    8.7335    5.2787 H   0  0  0  0  0  0  0  0  0  0  0  0
   14.8524    9.5879    4.1502 H   0  0  0  0  0  0  0  0  0  0  0  0
   13.0975    9.9712    4.1502 H   0  0  0  0  0  0  0  0  0  0  0  0
   14.7353    6.7057    1.5684 H   0  0  0  0  0  0  0  0  0  0  0  0
   15.0189    7.1619   -0.8735 H   0  0  0  0  0  0  0  0  0  0  0  0
   14.9979    9.9136   -3.8867 H   0  0  0  0  0  0  0  0  0  0  0  0
   15.1297    8.2837   -3.1044 H   0  0  0  0  0  0  0  0  0  0  0  0
   13.1518   11.6384   -2.6749 H   0  0  0  0  0  0  0  0  0  0  0  0
   12.6814   10.4907    2.1082 H   0  0  0  0  0  0  0  0  0  0  0  0
  1  2  1  0
  2  3  1  0
  3  4  2  0
  4  5  1  0
  5  6  2  0
  6  7  1  0
  7  8  1  0
  8  9  1  0
  9 10  2  0
  9 11  1  0
  7 12  2  0
 12 13  1  0
 13 14  1  0
 14 15  2  0
 15  3  1  0
 14  6  1  0
  1 16  1  0
  1 17  1  0
  1 18  1  0
  4 19  1  0
  5 20  1  0
  8 21  1  0
  8 22  1  0
 12 23  1  0
 15 24  1  0
M  CHG  1  11  -1
M  END
>  <meeko>  (8) 
{"is_sidechain": [false], "free_energy": -6.236, "intermolecular_energy": -7.556, "internal_energy": -0.043}

$$$$
4ddh_ligand
     RDKit          3D

 24 25  0  0  0  0  0  0  0  0999 V2000
   14.6140    8.8630    6.1650 C   0  0  0  0  0  0  0  0  0  0  0  0
   13.7660    8.4470    5.1040 O   0  0  0  0  0  0  0  0  0  0  0  0
   14.0100    8.9990    3.8720 C   0  0  0  0  0  0  0  0  0  0  0  0
   12.8670    9.1790    3.0830 C   0  0  0  0  0  0  0  0  0  0  0  0
   12.9410    9.7350    1.7970 C   0  0  0  0  0  0  0  0  0  0  0  0
   14.1980   10.1190    1.3010 C   0  0  0  0  0  0  0  0  0  0  0  0
   14.6810   10.7070    0.0920 C   0  0  0  0  0  0  0  0  0  0  0  0
   13.8830   11.1480   -1.0880 C   0  0  0  0  0  0  0  0  0  0  0  0
   13.4040    9.9600   -1.9230 C   0  0  0  0  0  0  0  0  0  0  0  0
   12.1680    9.9530   -2.1970 O   0  0  0  0  0  0  0  0  0  0  0  0
   14.2910    9.1000   -2.1980 O   0  0  0  0  0  0  0  0  0  0  0  0
   16.0500   10.7920    0.2460 C   0  0  0  0  0  0  0  0  0  0  0  0
   16.4390   10.3360    1.4650 O   0  0  0  0  0  0  0  0  0  0  0  0
   15.3110    9.9210    2.1060 C   0  0  0  0  0  0  0  0  0  0  0  0
   15.2700    9.3730    3.3890 C   0  0  0  0  0  0  0  0  0  0  0  0
   14.1374    8.6292    7.1285 H   0  0  0  0  0  0  0  0  0  0  0  0
   15.5762    8.3346    6.0941 H   0  0  0  0  0  0  0  0  0  0  0  0
   14.7850    9.9473    6.0941 H   0  0  0  0  0  0  0  0  0  0  0  0
   11.8871    8.8770    3.4813 H   0  0  0  0  0  0  0  0  0  0  0  0
   12.0335    9.8675    1.1896 H   0  0  0  0  0  0  0  0  0  0  0  0
   13.0070   11.7120   -0.7352 H   0  0  0  0  0  0  0  0  0  0  0  0
   14.5267   11.7754   -1.7221 H   0  0  0  0  0  0  0  0  0  0  0  0
   16.7378   11.1793   -0.5201 H   0  0  0  0  0  0  0  0  0  0  0  0
   16.1816    9.2415    3.9904 H   0  0  0  0  0  0  0  0  0  0  0  0
  1  2  1  0
  2  3  1  0
  3  4  2  0
  4  5  1  0
  5  6  2  0
  6  7  1  0
  7  8  1  0
  8  9  1  0
  9 10  2  0
  9 11  1  0
  7 12  2  0
 12 13  1  0
 13 14  1  0
 14 15  2  0
 15  3  1  0
 14  6  1  0
  1 16  1  0
  1 17  1  0
  1 18  1  0
  4 19  1  0
  5 20  1  0
  8 21  1  0
  8 22  1  0
 12 23  1  0
 15 24  1  0
M  CHG  1  11  -1
M  END
>  <meeko>  (9) 
{"is_sidechain": [false], "free_energy": -5.935, "intermolecular_energy": -7.006, "internal_energy": -0.24}

$$$$
