3fv2_ligand
     RDKit          3D

 36 37  0  0  0  0  0  0  0  0999 V2000
   -6.0530   13.5020   17.4180 N   0  0  0  0  0  0  0  0  0  0  0  0
   -5.6510   14.6700   18.2950 C   0  0  1  0  0  0  0  0  0  0  0  0
   -5.9460   14.3730   19.7800 C   0  0  0  0  0  0  0  0  0  0  0  0
   -7.0570   15.2260   20.4070 C   0  0  2  0  0  0  0  0  0  0  0  0
   -6.4990   16.6860   20.4990 C   0  0  0  0  0  0  0  0  0  0  0  0
   -5.8190   16.9050   21.5580 O   0  0  0  0  0  0  0  0  0  0  0  0
   -6.8650   17.4920   19.6090 O   0  0  0  0  0  0  0  0  0  0  0  0
   -7.5390   14.7690   21.7790 C   0  0  0  0  0  0  0  0  0  0  0  0
   -8.9710   14.3210   21.5700 C   0  0  1  0  0  0  0  0  0  0  0  0
   -9.7900   14.7020   22.6750 O   0  0  0  0  0  0  0  0  0  0  0  0
  -11.1710   14.7940   22.3250 C   0  0  0  0  0  0  0  0  0  0  0  0
  -11.4420   15.9040   21.2920 C   0  0  1  0  0  0  0  0  0  0  0  0
  -11.8480   17.1100   21.9550 O   0  0  0  0  0  0  0  0  0  0  0  0
  -10.2220   16.2040   20.4020 C   0  0  1  0  0  0  0  0  0  0  0  0
   -9.4850   17.2890   20.9900 O   0  0  0  0  0  0  0  0  0  0  0  0
   -9.3850   14.9320   20.2390 C   0  0  1  0  0  0  0  0  0  0  0  0
   -8.1970   15.1550   19.4800 O   0  0  0  0  0  0  0  0  0  0  0  0
   -4.1580   15.0370   18.0170 C   0  0  0  0  0  0  0  0  0  0  0  0
   -3.7300   16.1330   18.4500 O   0  0  0  0  0  0  0  0  0  0  0  0
   -3.5690   14.1000   17.3810 O   0  0  0  0  0  0  0  0  0  0  0  0
   -5.3820   13.3290   16.6400 H   0  0  0  0  0  0  0  0  0  0  0  0
   -6.9440   13.7210   16.9590 H   0  0  0  0  0  0  0  0  0  0  0  0
   -6.1880   12.7060   18.0600 H   0  0  0  0  0  0  0  0  0  0  0  0
   -6.2564   15.5539   18.0455 H   0  0  0  0  0  0  0  0  0  0  0  0
   -6.2393   13.3162   19.8643 H   0  0  0  0  0  0  0  0  0  0  0  0
   -5.0252   14.6177   20.3298 H   0  0  0  0  0  0  0  0  0  0  0  0
   -6.9235   13.9341   22.1453 H   0  0  0  0  0  0  0  0  0  0  0  0
   -7.4651   15.5711   22.5281 H   0  0  0  0  0  0  0  0  0  0  0  0
   -9.0837   13.2276   21.5273 H   0  0  0  0  0  0  0  0  0  0  0  0
  -11.4931   13.8312   21.9017 H   0  0  0  0  0  0  0  0  0  0  0  0
  -11.7328   15.0409   23.2379 H   0  0  0  0  0  0  0  0  0  0  0  0
  -12.2473   15.5342   20.6403 H   0  0  0  0  0  0  0  0  0  0  0  0
  -11.2350   17.7900   21.5910 H   0  0  0  0  0  0  0  0  0  0  0  0
  -10.5281   16.5144   19.3921 H   0  0  0  0  0  0  0  0  0  0  0  0
   -8.6800   16.9010   21.4150 H   0  0  0  0  0  0  0  0  0  0  0  0
  -10.0483   14.2358   19.7048 H   0  0  0  0  0  0  0  0  0  0  0  0
  1  2  1  0
  2  3  1  0
  4  3  1  6
  4  5  1  0
  5  6  2  0
  5  7  1  0
  4  8  1  0
  8  9  1  0
  9 10  1  0
 10 11  1  0
 11 12  1  0
 12 13  1  0
 12 14  1  0
 14 15  1  0
 14 16  1  0
 16 17  1  0
  2 18  1  0
 18 19  2  0
 18 20  1  0
 17  4  1  0
 16  9  1  0
  1 21  1  0
  1 22  1  0
  1 23  1  0
  2 24  1  6
  3 25  1  0
  3 26  1  0
  8 27  1  0
  8 28  1  0
  9 29  1  6
 11 30  1  0
 11 31  1  0
 12 32  1  6
 13 33  1  0
 14 34  1  6
 15 35  1  0
 16 36  1  6
M  CHG  3   1   1   7  -1  20  -1
M  END
>  <meeko>  (1) 
{"is_sidechain": [false], "free_energy": -7.9, "intermolecular_energy": -10.441, "internal_energy": -0.832}

$$$$
3fv2_ligand
     RDKit          3D

 36 37  0  0  0  0  0  0  0  0999 V2000
   -7.5020   19.0830   20.7870 N   0  0  0  0  0  0  0  0  0  0  0  0
   -7.6890   17.5810   20.7360 C   0  0  1  0  0  0  0  0  0  0  0  0
   -9.1860   17.2110   20.6940 C   0  0  0  0  0  0  0  0  0  0  0  0
   -9.4960   15.7220   20.9000 C   0  0  2  0  0  0  0  0  0  0  0  0
  -10.7300   15.6530   21.8600 C   0  0  0  0  0  0  0  0  0  0  0  0
  -11.5160   16.6540   21.7520 O   0  0  0  0  0  0  0  0  0  0  0  0
  -10.7550   14.7120   22.6900 O   0  0  0  0  0  0  0  0  0  0  0  0
   -8.3530   14.8880   21.4660 C   0  0  0  0  0  0  0  0  0  0  0  0
   -7.9700   13.9310   20.3560 C   0  0  1  0  0  0  0  0  0  0  0  0
   -7.6510   12.6430   20.8820 O   0  0  0  0  0  0  0  0  0  0  0  0
   -7.8050   11.6040   19.9130 C   0  0  0  0  0  0  0  0  0  0  0  0
   -9.2660   11.4410   19.4550 C   0  0  1  0  0  0  0  0  0  0  0  0
   -9.9110   10.4070   20.2120 O   0  0  0  0  0  0  0  0  0  0  0  0
  -10.0810   12.7420   19.5800 C   0  0  1  0  0  0  0  0  0  0  0  0
  -10.7520   12.7380   20.8510 O   0  0  0  0  0  0  0  0  0  0  0  0
   -9.1520   13.9440   19.3980 C   0  0  1  0  0  0  0  0  0  0  0  0
   -9.8310   15.1880   19.5710 O   0  0  0  0  0  0  0  0  0  0  0  0
   -6.8680   16.9970   19.5410 C   0  0  0  0  0  0  0  0  0  0  0  0
   -7.3580   17.0880   18.3900 O   0  0  0  0  0  0  0  0  0  0  0  0
   -5.7560   16.5170   19.9420 O   0  0  0  0  0  0  0  0  0  0  0  0
   -7.0890   19.4110   21.6850 H   0  0  0  0  0  0  0  0  0  0  0  0
   -8.4220   19.5340   20.7350 H   0  0  0  0  0  0  0  0  0  0  0  0
   -6.9570   19.3240   19.9440 H   0  0  0  0  0  0  0  0  0  0  0  0
   -7.2985   17.1218   21.6562 H   0  0  0  0  0  0  0  0  0  0  0  0
   -9.6993   17.7782   21.4845 H   0  0  0  0  0  0  0  0  0  0  0  0
   -9.5337   17.4583   19.6801 H   0  0  0  0  0  0  0  0  0  0  0  0
   -7.5011   15.5313   21.7314 H   0  0  0  0  0  0  0  0  0  0  0  0
   -8.6476   14.3564   22.3829 H   0  0  0  0  0  0  0  0  0  0  0  0
   -7.0558   14.2281   19.8212 H   0  0  0  0  0  0  0  0  0  0  0  0
   -7.1846   11.8433   19.0367 H   0  0  0  0  0  0  0  0  0  0  0  0
   -7.4928   10.6591   20.3817 H   0  0  0  0  0  0  0  0  0  0  0  0
   -9.2309   11.1708   18.3893 H   0  0  0  0  0  0  0  0  0  0  0  0
   -9.5700   10.5460   21.1270 H   0  0  0  0  0  0  0  0  0  0  0  0
  -10.8487   12.8129   18.7954 H   0  0  0  0  0  0  0  0  0  0  0  0
  -10.3950   11.9750   21.3700 H   0  0  0  0  0  0  0  0  0  0  0  0
   -8.7883   13.8523   18.3639 H   0  0  0  0  0  0  0  0  0  0  0  0
  1  2  1  0
  2  3  1  0
  4  3  1  6
  4  5  1  0
  5  6  2  0
  5  7  1  0
  4  8  1  0
  8  9  1  0
  9 10  1  0
 10 11  1  0
 11 12  1  0
 12 13  1  0
 12 14  1  0
 14 15  1  0
 14 16  1  0
 16 17  1  0
  2 18  1  0
 18 19  2  0
 18 20  1  0
 17  4  1  0
 16  9  1  0
  1 21  1  0
  1 22  1  0
  1 23  1  0
  2 24  1  1
  3 25  1  0
  3 26  1  0
  8 27  1  0
  8 28  1  0
  9 29  1  6
 11 30  1  0
 11 31  1  0
 12 32  1  6
 13 33  1  0
 14 34  1  6
 15 35  1  0
 16 36  1  6
M  CHG  3   1   1   7  -1  20  -1
M  END
>  <meeko>  (2) 
{"is_sidechain": [false], "free_energy": -6.394, "intermolecular_energy": -8.873, "internal_energy": -0.409}

$$$$
3fv2_ligand
     RDKit          3D

 36 37  0  0  0  0  0  0  0  0999 V2000
   -5.4460   13.8940   17.4410 N   0  0  0  0  0  0  0  0  0  0  0  0
   -6.1400   14.5720   18.6040 C   0  0  1  0  0  0  0  0  0  0  0  0
   -6.6190   13.5360   19.6420 C   0  0  0  0  0  0  0  0  0  0  0  0
   -8.0610   13.7260   20.1340 C   0  0  2  0  0  0  0  0  0  0  0  0
   -8.7660   12.3360   19.9920 C   0  0  0  0  0  0  0  0  0  0  0  0
   -7.9720   11.3450   20.1320 O   0  0  0  0  0  0  0  0  0  0  0  0
   -9.9740   12.3420   19.6500 O   0  0  0  0  0  0  0  0  0  0  0  0
   -8.8670   14.7930   19.4030 C   0  0  0  0  0  0  0  0  0  0  0  0
   -9.1210   15.8760   20.4310 C   0  0  1  0  0  0  0  0  0  0  0  0
  -10.4350   16.4130   20.2910 O   0  0  0  0  0  0  0  0  0  0  0  0
  -10.9120   17.0130   21.4960 C   0  0  0  0  0  0  0  0  0  0  0  0
  -11.0740   15.9900   22.6360 C   0  0  1  0  0  0  0  0  0  0  0  0
  -12.4300   15.5260   22.6960 O   0  0  0  0  0  0  0  0  0  0  0  0
  -10.1310   14.7810   22.4940 C   0  0  1  0  0  0  0  0  0  0  0  0
  -10.8350   13.7350   21.8030 O   0  0  0  0  0  0  0  0  0  0  0  0
   -8.8510   15.2140   21.7750 C   0  0  1  0  0  0  0  0  0  0  0  0
   -7.9590   14.1240   21.5460 O   0  0  0  0  0  0  0  0  0  0  0  0
   -5.1960   15.6640   19.2040 C   0  0  0  0  0  0  0  0  0  0  0  0
   -5.5170   16.1850   20.2980 O   0  0  0  0  0  0  0  0  0  0  0  0
   -4.1760   15.8460   18.4580 O   0  0  0  0  0  0  0  0  0  0  0  0
   -5.3930   14.4960   16.5920 H   0  0  0  0  0  0  0  0  0  0  0  0
   -5.9980   13.0770   17.1550 H   0  0  0  0  0  0  0  0  0  0  0  0
   -4.5350   13.5770   17.8060 H   0  0  0  0  0  0  0  0  0  0  0  0
   -7.0501   15.0813   18.2543 H   0  0  0  0  0  0  0  0  0  0  0  0
   -6.5429   12.5374   19.1870 H   0  0  0  0  0  0  0  0  0  0  0  0
   -5.9747   13.6656   20.5241 H   0  0  0  0  0  0  0  0  0  0  0  0
   -8.2942   15.1943   18.5540 H   0  0  0  0  0  0  0  0  0  0  0  0
   -9.8042   14.3894   18.9922 H   0  0  0  0  0  0  0  0  0  0  0  0
   -8.4678   16.7528   20.3108 H   0  0  0  0  0  0  0  0  0  0  0  0
  -10.1963   17.7856   21.8135 H   0  0  0  0  0  0  0  0  0  0  0  0
  -11.9027   17.4432   21.2876 H   0  0  0  0  0  0  0  0  0  0  0  0
  -10.8061   16.5128   23.5660 H   0  0  0  0  0  0  0  0  0  0  0  0
  -12.5600   15.3200   23.6510 H   0  0  0  0  0  0  0  0  0  0  0  0
   -9.8267   14.3911   23.4765 H   0  0  0  0  0  0  0  0  0  0  0  0
  -11.2170   14.1300   20.9810 H   0  0  0  0  0  0  0  0  0  0  0  0
   -8.3887   15.9422   22.4576 H   0  0  0  0  0  0  0  0  0  0  0  0
  1  2  1  0
  2  3  1  0
  4  3  1  6
  4  5  1  0
  5  6  2  0
  5  7  1  0
  4  8  1  0
  8  9  1  0
  9 10  1  0
 10 11  1  0
 11 12  1  0
 12 13  1  0
 12 14  1  0
 14 15  1  0
 14 16  1  0
 16 17  1  0
  2 18  1  0
 18 19  2  0
 18 20  1  0
 17  4  1  0
 16  9  1  0
  1 21  1  0
  1 22  1  0
  1 23  1  0
  2 24  1  6
  3 25  1  0
  3 26  1  0
  8 27  1  0
  8 28  1  0
  9 29  1  6
 11 30  1  0
 11 31  1  0
 12 32  1  1
 13 33  1  0
 14 34  1  1
 15 35  1  0
 16 36  1  1
M  CHG  3   1   1   7  -1  20  -1
M  END
>  <meeko>  (3) 
{"is_sidechain": [false], "free_energy": -6.192, "intermolecular_energy": -8.139, "internal_energy": -0.877}

$$$$
3fv2_ligand
     RDKit          3D

 36 37  0  0  0  0  0  0  0  0999 V2000
   -7.2360   19.2590   20.7570 N   0  0  0  0  0  0  0  0  0  0  0  0
   -7.9110   17.9420   20.4370 C   0  0  1  0  0  0  0  0  0  0  0  0
   -7.0630   16.7520   20.9330 C   0  0  0  0  0  0  0  0  0  0  0  0
   -7.2630   15.4420   20.1570 C   0  0  2  0  0  0  0  0  0  0  0  0
   -6.0610   15.3270   19.1610 C   0  0  0  0  0  0  0  0  0  0  0  0
   -4.9910   15.8780   19.5880 O   0  0  0  0  0  0  0  0  0  0  0  0
   -6.3000   14.8260   18.0350 O   0  0  0  0  0  0  0  0  0  0  0  0
   -8.5790   15.3260   19.3970 C   0  0  0  0  0  0  0  0  0  0  0  0
   -9.3400   14.2120   20.0850 C   0  0  1  0  0  0  0  0  0  0  0  0
  -10.0380   13.4100   19.1340 O   0  0  0  0  0  0  0  0  0  0  0  0
  -10.3150   12.0970   19.6240 C   0  0  0  0  0  0  0  0  0  0  0  0
   -9.0310   11.2870   19.8870 C   0  0  1  0  0  0  0  0  0  0  0  0
   -8.7240   10.4640   18.7520 O   0  0  0  0  0  0  0  0  0  0  0  0
   -7.8170   12.1770   20.2080 C   0  0  1  0  0  0  0  0  0  0  0  0
   -7.1000   12.4270   18.9870 O   0  0  0  0  0  0  0  0  0  0  0  0
   -8.2930   13.4600   20.8940 C   0  0  1  0  0  0  0  0  0  0  0  0
   -7.2220   14.3660   21.1590 O   0  0  0  0  0  0  0  0  0  0  0  0
   -9.3650   17.9520   21.0100 C   0  0  0  0  0  0  0  0  0  0  0  0
   -9.8410   16.8710   21.4300 O   0  0  0  0  0  0  0  0  0  0  0  0
   -9.8570   19.1300   20.9840 O   0  0  0  0  0  0  0  0  0  0  0  0
   -6.9950   19.3590   21.7660 H   0  0  0  0  0  0  0  0  0  0  0  0
   -7.8910   20.0250   20.5620 H   0  0  0  0  0  0  0  0  0  0  0  0
   -6.4350   19.3260   20.1110 H   0  0  0  0  0  0  0  0  0  0  0  0
   -7.9898   17.8147   19.3472 H   0  0  0  0  0  0  0  0  0  0  0  0
   -6.0025   17.0343   20.8577 H   0  0  0  0  0  0  0  0  0  0  0  0
   -7.3903   16.5508   21.9637 H   0  0  0  0  0  0  0  0  0  0  0  0
   -9.1415   16.2695   19.4541 H   0  0  0  0  0  0  0  0  0  0  0  0
   -8.4191   15.1153   18.3293 H   0  0  0  0  0  0  0  0  0  0  0  0
  -10.1347   14.5755   20.7531 H   0  0  0  0  0  0  0  0  0  0  0  0
  -10.8782   12.1823   20.5650 H   0  0  0  0  0  0  0  0  0  0  0  0
  -10.8953   11.5666   18.8546 H   0  0  0  0  0  0  0  0  0  0  0  0
   -9.2299   10.6639   20.7714 H   0  0  0  0  0  0  0  0  0  0  0  0
   -9.5870   10.3900   18.2820 H   0  0  0  0  0  0  0  0  0  0  0  0
   -7.1281   11.6798   20.9067 H   0  0  0  0  0  0  0  0  0  0  0  0
   -7.3880   13.3120   18.6530 H   0  0  0  0  0  0  0  0  0  0  0  0
   -8.7371   13.1142   21.8391 H   0  0  0  0  0  0  0  0  0  0  0  0
  1  2  1  0
  2  3  1  0
  4  3  1  1
  4  5  1  0
  5  6  2  0
  5  7  1  0
  4  8  1  0
  8  9  1  0
  9 10  1  0
 10 11  1  0
 11 12  1  0
 12 13  1  0
 12 14  1  0
 14 15  1  0
 14 16  1  0
 16 17  1  0
  2 18  1  0
 18 19  2  0
 18 20  1  0
 17  4  1  0
 16  9  1  0
  1 21  1  0
  1 22  1  0
  1 23  1  0
  2 24  1  6
  3 25  1  0
  3 26  1  0
  8 27  1  0
  8 28  1  0
  9 29  1  1
 11 30  1  0
 11 31  1  0
 12 32  1  1
 13 33  1  0
 14 34  1  1
 15 35  1  0
 16 36  1  1
M  CHG  3   1   1   7  -1  20  -1
M  END
>  <meeko>  (4) 
{"is_sidechain": [false], "free_energy": -5.352, "intermolecular_energy": -8.343, "internal_energy": 0.438}

$$$$
3fv2_ligand
     RDKit          3D

 36 37  0  0  0  0  0  0  0  0999 V2000
  -11.9240   16.2090   22.3560 N   0  0  0  0  0  0  0  0  0  0  0  0
  -10.5910   16.0440   21.6580 C   0  0  1  0  0  0  0  0  0  0  0  0
  -10.4920   14.6640   20.9740 C   0  0  0  0  0  0  0  0  0  0  0  0
   -9.0850   14.2690   20.5050 C   0  0  2  0  0  0  0  0  0  0  0  0
   -9.0840   12.7090   20.3670 C   0  0  0  0  0  0  0  0  0  0  0  0
  -10.2280   12.2230   20.0740 O   0  0  0  0  0  0  0  0  0  0  0  0
   -8.0210   12.1120   20.6650 O   0  0  0  0  0  0  0  0  0  0  0  0
   -7.9440   14.7090   21.4140 C   0  0  0  0  0  0  0  0  0  0  0  0
   -7.1610   15.7250   20.6080 C   0  0  1  0  0  0  0  0  0  0  0  0
   -5.7590   15.5780   20.8290 O   0  0  0  0  0  0  0  0  0  0  0  0
   -4.9790   16.1030   19.7530 C   0  0  0  0  0  0  0  0  0  0  0  0
   -5.2070   15.3370   18.4360 C   0  0  1  0  0  0  0  0  0  0  0  0
   -4.1980   14.3310   18.2680 O   0  0  0  0  0  0  0  0  0  0  0  0
   -6.5960   14.6790   18.3590 C   0  0  1  0  0  0  0  0  0  0  0  0
   -6.4830   13.3230   18.8250 O   0  0  0  0  0  0  0  0  0  0  0  0
   -7.5980   15.5070   19.1670 C   0  0  1  0  0  0  0  0  0  0  0  0
   -8.8970   14.9140   19.1970 O   0  0  0  0  0  0  0  0  0  0  0  0
  -10.3670   17.2420   20.6790 C   0  0  0  0  0  0  0  0  0  0  0  0
   -9.7540   18.2480   21.1090 O   0  0  0  0  0  0  0  0  0  0  0  0
  -10.8460   16.9840   19.5240 O   0  0  0  0  0  0  0  0  0  0  0  0
  -12.0320   17.1390   22.8130 H   0  0  0  0  0  0  0  0  0  0  0  0
  -11.9870   15.5270   23.1200 H   0  0  0  0  0  0  0  0  0  0  0  0
  -12.6400   15.9900   21.6460 H   0  0  0  0  0  0  0  0  0  0  0  0
   -9.7750   16.0668   22.3953 H   0  0  0  0  0  0  0  0  0  0  0  0
  -10.8388   13.9036   21.6892 H   0  0  0  0  0  0  0  0  0  0  0  0
  -11.1108   14.7268   20.0668 H   0  0  0  0  0  0  0  0  0  0  0  0
   -8.3382   15.1672   22.3331 H   0  0  0  0  0  0  0  0  0  0  0  0
   -7.3168   13.8607   21.7254 H   0  0  0  0  0  0  0  0  0  0  0  0
   -7.3634   16.7652   20.9031 H   0  0  0  0  0  0  0  0  0  0  0  0
   -5.2518   17.1576   19.6003 H   0  0  0  0  0  0  0  0  0  0  0  0
   -3.9182   15.9970   20.0240 H   0  0  0  0  0  0  0  0  0  0  0  0
   -5.1467   16.0799   17.6270 H   0  0  0  0  0  0  0  0  0  0  0  0
   -3.6640   14.6660   17.5100 H   0  0  0  0  0  0  0  0  0  0  0  0
   -6.9702   14.6494   17.3250 H   0  0  0  0  0  0  0  0  0  0  0  0
   -6.6700   12.7310   18.0550 H   0  0  0  0  0  0  0  0  0  0  0  0
   -7.6365   16.4737   18.6436 H   0  0  0  0  0  0  0  0  0  0  0  0
  1  2  1  0
  2  3  1  0
  4  3  1  1
  4  5  1  0
  5  6  2  0
  5  7  1  0
  4  8  1  0
  8  9  1  0
  9 10  1  0
 10 11  1  0
 11 12  1  0
 12 13  1  0
 12 14  1  0
 14 15  1  0
 14 16  1  0
 16 17  1  0
  2 18  1  0
 18 19  2  0
 18 20  1  0
 17  4  1  0
 16  9  1  0
  1 21  1  0
  1 22  1  0
  1 23  1  0
  2 24  1  1
  3 25  1  0
  3 26  1  0
  8 27  1  0
  8 28  1  0
  9 29  1  1
 11 30  1  0
 11 31  1  0
 12 32  1  6
 13 33  1  0
 14 34  1  6
 15 35  1  0
 16 36  1  6
M  CHG  3   1   1   7  -1  20  -1
M  END
>  <meeko>  (5) 
{"is_sidechain": [false], "free_energy": -5.315, "intermolecular_energy": -7.604, "internal_energy": -0.251}

$$$$
