3fv1_ligand
     RDKit          3D

 41 42  0  0  0  0  0  0  0  0999 V2000
   -9.7700   19.0630   21.1490 C   0  0  0  0  0  0  0  0  0  0  0  0
   -9.6600   17.6080   21.2070 N   0  0  0  0  0  0  0  0  0  0  0  0
  -10.7960   16.7390   20.7430 C   0  0  1  0  0  0  0  0  0  0  0  0
  -10.2390   15.4270   20.1790 C   0  0  1  0  0  0  0  0  0  0  0  0
   -8.8720   15.6430   19.8330 O   0  0  0  0  0  0  0  0  0  0  0  0
   -8.0260   14.6920   20.5190 C   0  0  1  0  0  0  0  0  0  0  0  0
   -6.8560   14.4360   19.5510 C   0  0  0  0  0  0  0  0  0  0  0  0
   -6.0420   15.7060   19.1750 C   0  0  2  0  0  0  0  0  0  0  0  0
   -6.9460   16.7450   18.5510 N   0  0  0  0  0  0  0  0  0  0  0  0
   -4.8220   15.4040   18.2310 C   0  0  0  0  0  0  0  0  0  0  0  0
   -3.9000   16.2860   18.3320 O   0  0  0  0  0  0  0  0  0  0  0  0
   -4.8750   14.3510   17.5520 O   0  0  0  0  0  0  0  0  0  0  0  0
   -7.4690   15.2540   21.8840 C   0  0  0  0  0  0  0  0  0  0  0  0
   -7.6260   14.5290   22.9090 O   0  0  0  0  0  0  0  0  0  0  0  0
   -7.0770   16.4630   21.8430 O   0  0  0  0  0  0  0  0  0  0  0  0
   -8.9560   13.5190   20.8040 C   0  0  0  0  0  0  0  0  0  0  0  0
  -10.2930   14.2080   21.0970 C   0  0  1  0  0  0  0  0  0  0  0  0
  -10.3590   14.5050   22.4840 O   0  0  0  0  0  0  0  0  0  0  0  0
  -11.2750   15.5030   22.9080 C   0  0  0  0  0  0  0  0  0  0  0  0
  -11.8390   16.4130   21.8150 C   0  0  1  0  0  0  0  0  0  0  0  0
  -12.4350   17.5960   22.3560 O   0  0  0  0  0  0  0  0  0  0  0  0
   -9.8007   19.4694   22.1707 H   0  0  0  0  0  0  0  0  0  0  0  0
   -8.9005   19.4755   20.6163 H   0  0  0  0  0  0  0  0  0  0  0  0
  -10.6917   19.3401   20.6163 H   0  0  0  0  0  0  0  0  0  0  0  0
   -8.7960   17.3150   20.6880 H   0  0  0  0  0  0  0  0  0  0  0  0
   -9.3490   17.2950   22.1680 H   0  0  0  0  0  0  0  0  0  0  0  0
  -11.3201   17.3271   19.9752 H   0  0  0  0  0  0  0  0  0  0  0  0
  -10.8934   15.1826   19.3293 H   0  0  0  0  0  0  0  0  0  0  0  0
   -6.1711   13.7158   20.0224 H   0  0  0  0  0  0  0  0  0  0  0  0
   -7.2987   14.0597   18.6170 H   0  0  0  0  0  0  0  0  0  0  0  0
   -5.6220   16.0975   20.1133 H   0  0  0  0  0  0  0  0  0  0  0  0
   -6.9050   17.6710   18.9680 H   0  0  0  0  0  0  0  0  0  0  0  0
   -6.5960   16.8090   17.5730 H   0  0  0  0  0  0  0  0  0  0  0  0
   -7.9360   16.4150   18.4330 H   0  0  0  0  0  0  0  0  0  0  0  0
   -9.0355   12.8553   19.9304 H   0  0  0  0  0  0  0  0  0  0  0  0
   -8.6076   12.8774   21.6268 H   0  0  0  0  0  0  0  0  0  0  0  0
  -11.2017   13.6195   20.9025 H   0  0  0  0  0  0  0  0  0  0  0  0
  -12.1225   14.9961   23.3926 H   0  0  0  0  0  0  0  0  0  0  0  0
  -10.7011   16.1645   23.5736 H   0  0  0  0  0  0  0  0  0  0  0  0
  -12.6420   15.8490   21.3179 H   0  0  0  0  0  0  0  0  0  0  0  0
  -13.1830   17.3240   22.9200 H   0  0  0  0  0  0  0  0  0  0  0  0
  1  2  1  0
  2  3  1  0
  3  4  1  0
  4  5  1  0
  5  6  1  0
  6  7  1  6
  7  8  1  0
  8  9  1  0
  8 10  1  0
 10 11  2  0
 10 12  1  0
  6 13  1  0
 13 14  2  0
 13 15  1  0
  6 16  1  0
 16 17  1  0
 17 18  1  0
 18 19  1  0
 19 20  1  0
 20 21  1  0
 20  3  1  0
 17  4  1  0
  1 22  1  0
  1 23  1  0
  1 24  1  0
  2 25  1  0
  2 26  1  0
  3 27  1  6
  4 28  1  6
  7 29  1  0
  7 30  1  0
  8 31  1  1
  9 32  1  0
  9 33  1  0
  9 34  1  0
 16 35  1  0
 16 36  1  0
 17 37  1  6
 19 38  1  0
 19 39  1  0
 20 40  1  6
 21 41  1  0
M  CHG  4   2   1   9   1  12  -1  15  -1
M  END
>  <meeko>  (1) 
{"is_sidechain": [false], "free_energy": -7.557, "intermolecular_energy": -10.208, "internal_energy": -0.039}

$$$$
3fv1_ligand
     RDKit          3D

 41 42  0  0  0  0  0  0  0  0999 V2000
  -11.1580   14.0850   20.1270 C   0  0  0  0  0  0  0  0  0  0  0  0
  -10.6810   15.4340   20.4180 N   0  0  0  0  0  0  0  0  0  0  0  0
  -10.4000   15.8540   21.8340 C   0  0  1  0  0  0  0  0  0  0  0  0
   -8.8860   15.9440   22.0510 C   0  0  1  0  0  0  0  0  0  0  0  0
   -8.2510   15.1600   21.0420 O   0  0  0  0  0  0  0  0  0  0  0  0
   -7.3130   15.9690   20.2970 C   0  0  1  0  0  0  0  0  0  0  0  0
   -6.1860   14.9980   19.8970 C   0  0  0  0  0  0  0  0  0  0  0  0
   -5.8580   14.9830   18.3780 C   0  0  2  0  0  0  0  0  0  0  0  0
   -6.2330   13.6500   17.7710 N   0  0  0  0  0  0  0  0  0  0  0  0
   -4.3560   15.3240   18.0650 C   0  0  0  0  0  0  0  0  0  0  0  0
   -3.7810   14.4060   17.3830 O   0  0  0  0  0  0  0  0  0  0  0  0
   -3.9280   16.4330   18.4650 O   0  0  0  0  0  0  0  0  0  0  0  0
   -7.9550   16.5960   18.9990 C   0  0  0  0  0  0  0  0  0  0  0  0
   -7.2550   17.4370   18.3630 O   0  0  0  0  0  0  0  0  0  0  0  0
   -9.1840   16.3230   18.8260 O   0  0  0  0  0  0  0  0  0  0  0  0
   -6.9500   17.0890   21.2650 C   0  0  0  0  0  0  0  0  0  0  0  0
   -8.2680   17.3390   22.0050 C   0  0  1  0  0  0  0  0  0  0  0  0
   -9.0200   18.3040   21.2840 O   0  0  0  0  0  0  0  0  0  0  0  0
  -10.4180   18.3730   21.5240 C   0  0  0  0  0  0  0  0  0  0  0  0
  -11.0390   17.1810   22.2530 C   0  0  1  0  0  0  0  0  0  0  0  0
  -12.4630   17.1530   22.1180 O   0  0  0  0  0  0  0  0  0  0  0  0
  -11.3467   13.5514   21.0702 H   0  0  0  0  0  0  0  0  0  0  0  0
  -12.0901   14.1431   19.5458 H   0  0  0  0  0  0  0  0  0  0  0  0
  -10.3966   13.5443   19.5458 H   0  0  0  0  0  0  0  0  0  0  0  0
   -9.8160   15.6140   19.8510 H   0  0  0  0  0  0  0  0  0  0  0  0
  -11.2970   16.1570   19.9530 H   0  0  0  0  0  0  0  0  0  0  0  0
  -10.8603   15.0796   22.4652 H   0  0  0  0  0  0  0  0  0  0  0  0
   -8.7243   15.5866   23.0787 H   0  0  0  0  0  0  0  0  0  0  0  0
   -5.2750   15.2854   20.4425 H   0  0  0  0  0  0  0  0  0  0  0  0
   -6.5385   13.9875   20.1512 H   0  0  0  0  0  0  0  0  0  0  0  0
   -6.4621   15.7799   17.9196 H   0  0  0  0  0  0  0  0  0  0  0  0
   -5.9390   13.5060   16.8100 H   0  0  0  0  0  0  0  0  0  0  0  0
   -5.7350   12.9640   18.3750 H   0  0  0  0  0  0  0  0  0  0  0  0
   -7.2460   13.4040   17.9090 H   0  0  0  0  0  0  0  0  0  0  0  0
   -6.1594   16.7708   21.9605 H   0  0  0  0  0  0  0  0  0  0  0  0
   -6.5546   17.9855   20.7650 H   0  0  0  0  0  0  0  0  0  0  0  0
   -8.1898   17.7585   23.0188 H   0  0  0  0  0  0  0  0  0  0  0  0
  -10.6107   19.2724   22.1273 H   0  0  0  0  0  0  0  0  0  0  0  0
  -10.8866   18.3852   20.5289 H   0  0  0  0  0  0  0  0  0  0  0  0
  -10.8213   17.3160   23.3228 H   0  0  0  0  0  0  0  0  0  0  0  0
  -12.6730   16.9130   21.1960 H   0  0  0  0  0  0  0  0  0  0  0  0
  1  2  1  0
  2  3  1  0
  3  4  1  0
  4  5  1  0
  5  6  1  0
  6  7  1  6
  7  8  1  0
  8  9  1  0
  8 10  1  0
 10 11  2  0
 10 12  1  0
  6 13  1  0
 13 14  2  0
 13 15  1  0
  6 16  1  0
 16 17  1  0
 17 18  1  0
 18 19  1  0
 19 20  1  0
 20 21  1  0
 20  3  1  0
 17  4  1  0
  1 22  1  0
  1 23  1  0
  1 24  1  0
  2 25  1  0
  2 26  1  0
  3 27  1  1
  4 28  1  1
  7 29  1  0
  7 30  1  0
  8 31  1  6
  9 32  1  0
  9 33  1  0
  9 34  1  0
 16 35  1  0
 16 36  1  0
 17 37  1  1
 19 38  1  0
 19 39  1  0
 20 40  1  1
 21 41  1  0
M  CHG  4   2   1   9   1  12  -1  15  -1
M  END
>  <meeko>  (2) 
{"is_sidechain": [false], "free_energy": -6.435, "intermolecular_energy": -9.354, "internal_energy": 0.623}

$$$$
3fv1_ligand
     RDKit          3D

 41 42  0  0  0  0  0  0  0  0999 V2000
   -9.7780   12.1890   19.2840 C   0  0  0  0  0  0  0  0  0  0  0  0
   -9.9060   13.4230   20.0530 N   0  0  0  0  0  0  0  0  0  0  0  0
   -9.7860   13.4040   21.5520 C   0  0  1  0  0  0  0  0  0  0  0  0
   -8.5900   14.2590   21.9810 C   0  0  1  0  0  0  0  0  0  0  0  0
   -7.7180   14.3890   20.8590 O   0  0  0  0  0  0  0  0  0  0  0  0
   -7.4960   15.7850   20.5580 C   0  0  1  0  0  0  0  0  0  0  0  0
   -6.0590   15.8440   20.0050 C   0  0  0  0  0  0  0  0  0  0  0  0
   -5.8790   15.1860   18.6090 C   0  0  2  0  0  0  0  0  0  0  0  0
   -6.3060   13.7360   18.6510 N   0  0  0  0  0  0  0  0  0  0  0  0
   -4.4150   15.3090   18.0490 C   0  0  0  0  0  0  0  0  0  0  0  0
   -3.8580   16.4110   18.3830 O   0  0  0  0  0  0  0  0  0  0  0  0
   -3.9680   14.3300   17.4050 O   0  0  0  0  0  0  0  0  0  0  0  0
   -8.5010   16.3370   19.4740 C   0  0  0  0  0  0  0  0  0  0  0  0
   -9.6400   15.7880   19.4170 O   0  0  0  0  0  0  0  0  0  0  0  0
   -7.9960   17.1600   18.6470 O   0  0  0  0  0  0  0  0  0  0  0  0
   -7.7550   16.4890   21.8850 C   0  0  0  0  0  0  0  0  0  0  0  0
   -8.8990   15.6660   22.4880 C   0  0  1  0  0  0  0  0  0  0  0  0
  -10.1340   16.2060   22.0420 O   0  0  0  0  0  0  0  0  0  0  0  0
  -11.2840   15.3760   22.1070 C   0  0  0  0  0  0  0  0  0  0  0  0
  -11.0310   13.8810   22.3060 C   0  0  1  0  0  0  0  0  0  0  0  0
  -12.1820   13.0950   21.9850 O   0  0  0  0  0  0  0  0  0  0  0  0
   -9.6895   11.3355   19.9723 H   0  0  0  0  0  0  0  0  0  0  0  0
  -10.6674   12.0581   18.6501 H   0  0  0  0  0  0  0  0  0  0  0  0
   -8.8807   12.2434   18.6501 H   0  0  0  0  0  0  0  0  0  0  0  0
   -9.2160   14.1230   19.6840 H   0  0  0  0  0  0  0  0  0  0  0  0
  -10.7840   13.9450   19.7780 H   0  0  0  0  0  0  0  0  0  0  0  0
   -9.6521   12.3459   21.8210 H   0  0  0  0  0  0  0  0  0  0  0  0
   -8.1546   13.7277   22.8402 H   0  0  0  0  0  0  0  0  0  0  0  0
   -5.7637   16.9008   19.9275 H   0  0  0  0  0  0  0  0  0  0  0  0
   -5.4308   15.2723   20.7040 H   0  0  0  0  0  0  0  0  0  0  0  0
   -6.5272   15.7420   17.9157 H   0  0  0  0  0  0  0  0  0  0  0  0
   -5.8810   13.1320   17.9550 H   0  0  0  0  0  0  0  0  0  0  0  0
   -5.9950   13.4230   19.5930 H   0  0  0  0  0  0  0  0  0  0  0  0
   -7.3500   13.6140   18.6880 H   0  0  0  0  0  0  0  0  0  0  0  0
   -6.8639   16.4605   22.5293 H   0  0  0  0  0  0  0  0  0  0  0  0
   -7.9983   17.5558   21.7720 H   0  0  0  0  0  0  0  0  0  0  0  0
   -8.9821   15.6703   23.5848 H   0  0  0  0  0  0  0  0  0  0  0  0
  -11.9026   15.7258   22.9467 H   0  0  0  0  0  0  0  0  0  0  0  0
  -11.7644   15.4632   21.1213 H   0  0  0  0  0  0  0  0  0  0  0  0
  -10.8319   13.7334   23.3777 H   0  0  0  0  0  0  0  0  0  0  0  0
  -12.9300   13.7030   21.8400 H   0  0  0  0  0  0  0  0  0  0  0  0
  1  2  1  0
  2  3  1  0
  3  4  1  0
  4  5  1  0
  5  6  1  0
  6  7  1  6
  7  8  1  0
  8  9  1  0
  8 10  1  0
 10 11  2  0
 10 12  1  0
  6 13  1  0
 13 14  2  0
 13 15  1  0
  6 16  1  0
 16 17  1  0
 17 18  1  0
 18 19  1  0
 19 20  1  0
 20 21  1  0
 20  3  1  0
 17  4  1  0
  1 22  1  0
  1 23  1  0
  1 24  1  0
  2 25  1  0
  2 26  1  0
  3 27  1  1
  4 28  1  1
  7 29  1  0
  7 30  1  0
  8 31  1  6
  9 32  1  0
  9 33  1  0
  9 34  1  0
 16 35  1  0
 16 36  1  0
 17 37  1  1
 19 38  1  0
 19 39  1  0
 20 40  1  1
 21 41  1  0
M  CHG  4   2   1   9   1  12  -1  15  -1
M  END
>  <meeko>  (3) 
{"is_sidechain": [false], "free_energy": -5.915, "intermolecular_energy": -9.066, "internal_energy": 1.038}

$$$$
3fv1_ligand
     RDKit          3D

 41 42  0  0  0  0  0  0  0  0999 V2000
   -6.0850   16.8900   22.1590 C   0  0  0  0  0  0  0  0  0  0  0  0
   -7.4360   16.6600   21.6560 N   0  0  0  0  0  0  0  0  0  0  0  0
   -7.8960   17.3140   20.3820 C   0  0  1  0  0  0  0  0  0  0  0  0
   -9.0350   16.4920   19.7680 C   0  0  1  0  0  0  0  0  0  0  0  0
   -8.9640   15.1730   20.3050 O   0  0  0  0  0  0  0  0  0  0  0  0
  -10.2190   14.8220   20.9330 C   0  0  1  0  0  0  0  0  0  0  0  0
  -10.3540   13.3020   20.7190 C   0  0  0  0  0  0  0  0  0  0  0  0
   -9.0230   12.5110   20.8640 C   0  0  2  0  0  0  0  0  0  0  0  0
   -7.8840   13.4520   21.1830 N   0  0  0  0  0  0  0  0  0  0  0  0
   -8.6780   11.6420   19.6010 C   0  0  0  0  0  0  0  0  0  0  0  0
   -7.5850   12.0060   19.0440 O   0  0  0  0  0  0  0  0  0  0  0  0
   -9.4610   10.7010   19.3260 O   0  0  0  0  0  0  0  0  0  0  0  0
  -10.2310   15.1400   22.4780 C   0  0  0  0  0  0  0  0  0  0  0  0
   -9.1410   14.9870   23.1030 O   0  0  0  0  0  0  0  0  0  0  0  0
  -11.3840   15.3460   22.9720 O   0  0  0  0  0  0  0  0  0  0  0  0
  -11.2380   15.7120   20.2320 C   0  0  0  0  0  0  0  0  0  0  0  0
  -10.4540   17.0080   19.9980 C   0  0  1  0  0  0  0  0  0  0  0  0
  -10.6100   17.8460   21.1340 O   0  0  0  0  0  0  0  0  0  0  0  0
   -9.6540   18.8760   21.3360 C   0  0  0  0  0  0  0  0  0  0  0  0
   -8.3580   18.7660   20.5300 C   0  0  1  0  0  0  0  0  0  0  0  0
   -7.3250   19.6020   21.0600 O   0  0  0  0  0  0  0  0  0  0  0  0
   -6.0979   16.8878   23.2589 H   0  0  0  0  0  0  0  0  0  0  0  0
   -5.4188   16.0923   21.7985 H   0  0  0  0  0  0  0  0  0  0  0  0
   -5.7203   17.8632   21.7985 H   0  0  0  0  0  0  0  0  0  0  0  0
   -7.5880   15.6260   21.5610 H   0  0  0  0  0  0  0  0  0  0  0  0
   -8.1520   16.8300   22.4150 H   0  0  0  0  0  0  0  0  0  0  0  0
   -7.0099   17.3410   19.7307 H   0  0  0  0  0  0  0  0  0  0  0  0
   -8.8754   16.5517   18.6813 H   0  0  0  0  0  0  0  0  0  0  0  0
  -11.0679   12.9126   21.4598 H   0  0  0  0  0  0  0  0  0  0  0  0
  -10.6914   13.1603   19.6817 H   0  0  0  0  0  0  0  0  0  0  0  0
   -9.1655   11.8080   21.6980 H   0  0  0  0  0  0  0  0  0  0  0  0
   -6.9930   13.0100   21.3910 H   0  0  0  0  0  0  0  0  0  0  0  0
   -7.7800   14.0070   20.3090 H   0  0  0  0  0  0  0  0  0  0  0  0
   -8.1350   14.1770   21.9010 H   0  0  0  0  0  0  0  0  0  0  0  0
  -11.5627   15.2680   19.2794 H   0  0  0  0  0  0  0  0  0  0  0  0
  -12.1597   15.8600   20.8138 H   0  0  0  0  0  0  0  0  0  0  0  0
  -10.7782   17.6332   19.1530 H   0  0  0  0  0  0  0  0  0  0  0  0
  -10.1311   19.8320   21.0745 H   0  0  0  0  0  0  0  0  0  0  0  0
   -9.3515   18.7926   22.3903 H   0  0  0  0  0  0  0  0  0  0  0  0
   -8.5815   19.1354   19.5183 H   0  0  0  0  0  0  0  0  0  0  0  0
   -6.4720   19.2810   20.7150 H   0  0  0  0  0  0  0  0  0  0  0  0
  1  2  1  0
  2  3  1  0
  3  4  1  0
  4  5  1  0
  5  6  1  0
  6  7  1  1
  7  8  1  0
  8  9  1  0
  8 10  1  0
 10 11  2  0
 10 12  1  0
  6 13  1  0
 13 14  2  0
 13 15  1  0
  6 16  1  0
 16 17  1  0
 17 18  1  0
 18 19  1  0
 19 20  1  0
 20 21  1  0
 20  3  1  0
 17  4  1  0
  1 22  1  0
  1 23  1  0
  1 24  1  0
  2 25  1  0
  2 26  1  0
  3 27  1  6
  4 28  1  6
  7 29  1  0
  7 30  1  0
  8 31  1  1
  9 32  1  0
  9 33  1  0
  9 34  1  0
 16 35  1  0
 16 36  1  0
 17 37  1  6
 19 38  1  0
 19 39  1  0
 20 40  1  6
 21 41  1  0
M  CHG  4   2   1   9   1  12  -1  15  -1
M  END
>  <meeko>  (4) 
{"is_sidechain": [false], "free_energy": -5.57, "intermolecular_energy": -7.826, "internal_energy": 0.265}

$$$$
