2xb8_ligand
     RDKit          3D

 39 40  0  0  0  0  0  0  0  0999 V2000
   19.6670    1.6230   35.8540 C   0  0  0  0  0  0  0  0  0  0  0  0
   19.5480    2.1270   37.1770 O   0  0  0  0  0  0  0  0  0  0  0  0
   18.2850    2.4570   37.5930 C   0  0  0  0  0  0  0  0  0  0  0  0
   17.2040    2.7610   36.7660 C   0  0  0  0  0  0  0  0  0  0  0  0
   15.9620    3.0840   37.3230 C   0  0  0  0  0  0  0  0  0  0  0  0
   15.7870    3.1120   38.7110 C   0  0  0  0  0  0  0  0  0  0  0  0
   14.4360    3.4430   39.3040 C   0  0  0  0  0  0  0  0  0  0  0  0
   13.4030    2.3150   39.0860 C   0  0  1  0  0  0  0  0  0  0  0  0
   12.9460    1.8340   40.4620 C   0  0  0  0  0  0  0  0  0  0  0  0
   13.6880    1.1640   41.1940 O   0  0  0  0  0  0  0  0  0  0  0  0
   11.6000    2.3230   40.9920 C   0  0  1  0  0  0  0  0  0  0  0  0
   11.6690    2.4660   42.4250 O   0  0  0  0  0  0  0  0  0  0  0  0
   11.2950    3.6940   40.3980 C   0  0  2  0  0  0  0  0  0  0  0  0
   10.0890    4.2240   40.9650 O   0  0  0  0  0  0  0  0  0  0  0  0
   11.1850    3.6620   38.8780 C   0  0  0  0  0  0  0  0  0  0  0  0
   12.2170    2.7470   38.2030 C   0  0  1  0  0  0  0  0  0  0  0  0
   12.7080    3.4340   37.0170 O   0  0  0  0  0  0  0  0  0  0  0  0
   11.4840    1.4410   37.7160 C   0  0  0  0  0  0  0  0  0  0  0  0
   10.5900    0.9920   38.4780 O   0  0  0  0  0  0  0  0  0  0  0  0
   11.9130    1.0200   36.5990 O   0  0  0  0  0  0  0  0  0  0  0  0
   16.8700    2.7950   39.5370 C   0  0  0  0  0  0  0  0  0  0  0  0
   18.1110    2.4770   38.9790 C   0  0  0  0  0  0  0  0  0  0  0  0
   19.9196    0.5530   35.8906 H   0  0  0  0  0  0  0  0  0  0  0  0
   18.7126    1.7565   35.3235 H   0  0  0  0  0  0  0  0  0  0  0  0
   20.4609    2.1693   35.3235 H   0  0  0  0  0  0  0  0  0  0  0  0
   17.3282    2.7468   35.6731 H   0  0  0  0  0  0  0  0  0  0  0  0
   15.1140    3.3185   36.6628 H   0  0  0  0  0  0  0  0  0  0  0  0
   14.5558    3.6078   40.3850 H   0  0  0  0  0  0  0  0  0  0  0  0
   14.0597    4.3440   38.7973 H   0  0  0  0  0  0  0  0  0  0  0  0
   13.8769    1.4917   38.5314 H   0  0  0  0  0  0  0  0  0  0  0  0
   10.8200    1.5979   40.7168 H   0  0  0  0  0  0  0  0  0  0  0  0
   11.1670    3.2890   42.6010 H   0  0  0  0  0  0  0  0  0  0  0  0
   12.1425    4.3483   40.6503 H   0  0  0  0  0  0  0  0  0  0  0  0
    9.4940    3.4510   41.0440 H   0  0  0  0  0  0  0  0  0  0  0  0
   10.1788    3.3073   38.6101 H   0  0  0  0  0  0  0  0  0  0  0  0
   11.3792    4.6839   38.5203 H   0  0  0  0  0  0  0  0  0  0  0  0
   13.6800    3.5090   37.2070 H   0  0  0  0  0  0  0  0  0  0  0  0
   16.7445    2.7960   40.6298 H   0  0  0  0  0  0  0  0  0  0  0  0
   18.9595    2.2400   39.6377 H   0  0  0  0  0  0  0  0  0  0  0  0
  1  2  1  0
  2  3  1  0
  3  4  2  0
  4  5  1  0
  5  6  2  0
  6  7  1  0
  7  8  1  0
  8  9  1  0
  9 10  2  0
  9 11  1  0
 11 12  1  0
 11 13  1  0
 13 14  1  0
 13 15  1  0
 15 16  1  0
 16 17  1  6
 16 18  1  0
 18 19  2  0
 18 20  1  0
  6 21  1  0
 21 22  2  0
 22  3  1  0
 16  8  1  0
  1 23  1  0
  1 24  1  0
  1 25  1  0
  4 26  1  0
  5 27  1  0
  7 28  1  0
  7 29  1  0
  8 30  1  6
 11 31  1  1
 12 32  1  0
 13 33  1  6
 14 34  1  0
 15 35  1  0
 15 36  1  0
 17 37  1  0
 21 38  1  0
 22 39  1  0
M  CHG  1  20  -1
M  END
>  <meeko>  (1) 
{"is_sidechain": [false], "free_energy": -10.347, "intermolecular_energy": -13.673, "internal_energy": -0.147}

$$$$
