1ydt_ligand
     RDKit          3D

 48 50  0  0  0  0  0  0  0  0999 V2000
   11.3150    9.1770    1.5720 O   0  0  0  0  0  0  0  0  0  0  0  0
   10.4540    8.0720    1.9630 S   0  0  0  0  0  0  0  0  0  0  0  0
    9.9650    7.1240    0.9950 O   0  0  0  0  0  0  0  0  0  0  0  0
   11.4130    7.2220    3.0360 N   0  0  0  0  0  0  0  0  0  0  0  0
   12.6980    7.7440    3.5150 C   0  0  0  0  0  0  0  0  0  0  0  0
   13.8690    7.0530    2.7870 C   0  0  0  0  0  0  0  0  0  0  0  0
   14.0610    7.6250    1.4140 N   0  0  0  0  0  0  0  0  0  0  0  0
   15.0860    8.6890    1.2680 C   0  0  0  0  0  0  0  0  0  0  0  0
   15.2670    9.1070   -0.1530 C   0  0  0  0  0  0  0  0  0  0  0  0
   16.1000    8.5000   -1.0150 C   0  0  0  0  0  0  0  0  0  0  0  0
   16.3010    8.9450   -2.4010 C   0  0  0  0  0  0  0  0  0  0  0  0
   17.0960   10.0520   -2.7230 C   0  0  0  0  0  0  0  0  0  0  0  0
   17.2490   10.4540   -4.0550 C   0  0  0  0  0  0  0  0  0  0  0  0
   16.5970    9.7550   -5.0670 C   0  0  0  0  0  0  0  0  0  0  0  0
   16.8040   10.2960   -6.8660 Br  0  0  0  0  0  0  0  0  0  0  0  0
   15.7880    8.6640   -4.7610 C   0  0  0  0  0  0  0  0  0  0  0  0
   15.6370    8.2640   -3.4310 C   0  0  0  0  0  0  0  0  0  0  0  0
    9.1190    8.6750    2.9600 C   0  0  0  0  0  0  0  0  0  0  0  0
    9.1420    8.3450    4.3250 C   0  0  0  0  0  0  0  0  0  0  0  0
    8.0980    8.7340    5.1530 C   0  0  0  0  0  0  0  0  0  0  0  0
    7.0280    9.4490    4.6240 C   0  0  0  0  0  0  0  0  0  0  0  0
    6.9990    9.8030    3.2630 C   0  0  0  0  0  0  0  0  0  0  0  0
    5.9280   10.5270    2.7360 C   0  0  0  0  0  0  0  0  0  0  0  0
    5.8240   10.9160    1.4480 N   0  0  0  0  0  0  0  0  0  0  0  0
    6.8460   10.5960    0.6390 C   0  0  0  0  0  0  0  0  0  0  0  0
    7.9550    9.8720    1.0530 C   0  0  0  0  0  0  0  0  0  0  0  0
    8.0550    9.4370    2.3970 C   0  0  0  0  0  0  0  0  0  0  0  0
   10.9910    6.3910    3.4610 H   0  0  0  0  0  0  0  0  0  0  0  0
   12.7422    8.8265    3.3247 H   0  0  0  0  0  0  0  0  0  0  0  0
   12.7827    7.5438    4.5933 H   0  0  0  0  0  0  0  0  0  0  0  0
   14.7907    7.1986    3.3694 H   0  0  0  0  0  0  0  0  0  0  0  0
   13.6387    5.9816    2.6912 H   0  0  0  0  0  0  0  0  0  0  0  0
   14.3250    6.8650    0.7540 H   0  0  0  0  0  0  0  0  0  0  0  0
   13.1680    7.9600    1.0360 H   0  0  0  0  0  0  0  0  0  0  0  0
   14.7747    9.5639    1.8576 H   0  0  0  0  0  0  0  0  0  0  0  0
   16.0447    8.2853    1.6257 H   0  0  0  0  0  0  0  0  0  0  0  0
   14.6826    9.9648   -0.5172 H   0  0  0  0  0  0  0  0  0  0  0  0
   16.6622    7.6221   -0.6640 H   0  0  0  0  0  0  0  0  0  0  0  0
   17.6042   10.6100   -1.9228 H   0  0  0  0  0  0  0  0  0  0  0  0
   17.8822   11.3191   -4.3012 H   0  0  0  0  0  0  0  0  0  0  0  0
   15.2696    8.1189   -5.5636 H   0  0  0  0  0  0  0  0  0  0  0  0
   14.9912    7.4069   -3.1897 H   0  0  0  0  0  0  0  0  0  0  0  0
    9.9886    7.7774    4.7386 H   0  0  0  0  0  0  0  0  0  0  0  0
    8.1165    8.4781    6.2227 H   0  0  0  0  0  0  0  0  0  0  0  0
    6.1938    9.7413    5.2787 H   0  0  0  0  0  0  0  0  0  0  0  0
    5.1105   10.7999    3.4195 H   0  0  0  0  0  0  0  0  0  0  0  0
    6.8021   10.9257   -0.4095 H   0  0  0  0  0  0  0  0  0  0  0  0
    8.7563    9.6360    0.3374 H   0  0  0  0  0  0  0  0  0  0  0  0
  1  2  2  0
  2  3  2  0
  2  4  1  0
  4  5  1  0
  5  6  1  0
  6  7  1  0
  7  8  1  0
  8  9  1  0
  9 10  2  0
 10 11  1  0
 11 12  2  0
 12 13  1  0
 13 14  2  0
 14 15  1  0
 14 16  1  0
 16 17  2  0
  2 18  1  0
 18 19  2  0
 19 20  1  0
 20 21  2  0
 21 22  1  0
 22 23  2  0
 23 24  1  0
 24 25  2  0
 25 26  1  0
 26 27  2  0
 17 11  1  0
 27 18  1  0
 27 22  1  0
  4 28  1  0
  5 29  1  0
  5 30  1  0
  6 31  1  0
  6 32  1  0
  7 33  1  0
  7 34  1  0
  8 35  1  0
  8 36  1  0
  9 37  1  0
 10 38  1  0
 12 39  1  0
 13 40  1  0
 16 41  1  0
 17 42  1  0
 19 43  1  0
 20 44  1  0
 21 45  1  0
 23 46  1  0
 25 47  1  0
 26 48  1  0
M  CHG  1   7   1
M  END
>  <meeko>  (1) 
{"is_sidechain": [false], "free_energy": -9.351, "intermolecular_energy": -13.724, "internal_energy": -0.81}

$$$$
1ydt_ligand
     RDKit          3D

 48 50  0  0  0  0  0  0  0  0999 V2000
    9.0770    8.8410    4.6100 O   0  0  0  0  0  0  0  0  0  0  0  0
    8.9570   10.1490    3.9840 S   0  0  0  0  0  0  0  0  0  0  0  0
    9.0390   11.3600    4.7580 O   0  0  0  0  0  0  0  0  0  0  0  0
   10.2420   10.1650    2.9150 N   0  0  0  0  0  0  0  0  0  0  0  0
   11.6010   10.5280    3.3360 C   0  0  0  0  0  0  0  0  0  0  0  0
   12.3450   11.2530    2.1970 C   0  0  0  0  0  0  0  0  0  0  0  0
   12.3480   12.7370    2.4130 N   0  0  0  0  0  0  0  0  0  0  0  0
   12.9520   13.5690    1.3430 C   0  0  0  0  0  0  0  0  0  0  0  0
   13.7630   12.7590    0.3880 C   0  0  0  0  0  0  0  0  0  0  0  0
   14.2200   13.2200   -0.7890 C   0  0  0  0  0  0  0  0  0  0  0  0
   14.9830   12.4010   -1.7410 C   0  0  0  0  0  0  0  0  0  0  0  0
   14.3900   11.8160   -2.8680 C   0  0  0  0  0  0  0  0  0  0  0  0
   15.1480   11.0290   -3.7420 C   0  0  0  0  0  0  0  0  0  0  0  0
   16.5000   10.8150   -3.4840 C   0  0  0  0  0  0  0  0  0  0  0  0
   17.5240    9.7540   -4.6650 Br  0  0  0  0  0  0  0  0  0  0  0  0
   17.0990   11.3740   -2.3590 C   0  0  0  0  0  0  0  0  0  0  0  0
   16.3410   12.1600   -1.4870 C   0  0  0  0  0  0  0  0  0  0  0  0
    7.5260   10.1850    2.9400 C   0  0  0  0  0  0  0  0  0  0  0  0
    7.7470   10.3200    1.5590 C   0  0  0  0  0  0  0  0  0  0  0  0
    6.6690   10.4150    0.6880 C   0  0  0  0  0  0  0  0  0  0  0  0
    5.3720   10.3790    1.1900 C   0  0  0  0  0  0  0  0  0  0  0  0
    5.1350   10.2260    2.5670 C   0  0  0  0  0  0  0  0  0  0  0  0
    3.8320   10.1820    3.0670 C   0  0  0  0  0  0  0  0  0  0  0  0
    3.5140   10.0270    4.3700 N   0  0  0  0  0  0  0  0  0  0  0  0
    4.5380    9.8820    5.2250 C   0  0  0  0  0  0  0  0  0  0  0  0
    5.8700    9.9190    4.8400 C   0  0  0  0  0  0  0  0  0  0  0  0
    6.2090   10.1090    3.4790 C   0  0  0  0  0  0  0  0  0  0  0  0
   10.0680    9.7620    1.9910 H   0  0  0  0  0  0  0  0  0  0  0  0
   11.5434   11.1923    4.2108 H   0  0  0  0  0  0  0  0  0  0  0  0
   12.1507    9.6101    3.5916 H   0  0  0  0  0  0  0  0  0  0  0  0
   13.3838   10.8932    2.1603 H   0  0  0  0  0  0  0  0  0  0  0  0
   11.8280   11.0388    1.2500 H   0  0  0  0  0  0  0  0  0  0  0  0
   11.3710   13.0730    2.5360 H   0  0  0  0  0  0  0  0  0  0  0  0
   12.7870   12.9680    3.3110 H   0  0  0  0  0  0  0  0  0  0  0  0
   12.1461   14.0701    0.7867 H   0  0  0  0  0  0  0  0  0  0  0  0
   13.6227   14.2982    1.8209 H   0  0  0  0  0  0  0  0  0  0  0  0
   14.0015   11.7212    0.6639 H   0  0  0  0  0  0  0  0  0  0  0  0
   14.0115   14.2671   -1.0539 H   0  0  0  0  0  0  0  0  0  0  0  0
   13.3202   11.9768   -3.0671 H   0  0  0  0  0  0  0  0  0  0  0  0
   14.6779   10.5808   -4.6298 H   0  0  0  0  0  0  0  0  0  0  0  0
   18.1658   11.1977   -2.1569 H   0  0  0  0  0  0  0  0  0  0  0  0
   16.8137   12.5936   -0.5934 H   0  0  0  0  0  0  0  0  0  0  0  0
    8.7744   10.3505    1.1672 H   0  0  0  0  0  0  0  0  0  0  0  0
    6.8401   10.5182   -0.3937 H   0  0  0  0  0  0  0  0  0  0  0  0
    4.5204   10.4715    0.4999 H   0  0  0  0  0  0  0  0  0  0  0  0
    3.0055   10.2807    2.3479 H   0  0  0  0  0  0  0  0  0  0  0  0
    4.3085    9.7252    6.2893 H   0  0  0  0  0  0  0  0  0  0  0  0
    6.6633    9.8006    5.5928 H   0  0  0  0  0  0  0  0  0  0  0  0
  1  2  2  0
  2  3  2  0
  2  4  1  0
  4  5  1  0
  5  6  1  0
  6  7  1  0
  7  8  1  0
  8  9  1  0
  9 10  2  0
 10 11  1  0
 11 12  2  0
 12 13  1  0
 13 14  2  0
 14 15  1  0
 14 16  1  0
 16 17  2  0
  2 18  1  0
 18 19  2  0
 19 20  1  0
 20 21  2  0
 21 22  1  0
 22 23  2  0
 23 24  1  0
 24 25  2  0
 25 26  1  0
 26 27  2  0
 17 11  1  0
 27 18  1  0
 27 22  1  0
  4 28  1  0
  5 29  1  0
  5 30  1  0
  6 31  1  0
  6 32  1  0
  7 33  1  0
  7 34  1  0
  8 35  1  0
  8 36  1  0
  9 37  1  0
 10 38  1  0
 12 39  1  0
 13 40  1  0
 16 41  1  0
 17 42  1  0
 19 43  1  0
 20 44  1  0
 21 45  1  0
 23 46  1  0
 25 47  1  0
 26 48  1  0
M  CHG  1   7   1
M  END
>  <meeko>  (2) 
{"is_sidechain": [false], "free_energy": -9.0, "intermolecular_energy": -13.493, "internal_energy": -0.527}

$$$$
1ydt_ligand
     RDKit          3D

 48 50  0  0  0  0  0  0  0  0999 V2000
    8.9140    8.8500    4.6160 O   0  0  0  0  0  0  0  0  0  0  0  0
    8.7560   10.1600    4.0030 S   0  0  0  0  0  0  0  0  0  0  0  0
    8.8690   11.3680    4.7790 O   0  0  0  0  0  0  0  0  0  0  0  0
    9.9890   10.1890    2.8750 N   0  0  0  0  0  0  0  0  0  0  0  0
   11.2110    9.3910    3.0360 C   0  0  0  0  0  0  0  0  0  0  0  0
   12.3730   10.2740    3.5350 C   0  0  0  0  0  0  0  0  0  0  0  0
   13.4180   10.4410    2.4720 N   0  0  0  0  0  0  0  0  0  0  0  0
   12.9700   11.0020    1.1730 C   0  0  0  0  0  0  0  0  0  0  0  0
   14.0720   11.0500    0.1680 C   0  0  0  0  0  0  0  0  0  0  0  0
   14.4060   10.0210   -0.6300 C   0  0  0  0  0  0  0  0  0  0  0  0
   15.5200   10.0650   -1.5880 C   0  0  0  0  0  0  0  0  0  0  0  0
   16.3630   11.1780   -1.7050 C   0  0  0  0  0  0  0  0  0  0  0  0
   17.4020   11.1870   -2.6410 C   0  0  0  0  0  0  0  0  0  0  0  0
   17.5940   10.0860   -3.4720 C   0  0  0  0  0  0  0  0  0  0  0  0
   18.9990   10.0970   -4.7350 Br  0  0  0  0  0  0  0  0  0  0  0  0
   16.7540    8.9800   -3.3800 C   0  0  0  0  0  0  0  0  0  0  0  0
   15.7160    8.9730   -2.4440 C   0  0  0  0  0  0  0  0  0  0  0  0
    7.2770   10.1930    3.0290 C   0  0  0  0  0  0  0  0  0  0  0  0
    7.4320   10.3360    1.6390 C   0  0  0  0  0  0  0  0  0  0  0  0
    6.3130   10.4280    0.8210 C   0  0  0  0  0  0  0  0  0  0  0  0
    5.0420   10.3820    1.3830 C   0  0  0  0  0  0  0  0  0  0  0  0
    4.8710   10.2210    2.7700 C   0  0  0  0  0  0  0  0  0  0  0  0
    3.5930   10.1670    3.3310 C   0  0  0  0  0  0  0  0  0  0  0  0
    3.3390   10.0050    4.6460 N   0  0  0  0  0  0  0  0  0  0  0  0
    4.4030    9.8620    5.4510 C   0  0  0  0  0  0  0  0  0  0  0  0
    5.7150    9.9080    5.0040 C   0  0  0  0  0  0  0  0  0  0  0  0
    5.9880   10.1060    3.6290 C   0  0  0  0  0  0  0  0  0  0  0  0
    9.7870   10.6690    1.9940 H   0  0  0  0  0  0  0  0  0  0  0  0
   11.0261    8.5897    3.7666 H   0  0  0  0  0  0  0  0  0  0  0  0
   11.4851    8.9609    2.0614 H   0  0  0  0  0  0  0  0  0  0  0  0
   11.9797   11.2635    3.8110 H   0  0  0  0  0  0  0  0  0  0  0  0
   12.8347    9.7854    4.4057 H   0  0  0  0  0  0  0  0  0  0  0  0
   14.1730   11.0650    2.8210 H   0  0  0  0  0  0  0  0  0  0  0  0
   13.9070    9.5540    2.3080 H   0  0  0  0  0  0  0  0  0  0  0  0
   12.1576   10.3745    0.7778 H   0  0  0  0  0  0  0  0  0  0  0  0
   12.6304   12.0331    1.3503 H   0  0  0  0  0  0  0  0  0  0  0  0
   14.6457   11.9838    0.0745 H   0  0  0  0  0  0  0  0  0  0  0  0
   13.8139    9.0964   -0.5624 H   0  0  0  0  0  0  0  0  0  0  0  0
   16.2063   12.0518   -1.0554 H   0  0  0  0  0  0  0  0  0  0  0  0
   18.0654   12.0608   -2.7206 H   0  0  0  0  0  0  0  0  0  0  0  0
   16.9065    8.1145   -4.0416 H   0  0  0  0  0  0  0  0  0  0  0  0
   15.0469    8.1024   -2.3787 H   0  0  0  0  0  0  0  0  0  0  0  0
    8.4395   10.3750    1.1991 H   0  0  0  0  0  0  0  0  0  0  0  0
    6.4320   10.5368   -0.2671 H   0  0  0  0  0  0  0  0  0  0  0  0
    4.1583   10.4727    0.7343 H   0  0  0  0  0  0  0  0  0  0  0  0
    2.7326   10.2634    2.6525 H   0  0  0  0  0  0  0  0  0  0  0  0
    4.2248    9.6994    6.5242 H   0  0  0  0  0  0  0  0  0  0  0  0
    6.5436    9.7906    5.7179 H   0  0  0  0  0  0  0  0  0  0  0  0
  1  2  2  0
  2  3  2  0
  2  4  1  0
  4  5  1  0
  5  6  1  0
  6  7  1  0
  7  8  1  0
  8  9  1  0
  9 10  2  0
 10 11  1  0
 11 12  2  0
 12 13  1  0
 13 14  2  0
 14 15  1  0
 14 16  1  0
 16 17  2  0
  2 18  1  0
 18 19  2  0
 19 20  1  0
 20 21  2  0
 21 22  1  0
 22 23  2  0
 23 24  1  0
 24 25  2  0
 25 26  1  0
 26 27  2  0
 17 11  1  0
 27 18  1  0
 27 22  1  0
  4 28  1  0
  5 29  1  0
  5 30  1  0
  6 31  1  0
  6 32  1  0
  7 33  1  0
  7 34  1  0
  8 35  1  0
  8 36  1  0
  9 37  1  0
 10 38  1  0
 12 39  1  0
 13 40  1  0
 16 41  1  0
 17 42  1  0
 19 43  1  0
 20 44  1  0
 21 45  1  0
 23 46  1  0
 25 47  1  0
 26 48  1  0
M  CHG  1   7   1
M  END
>  <meeko>  (3) 
{"is_sidechain": [false], "free_energy": -8.866, "intermolecular_energy": -13.301, "internal_energy": -0.522}

$$$$
1ydt_ligand
     RDKit          3D

 48 50  0  0  0  0  0  0  0  0999 V2000
    8.8420    6.7960    3.3090 O   0  0  0  0  0  0  0  0  0  0  0  0
    9.6600    7.9980    3.2710 S   0  0  0  0  0  0  0  0  0  0  0  0
    9.7780    8.8600    4.4200 O   0  0  0  0  0  0  0  0  0  0  0  0
   11.1870    7.3940    2.9570 N   0  0  0  0  0  0  0  0  0  0  0  0
   12.3880    7.9380    3.6020 C   0  0  0  0  0  0  0  0  0  0  0  0
   13.6310    7.1120    3.2160 C   0  0  0  0  0  0  0  0  0  0  0  0
   14.0620    7.4120    1.8110 N   0  0  0  0  0  0  0  0  0  0  0  0
   14.5830    8.7760    1.5460 C   0  0  0  0  0  0  0  0  0  0  0  0
   15.0740    8.9310    0.1450 C   0  0  0  0  0  0  0  0  0  0  0  0
   14.6020    9.8460   -0.7190 C   0  0  0  0  0  0  0  0  0  0  0  0
   15.0630    9.9630   -2.1100 C   0  0  0  0  0  0  0  0  0  0  0  0
   14.5460   10.9220   -2.9910 C   0  0  0  0  0  0  0  0  0  0  0  0
   15.0010   10.9900   -4.3130 C   0  0  0  0  0  0  0  0  0  0  0  0
   15.9660   10.0920   -4.7600 C   0  0  0  0  0  0  0  0  0  0  0  0
   16.5810   10.1850   -6.5440 Br  0  0  0  0  0  0  0  0  0  0  0  0
   16.4760    9.1220   -3.9010 C   0  0  0  0  0  0  0  0  0  0  0  0
   16.0210    9.0540   -2.5810 C   0  0  0  0  0  0  0  0  0  0  0  0
    9.2650    8.9480    1.8300 C   0  0  0  0  0  0  0  0  0  0  0  0
   10.2520    9.0380    0.8340 C   0  0  0  0  0  0  0  0  0  0  0  0
   10.0320    9.8150   -0.2960 C   0  0  0  0  0  0  0  0  0  0  0  0
    8.8320   10.5050   -0.4350 C   0  0  0  0  0  0  0  0  0  0  0  0
    7.8270   10.4100    0.5440 C   0  0  0  0  0  0  0  0  0  0  0  0
    6.6200   11.0980    0.3970 C   0  0  0  0  0  0  0  0  0  0  0  0
    5.6010   11.0550    1.2810 N   0  0  0  0  0  0  0  0  0  0  0  0
    5.7690   10.2710    2.3560 C   0  0  0  0  0  0  0  0  0  0  0  0
    6.9290    9.5510    2.6070 C   0  0  0  0  0  0  0  0  0  0  0  0
    8.0120    9.6140    1.6980 C   0  0  0  0  0  0  0  0  0  0  0  0
   11.2280    6.5300    2.4110 H   0  0  0  0  0  0  0  0  0  0  0  0
   12.5315    8.9798    3.2794 H   0  0  0  0  0  0  0  0  0  0  0  0
   12.2564    7.8929    4.6932 H   0  0  0  0  0  0  0  0  0  0  0  0
   14.4533    7.3568    3.9043 H   0  0  0  0  0  0  0  0  0  0  0  0
   13.3763    6.0440    3.2835 H   0  0  0  0  0  0  0  0  0  0  0  0
   14.8100    6.7470    1.5260 H   0  0  0  0  0  0  0  0  0  0  0  0
   13.3040    7.2040    1.1510 H   0  0  0  0  0  0  0  0  0  0  0  0
   13.7764    9.5032    1.7209 H   0  0  0  0  0  0  0  0  0  0  0  0
   15.4330    8.9495    2.2223 H   0  0  0  0  0  0  0  0  0  0  0  0
   15.8702    8.2556   -0.2013 H   0  0  0  0  0  0  0  0  0  0  0  0
   13.8292   10.5449   -0.3663 H   0  0  0  0  0  0  0  0  0  0  0  0
   13.7770   11.6265   -2.6413 H   0  0  0  0  0  0  0  0  0  0  0  0
   14.5970   11.7511   -4.9968 H   0  0  0  0  0  0  0  0  0  0  0  0
   17.2348    8.4112   -4.2601 H   0  0  0  0  0  0  0  0  0  0  0  0
   16.4178    8.2811   -1.9063 H   0  0  0  0  0  0  0  0  0  0  0  0
   11.2001    8.4924    0.9494 H   0  0  0  0  0  0  0  0  0  0  0  0
   10.8030    9.8845   -1.0775 H   0  0  0  0  0  0  0  0  0  0  0  0
    8.6671   11.1334   -1.3227 H   0  0  0  0  0  0  0  0  0  0  0  0
    6.4911   11.7182   -0.5023 H   0  0  0  0  0  0  0  0  0  0  0  0
    4.9427   10.1943    3.0781 H   0  0  0  0  0  0  0  0  0  0  0  0
    7.0065    8.9314    3.5126 H   0  0  0  0  0  0  0  0  0  0  0  0
  1  2  2  0
  2  3  2  0
  2  4  1  0
  4  5  1  0
  5  6  1  0
  6  7  1  0
  7  8  1  0
  8  9  1  0
  9 10  2  0
 10 11  1  0
 11 12  2  0
 12 13  1  0
 13 14  2  0
 14 15  1  0
 14 16  1  0
 16 17  2  0
  2 18  1  0
 18 19  2  0
 19 20  1  0
 20 21  2  0
 21 22  1  0
 22 23  2  0
 23 24  1  0
 24 25  2  0
 25 26  1  0
 26 27  2  0
 17 11  1  0
 27 18  1  0
 27 22  1  0
  4 28  1  0
  5 29  1  0
  5 30  1  0
  6 31  1  0
  6 32  1  0
  7 33  1  0
  7 34  1  0
  8 35  1  0
  8 36  1  0
  9 37  1  0
 10 38  1  0
 12 39  1  0
 13 40  1  0
 16 41  1  0
 17 42  1  0
 19 43  1  0
 20 44  1  0
 21 45  1  0
 23 46  1  0
 25 47  1  0
 26 48  1  0
M  CHG  1   7   1
M  END
>  <meeko>  (4) 
{"is_sidechain": [false], "free_energy": -8.844, "intermolecular_energy": -13.062, "internal_energy": -0.728}

$$$$
1ydt_ligand
     RDKit          3D

 48 50  0  0  0  0  0  0  0  0999 V2000
   12.8890   10.6660   -0.9700 O   0  0  0  0  0  0  0  0  0  0  0  0
   14.1580   11.2940   -0.6380 S   0  0  0  0  0  0  0  0  0  0  0  0
   14.2950   12.7280   -0.5940 O   0  0  0  0  0  0  0  0  0  0  0  0
   14.4550   10.7290    0.9070 N   0  0  0  0  0  0  0  0  0  0  0  0
   13.3810   10.2220    1.7710 C   0  0  0  0  0  0  0  0  0  0  0  0
   13.5810    8.7200    2.0570 C   0  0  0  0  0  0  0  0  0  0  0  0
   12.2690    7.9920    2.0550 N   0  0  0  0  0  0  0  0  0  0  0  0
   11.2170    8.5100    1.1450 C   0  0  0  0  0  0  0  0  0  0  0  0
    9.8900    8.6150    1.8190 C   0  0  0  0  0  0  0  0  0  0  0  0
    9.2530    9.7760    2.0480 C   0  0  0  0  0  0  0  0  0  0  0  0
    7.9650    9.8720    2.7490 C   0  0  0  0  0  0  0  0  0  0  0  0
    6.7640   10.1300    2.0760 C   0  0  0  0  0  0  0  0  0  0  0  0
    5.5600   10.2300    2.7820 C   0  0  0  0  0  0  0  0  0  0  0  0
    5.5560   10.0840    4.1670 C   0  0  0  0  0  0  0  0  0  0  0  0
    3.9310   10.2170    5.1200 Br  0  0  0  0  0  0  0  0  0  0  0  0
    6.7440    9.8460    4.8520 C   0  0  0  0  0  0  0  0  0  0  0  0
    7.9460    9.7460    4.1450 C   0  0  0  0  0  0  0  0  0  0  0  0
   15.4530   10.5840   -1.6150 C   0  0  0  0  0  0  0  0  0  0  0  0
   16.5460   10.0340   -0.9240 C   0  0  0  0  0  0  0  0  0  0  0  0
   17.6240    9.5140   -1.6280 C   0  0  0  0  0  0  0  0  0  0  0  0
   17.6180    9.5430   -3.0180 C   0  0  0  0  0  0  0  0  0  0  0  0
   16.5240   10.0730   -3.7240 C   0  0  0  0  0  0  0  0  0  0  0  0
   16.5180   10.0940   -5.1210 C   0  0  0  0  0  0  0  0  0  0  0  0
   15.5070   10.5740   -5.8770 N   0  0  0  0  0  0  0  0  0  0  0  0
   14.4320   11.0350   -5.2200 C   0  0  0  0  0  0  0  0  0  0  0  0
   14.3350   11.0710   -3.8360 C   0  0  0  0  0  0  0  0  0  0  0  0
   15.4030   10.5950   -3.0390 C   0  0  0  0  0  0  0  0  0  0  0  0
   15.4380   10.6100    1.1650 H   0  0  0  0  0  0  0  0  0  0  0  0
   13.3894   10.7756    2.7215 H   0  0  0  0  0  0  0  0  0  0  0  0
   12.4173   10.3613    1.2592 H   0  0  0  0  0  0  0  0  0  0  0  0
   14.2320    8.2899    1.2816 H   0  0  0  0  0  0  0  0  0  0  0  0
   14.0404    8.6109    3.0505 H   0  0  0  0  0  0  0  0  0  0  0  0
   12.4230    6.9970    1.7960 H   0  0  0  0  0  0  0  0  0  0  0  0
   11.8930    7.9290    3.0080 H   0  0  0  0  0  0  0  0  0  0  0  0
   11.5146    9.5082    0.7914 H   0  0  0  0  0  0  0  0  0  0  0  0
   11.1158    7.8026    0.3087 H   0  0  0  0  0  0  0  0  0  0  0  0
    9.4033    7.6852    2.1486 H   0  0  0  0  0  0  0  0  0  0  0  0
    9.7213   10.7052    1.6912 H   0  0  0  0  0  0  0  0  0  0  0  0
    6.7673   10.2551    0.9831 H   0  0  0  0  0  0  0  0  0  0  0  0
    4.6198   10.4233    2.2448 H   0  0  0  0  0  0  0  0  0  0  0  0
    6.7372    9.7369    5.9466 H   0  0  0  0  0  0  0  0  0  0  0  0
    8.8851    9.5669    4.6890 H   0  0  0  0  0  0  0  0  0  0  0  0
   16.5476   10.0154    0.1758 H   0  0  0  0  0  0  0  0  0  0  0  0
   18.4791    9.0810   -1.0883 H   0  0  0  0  0  0  0  0  0  0  0  0
   18.4809    9.1459   -3.5728 H   0  0  0  0  0  0  0  0  0  0  0  0
   17.3990    9.6911   -5.6420 H   0  0  0  0  0  0  0  0  0  0  0  0
   13.5808   11.4047   -5.8106 H   0  0  0  0  0  0  0  0  0  0  0  0
   13.4277   11.4696   -3.3585 H   0  0  0  0  0  0  0  0  0  0  0  0
  1  2  2  0
  2  3  2  0
  2  4  1  0
  4  5  1  0
  5  6  1  0
  6  7  1  0
  7  8  1  0
  8  9  1  0
  9 10  2  0
 10 11  1  0
 11 12  2  0
 12 13  1  0
 13 14  2  0
 14 15  1  0
 14 16  1  0
 16 17  2  0
  2 18  1  0
 18 19  2  0
 19 20  1  0
 20 21  2  0
 21 22  1  0
 22 23  2  0
 23 24  1  0
 24 25  2  0
 25 26  1  0
 26 27  2  0
 17 11  1  0
 27 18  1  0
 27 22  1  0
  4 28  1  0
  5 29  1  0
  5 30  1  0
  6 31  1  0
  6 32  1  0
  7 33  1  0
  7 34  1  0
  8 35  1  0
  8 36  1  0
  9 37  1  0
 10 38  1  0
 12 39  1  0
 13 40  1  0
 16 41  1  0
 17 42  1  0
 19 43  1  0
 20 44  1  0
 21 45  1  0
 23 46  1  0
 25 47  1  0
 26 48  1  0
M  CHG  1   7   1
M  END
>  <meeko>  (5) 
{"is_sidechain": [false], "free_energy": -8.838, "intermolecular_energy": -13.157, "internal_energy": -0.625}

$$$$
1ydt_ligand
     RDKit          3D

 48 50  0  0  0  0  0  0  0  0999 V2000
   12.1120    9.6530    0.0470 O   0  0  0  0  0  0  0  0  0  0  0  0
   13.3660    9.6350    0.7840 S   0  0  0  0  0  0  0  0  0  0  0  0
   13.4770   10.2360    2.0880 O   0  0  0  0  0  0  0  0  0  0  0  0
   13.6570    8.0000    0.9750 N   0  0  0  0  0  0  0  0  0  0  0  0
   14.4360    7.4730    2.1020 C   0  0  0  0  0  0  0  0  0  0  0  0
   13.5130    6.7740    3.1200 C   0  0  0  0  0  0  0  0  0  0  0  0
   12.1110    7.2980    3.0250 N   0  0  0  0  0  0  0  0  0  0  0  0
   11.7040    8.3120    4.0290 C   0  0  0  0  0  0  0  0  0  0  0  0
   10.2250    8.5000    4.0750 C   0  0  0  0  0  0  0  0  0  0  0  0
    9.6130    9.6890    3.9380 C   0  0  0  0  0  0  0  0  0  0  0  0
    8.1570    9.8680    4.0250 C   0  0  0  0  0  0  0  0  0  0  0  0
    7.3750   10.1910    2.9080 C   0  0  0  0  0  0  0  0  0  0  0  0
    5.9930   10.3690    3.0360 C   0  0  0  0  0  0  0  0  0  0  0  0
    5.3910   10.2370    4.2850 C   0  0  0  0  0  0  0  0  0  0  0  0
    3.5250   10.4760    4.4570 Br  0  0  0  0  0  0  0  0  0  0  0  0
    6.1570    9.9340    5.4070 C   0  0  0  0  0  0  0  0  0  0  0  0
    7.5380    9.7560    5.2780 C   0  0  0  0  0  0  0  0  0  0  0  0
   14.6850   10.1890   -0.2610 C   0  0  0  0  0  0  0  0  0  0  0  0
   15.5570    9.2080   -0.7620 C   0  0  0  0  0  0  0  0  0  0  0  0
   16.6470    9.5780   -1.5390 C   0  0  0  0  0  0  0  0  0  0  0  0
   16.8720   10.9230   -1.8160 C   0  0  0  0  0  0  0  0  0  0  0  0
   15.9980   11.9140   -1.3360 C   0  0  0  0  0  0  0  0  0  0  0  0
   16.2220   13.2630   -1.6220 C   0  0  0  0  0  0  0  0  0  0  0  0
   15.4310   14.2760   -1.2110 N   0  0  0  0  0  0  0  0  0  0  0  0
   14.3420   13.9400   -0.5020 C   0  0  0  0  0  0  0  0  0  0  0  0
   14.0270   12.6340   -0.1530 C   0  0  0  0  0  0  0  0  0  0  0  0
   14.8690   11.5700   -0.5570 C   0  0  0  0  0  0  0  0  0  0  0  0
   13.1370    7.3720    0.3560 H   0  0  0  0  0  0  0  0  0  0  0  0
   15.1726    6.7483    1.7248 H   0  0  0  0  0  0  0  0  0  0  0  0
   14.9465    8.3093    2.6021 H   0  0  0  0  0  0  0  0  0  0  0  0
   13.5072    5.6930    2.9168 H   0  0  0  0  0  0  0  0  0  0  0  0
   13.8935    6.9746    4.1324 H   0  0  0  0  0  0  0  0  0  0  0  0
   11.9630    7.7290    2.0900 H   0  0  0  0  0  0  0  0  0  0  0  0
   11.4370    6.5240    3.0320 H   0  0  0  0  0  0  0  0  0  0  0  0
   12.0504    7.9867    5.0210 H   0  0  0  0  0  0  0  0  0  0  0  0
   12.1568    9.2721    3.7408 H   0  0  0  0  0  0  0  0  0  0  0  0
    9.5963    7.6109    4.2306 H   0  0  0  0  0  0  0  0  0  0  0  0
   10.2359   10.5761    3.7506 H   0  0  0  0  0  0  0  0  0  0  0  0
    7.8512   10.3055    1.9230 H   0  0  0  0  0  0  0  0  0  0  0  0
    5.3839   10.6124    2.1529 H   0  0  0  0  0  0  0  0  0  0  0  0
    5.6775    9.8349    6.3920 H   0  0  0  0  0  0  0  0  0  0  0  0
    8.1437    9.5262    6.1670 H   0  0  0  0  0  0  0  0  0  0  0  0
   15.3763    8.1462   -0.5387 H   0  0  0  0  0  0  0  0  0  0  0  0
   17.3296    8.8111   -1.9338 H   0  0  0  0  0  0  0  0  0  0  0  0
   17.7450   11.2146   -2.4183 H   0  0  0  0  0  0  0  0  0  0  0  0
   17.1060   13.5174   -2.2251 H   0  0  0  0  0  0  0  0  0  0  0  0
   13.6625   14.7429   -0.1802 H   0  0  0  0  0  0  0  0  0  0  0  0
   13.1228   12.4256    0.4377 H   0  0  0  0  0  0  0  0  0  0  0  0
  1  2  2  0
  2  3  2  0
  2  4  1  0
  4  5  1  0
  5  6  1  0
  6  7  1  0
  7  8  1  0
  8  9  1  0
  9 10  2  0
 10 11  1  0
 11 12  2  0
 12 13  1  0
 13 14  2  0
 14 15  1  0
 14 16  1  0
 16 17  2  0
  2 18  1  0
 18 19  2  0
 19 20  1  0
 20 21  2  0
 21 22  1  0
 22 23  2  0
 23 24  1  0
 24 25  2  0
 25 26  1  0
 26 27  2  0
 17 11  1  0
 27 18  1  0
 27 22  1  0
  4 28  1  0
  5 29  1  0
  5 30  1  0
  6 31  1  0
  6 32  1  0
  7 33  1  0
  7 34  1  0
  8 35  1  0
  8 36  1  0
  9 37  1  0
 10 38  1  0
 12 39  1  0
 13 40  1  0
 16 41  1  0
 17 42  1  0
 19 43  1  0
 20 44  1  0
 21 45  1  0
 23 46  1  0
 25 47  1  0
 26 48  1  0
M  CHG  1   7   1
M  END
>  <meeko>  (6) 
{"is_sidechain": [false], "free_energy": -8.746, "intermolecular_energy": -13.042, "internal_energy": -0.605}

$$$$
1ydt_ligand
     RDKit          3D

 48 50  0  0  0  0  0  0  0  0999 V2000
   15.7210   11.3350   -0.7690 O   0  0  0  0  0  0  0  0  0  0  0  0
   15.3310   10.1280   -1.4820 S   0  0  0  0  0  0  0  0  0  0  0  0
   15.5940    8.8200   -0.9390 O   0  0  0  0  0  0  0  0  0  0  0  0
   13.6700   10.2860   -1.5890 N   0  0  0  0  0  0  0  0  0  0  0  0
   12.8790   10.9260   -0.5320 C   0  0  0  0  0  0  0  0  0  0  0  0
   12.0240    9.8810    0.2130 C   0  0  0  0  0  0  0  0  0  0  0  0
   12.1270   10.0600    1.6980 N   0  0  0  0  0  0  0  0  0  0  0  0
   11.6540    8.9350    2.5430 C   0  0  0  0  0  0  0  0  0  0  0  0
   10.1920    9.0200    2.8300 C   0  0  0  0  0  0  0  0  0  0  0  0
    9.5840   10.1160    3.3140 C   0  0  0  0  0  0  0  0  0  0  0  0
    8.1500   10.1760    3.6310 C   0  0  0  0  0  0  0  0  0  0  0  0
    7.1680   10.2850    2.6370 C   0  0  0  0  0  0  0  0  0  0  0  0
    5.8140   10.3560    2.9810 C   0  0  0  0  0  0  0  0  0  0  0  0
    5.4380   10.3310    4.3210 C   0  0  0  0  0  0  0  0  0  0  0  0
    3.6090   10.4250    4.7860 Br  0  0  0  0  0  0  0  0  0  0  0  0
    6.4030   10.2410    5.3210 C   0  0  0  0  0  0  0  0  0  0  0  0
    7.7560   10.1700    4.9760 C   0  0  0  0  0  0  0  0  0  0  0  0
   15.8840   10.2180   -3.1620 C   0  0  0  0  0  0  0  0  0  0  0  0
   14.9040   10.4340   -4.1450 C   0  0  0  0  0  0  0  0  0  0  0  0
   15.2590   10.4560   -5.4880 C   0  0  0  0  0  0  0  0  0  0  0  0
   16.5870   10.2610   -5.8540 C   0  0  0  0  0  0  0  0  0  0  0  0
   17.5810   10.0610   -4.8800 C   0  0  0  0  0  0  0  0  0  0  0  0
   18.9150    9.8720   -5.2500 C   0  0  0  0  0  0  0  0  0  0  0  0
   19.9320    9.6840   -4.3830 N   0  0  0  0  0  0  0  0  0  0  0  0
   19.6230    9.7100   -3.0770 C   0  0  0  0  0  0  0  0  0  0  0  0
   18.3320    9.8810   -2.5980 C   0  0  0  0  0  0  0  0  0  0  0  0
   17.2570   10.0500   -3.5040 C   0  0  0  0  0  0  0  0  0  0  0  0
   13.2510   10.0530   -2.4930 H   0  0  0  0  0  0  0  0  0  0  0  0
   13.5580   11.4138    0.1828 H   0  0  0  0  0  0  0  0  0  0  0  0
   12.2108   11.6702   -0.9899 H   0  0  0  0  0  0  0  0  0  0  0  0
   10.9728    9.9943   -0.0906 H   0  0  0  0  0  0  0  0  0  0  0  0
   12.3946    8.8779   -0.0449 H   0  0  0  0  0  0  0  0  0  0  0  0
   13.1190   10.2320    1.9600 H   0  0  0  0  0  0  0  0  0  0  0  0
   11.6570   10.9240    1.9900 H   0  0  0  0  0  0  0  0  0  0  0  0
   11.8576    7.9892    2.0196 H   0  0  0  0  0  0  0  0  0  0  0  0
   12.1895    8.9856    3.5025 H   0  0  0  0  0  0  0  0  0  0  0  0
    9.5745    8.1312    2.6333 H   0  0  0  0  0  0  0  0  0  0  0  0
   10.1922   11.0170    3.4821 H   0  0  0  0  0  0  0  0  0  0  0  0
    7.4643   10.3150    1.5781 H   0  0  0  0  0  0  0  0  0  0  0  0
    5.0484   10.4314    2.1947 H   0  0  0  0  0  0  0  0  0  0  0  0
    6.1017   10.2258    6.3788 H   0  0  0  0  0  0  0  0  0  0  0  0
    8.5179   10.1089    5.7671 H   0  0  0  0  0  0  0  0  0  0  0  0
   13.8549   10.5858   -3.8512 H   0  0  0  0  0  0  0  0  0  0  0  0
   14.4931   10.6269   -6.2589 H   0  0  0  0  0  0  0  0  0  0  0  0
   16.8628   10.2633   -6.9189 H   0  0  0  0  0  0  0  0  0  0  0  0
   19.1531    9.8768   -6.3239 H   0  0  0  0  0  0  0  0  0  0  0  0
   20.4371    9.5892   -2.3472 H   0  0  0  0  0  0  0  0  0  0  0  0
   18.1436    9.8853   -1.5143 H   0  0  0  0  0  0  0  0  0  0  0  0
  1  2  2  0
  2  3  2  0
  2  4  1  0
  4  5  1  0
  5  6  1  0
  6  7  1  0
  7  8  1  0
  8  9  1  0
  9 10  2  0
 10 11  1  0
 11 12  2  0
 12 13  1  0
 13 14  2  0
 14 15  1  0
 14 16  1  0
 16 17  2  0
  2 18  1  0
 18 19  2  0
 19 20  1  0
 20 21  2  0
 21 22  1  0
 22 23  2  0
 23 24  1  0
 24 25  2  0
 25 26  1  0
 26 27  2  0
 17 11  1  0
 27 18  1  0
 27 22  1  0
  4 28  1  0
  5 29  1  0
  5 30  1  0
  6 31  1  0
  6 32  1  0
  7 33  1  0
  7 34  1  0
  8 35  1  0
  8 36  1  0
  9 37  1  0
 10 38  1  0
 12 39  1  0
 13 40  1  0
 16 41  1  0
 17 42  1  0
 19 43  1  0
 20 44  1  0
 21 45  1  0
 23 46  1  0
 25 47  1  0
 26 48  1  0
M  CHG  1   7   1
M  END
>  <meeko>  (7) 
{"is_sidechain": [false], "free_energy": -8.687, "intermolecular_energy": -13.061, "internal_energy": -0.499}

$$$$
1ydt_ligand
     RDKit          3D

 48 50  0  0  0  0  0  0  0  0999 V2000
   17.5880    7.8070    0.6260 O   0  0  0  0  0  0  0  0  0  0  0  0
   16.1550    8.0470    0.7070 S   0  0  0  0  0  0  0  0  0  0  0  0
   15.2070    6.9670    0.6000 O   0  0  0  0  0  0  0  0  0  0  0  0
   15.9780    8.7010    2.2350 N   0  0  0  0  0  0  0  0  0  0  0  0
   14.9400    8.2390    3.1650 C   0  0  0  0  0  0  0  0  0  0  0  0
   13.6050    8.9590    2.8870 C   0  0  0  0  0  0  0  0  0  0  0  0
   12.6190    8.0350    2.2370 N   0  0  0  0  0  0  0  0  0  0  0  0
   11.5400    8.6630    1.4350 C   0  0  0  0  0  0  0  0  0  0  0  0
   10.2700    8.8000    2.2080 C   0  0  0  0  0  0  0  0  0  0  0  0
    9.2630    9.6180    1.8580 C   0  0  0  0  0  0  0  0  0  0  0  0
    8.0340    9.7760    2.6480 C   0  0  0  0  0  0  0  0  0  0  0  0
    7.9990    9.5560    4.0310 C   0  0  0  0  0  0  0  0  0  0  0  0
    6.8050    9.7010    4.7450 C   0  0  0  0  0  0  0  0  0  0  0  0
    5.6370   10.0560    4.0740 C   0  0  0  0  0  0  0  0  0  0  0  0
    4.0240   10.2540    5.0370 Br  0  0  0  0  0  0  0  0  0  0  0  0
    5.6510   10.2610    2.6970 C   0  0  0  0  0  0  0  0  0  0  0  0
    6.8460   10.1160    1.9860 C   0  0  0  0  0  0  0  0  0  0  0  0
   15.7050    9.3680   -0.3840 C   0  0  0  0  0  0  0  0  0  0  0  0
   15.3740   10.5990    0.2070 C   0  0  0  0  0  0  0  0  0  0  0  0
   14.9560   11.6610   -0.5840 C   0  0  0  0  0  0  0  0  0  0  0  0
   14.8630   11.4980   -1.9630 C   0  0  0  0  0  0  0  0  0  0  0  0
   15.2080   10.2780   -2.5700 C   0  0  0  0  0  0  0  0  0  0  0  0
   15.1210   10.1200   -3.9550 C   0  0  0  0  0  0  0  0  0  0  0  0
   15.4410    8.9900   -4.6210 N   0  0  0  0  0  0  0  0  0  0  0  0
   15.8980    7.9670   -3.8830 C   0  0  0  0  0  0  0  0  0  0  0  0
   16.0160    8.0100   -2.5010 C   0  0  0  0  0  0  0  0  0  0  0  0
   15.6550    9.1830   -1.7950 C   0  0  0  0  0  0  0  0  0  0  0  0
   16.7230    9.3300    2.5480 H   0  0  0  0  0  0  0  0  0  0  0  0
   14.7992    7.1551    3.0407 H   0  0  0  0  0  0  0  0  0  0  0  0
   15.2582    8.4651    4.1934 H   0  0  0  0  0  0  0  0  0  0  0  0
   13.1864    9.3197    3.8381 H   0  0  0  0  0  0  0  0  0  0  0  0
   13.7971    9.8008    2.2054 H   0  0  0  0  0  0  0  0  0  0  0  0
   13.1210    7.3810    1.6020 H   0  0  0  0  0  0  0  0  0  0  0  0
   12.2030    7.4070    2.9340 H   0  0  0  0  0  0  0  0  0  0  0  0
   11.8709    9.6627    1.1171 H   0  0  0  0  0  0  0  0  0  0  0  0
   11.3405    8.0136    0.5698 H   0  0  0  0  0  0  0  0  0  0  0  0
   10.1515    8.1949    3.1189 H   0  0  0  0  0  0  0  0  0  0  0  0
    9.3640   10.2006    0.9304 H   0  0  0  0  0  0  0  0  0  0  0  0
    8.9188    9.2666    4.5603 H   0  0  0  0  0  0  0  0  0  0  0  0
    6.7884    9.5353    5.8323 H   0  0  0  0  0  0  0  0  0  0  0  0
    4.7252   10.5360    2.1704 H   0  0  0  0  0  0  0  0  0  0  0  0
    6.8541   10.2702    0.8969 H   0  0  0  0  0  0  0  0  0  0  0  0
   15.4461   10.7216    1.2978 H   0  0  0  0  0  0  0  0  0  0  0  0
   14.6997   12.6263   -0.1230 H   0  0  0  0  0  0  0  0  0  0  0  0
   14.5149   12.3349   -2.5862 H   0  0  0  0  0  0  0  0  0  0  0  0
   14.7664   10.9777   -4.5455 H   0  0  0  0  0  0  0  0  0  0  0  0
   16.1954    7.0437   -4.4018 H   0  0  0  0  0  0  0  0  0  0  0  0
   16.3902    7.1323   -1.9537 H   0  0  0  0  0  0  0  0  0  0  0  0
  1  2  2  0
  2  3  2  0
  2  4  1  0
  4  5  1  0
  5  6  1  0
  6  7  1  0
  7  8  1  0
  8  9  1  0
  9 10  2  0
 10 11  1  0
 11 12  2  0
 12 13  1  0
 13 14  2  0
 14 15  1  0
 14 16  1  0
 16 17  2  0
  2 18  1  0
 18 19  2  0
 19 20  1  0
 20 21  2  0
 21 22  1  0
 22 23  2  0
 23 24  1  0
 24 25  2  0
 25 26  1  0
 26 27  2  0
 17 11  1  0
 27 18  1  0
 27 22  1  0
  4 28  1  0
  5 29  1  0
  5 30  1  0
  6 31  1  0
  6 32  1  0
  7 33  1  0
  7 34  1  0
  8 35  1  0
  8 36  1  0
  9 37  1  0
 10 38  1  0
 12 39  1  0
 13 40  1  0
 16 41  1  0
 17 42  1  0
 19 43  1  0
 20 44  1  0
 21 45  1  0
 23 46  1  0
 25 47  1  0
 26 48  1  0
M  CHG  1   7   1
M  END
>  <meeko>  (8) 
{"is_sidechain": [false], "free_energy": -8.648, "intermolecular_energy": -12.655, "internal_energy": -0.847}

$$$$
1ydt_ligand
     RDKit          3D

 48 50  0  0  0  0  0  0  0  0999 V2000
   10.3440    9.9430   -0.4750 O   0  0  0  0  0  0  0  0  0  0  0  0
    9.9880    9.2920    0.7770 S   0  0  0  0  0  0  0  0  0  0  0  0
   10.1400    7.8710    0.9520 O   0  0  0  0  0  0  0  0  0  0  0  0
   11.0070   10.0300    1.8770 N   0  0  0  0  0  0  0  0  0  0  0  0
   12.3640   10.4590    1.5160 C   0  0  0  0  0  0  0  0  0  0  0  0
   13.3030    9.2410    1.3990 C   0  0  0  0  0  0  0  0  0  0  0  0
   14.5240    9.4190    2.2520 N   0  0  0  0  0  0  0  0  0  0  0  0
   15.8360    9.1680    1.6050 C   0  0  0  0  0  0  0  0  0  0  0  0
   15.7990    9.4250    0.1350 C   0  0  0  0  0  0  0  0  0  0  0  0
   16.6460    8.8670   -0.7470 C   0  0  0  0  0  0  0  0  0  0  0  0
   16.6260    9.1580   -2.1870 C   0  0  0  0  0  0  0  0  0  0  0  0
   15.8930    8.3850   -3.0970 C   0  0  0  0  0  0  0  0  0  0  0  0
   15.9140    8.6860   -4.4630 C   0  0  0  0  0  0  0  0  0  0  0  0
   16.6790    9.7540   -4.9250 C   0  0  0  0  0  0  0  0  0  0  0  0
   16.7050   10.1610   -6.7700 Br  0  0  0  0  0  0  0  0  0  0  0  0
   17.4270   10.5200   -4.0360 C   0  0  0  0  0  0  0  0  0  0  0  0
   17.4050   10.2180   -2.6710 C   0  0  0  0  0  0  0  0  0  0  0  0
    8.3670    9.8020    1.2790 C   0  0  0  0  0  0  0  0  0  0  0  0
    7.5550   10.4010    0.3010 C   0  0  0  0  0  0  0  0  0  0  0  0
    6.2950   10.8780    0.6400 C   0  0  0  0  0  0  0  0  0  0  0  0
    5.8440   10.7610    1.9500 C   0  0  0  0  0  0  0  0  0  0  0  0
    6.6370   10.1480    2.9350 C   0  0  0  0  0  0  0  0  0  0  0  0
    6.1780   10.0260    4.2490 C   0  0  0  0  0  0  0  0  0  0  0  0
    6.8680    9.4440    5.2520 N   0  0  0  0  0  0  0  0  0  0  0  0
    8.0670    8.9300    4.9380 C   0  0  0  0  0  0  0  0  0  0  0  0
    8.6250    9.0020    3.6700 C   0  0  0  0  0  0  0  0  0  0  0  0
    7.9170    9.6370    2.6200 C   0  0  0  0  0  0  0  0  0  0  0  0
   10.5870   10.3070    2.7680 H   0  0  0  0  0  0  0  0  0  0  0  0
   12.3323   10.9856    0.5507 H   0  0  0  0  0  0  0  0  0  0  0  0
   12.7459   11.1283    2.3010 H   0  0  0  0  0  0  0  0  0  0  0  0
   12.7645    8.3391    1.7256 H   0  0  0  0  0  0  0  0  0  0  0  0
   13.6198    9.1425    0.3502 H   0  0  0  0  0  0  0  0  0  0  0  0
   14.5550   10.3920    2.6190 H   0  0  0  0  0  0  0  0  0  0  0  0
   14.4520    8.8520    3.1040 H   0  0  0  0  0  0  0  0  0  0  0  0
   16.5879    9.8287    2.0612 H   0  0  0  0  0  0  0  0  0  0  0  0
   16.0893    8.1083    1.7559 H   0  0  0  0  0  0  0  0  0  0  0  0
   15.0318   10.1130   -0.2499 H   0  0  0  0  0  0  0  0  0  0  0  0
   17.3944    8.1542   -0.3705 H   0  0  0  0  0  0  0  0  0  0  0  0
   15.2964    7.5349   -2.7346 H   0  0  0  0  0  0  0  0  0  0  0  0
   15.3279    8.0808   -5.1702 H   0  0  0  0  0  0  0  0  0  0  0  0
   18.0333   11.3600   -4.4058 H   0  0  0  0  0  0  0  0  0  0  0  0
   18.0046   10.8178   -1.9705 H   0  0  0  0  0  0  0  0  0  0  0  0
    7.9172   10.4923   -0.7336 H   0  0  0  0  0  0  0  0  0  0  0  0
    5.6572   11.3460   -0.1243 H   0  0  0  0  0  0  0  0  0  0  0  0
    4.8524   11.1538    2.2192 H   0  0  0  0  0  0  0  0  0  0  0  0
    5.1833   10.4334    4.4825 H   0  0  0  0  0  0  0  0  0  0  0  0
    8.6389    8.4237    5.7296 H   0  0  0  0  0  0  0  0  0  0  0  0
    9.6169    8.5662    3.4799 H   0  0  0  0  0  0  0  0  0  0  0  0
  1  2  2  0
  2  3  2  0
  2  4  1  0
  4  5  1  0
  5  6  1  0
  6  7  1  0
  7  8  1  0
  8  9  1  0
  9 10  2  0
 10 11  1  0
 11 12  2  0
 12 13  1  0
 13 14  2  0
 14 15  1  0
 14 16  1  0
 16 17  2  0
  2 18  1  0
 18 19  2  0
 19 20  1  0
 20 21  2  0
 21 22  1  0
 22 23  2  0
 23 24  1  0
 24 25  2  0
 25 26  1  0
 26 27  2  0
 17 11  1  0
 27 18  1  0
 27 22  1  0
  4 28  1  0
  5 29  1  0
  5 30  1  0
  6 31  1  0
  6 32  1  0
  7 33  1  0
  7 34  1  0
  8 35  1  0
  8 36  1  0
  9 37  1  0
 10 38  1  0
 12 39  1  0
 13 40  1  0
 16 41  1  0
 17 42  1  0
 19 43  1  0
 20 44  1  0
 21 45  1  0
 23 46  1  0
 25 47  1  0
 26 48  1  0
M  CHG  1   7   1
M  END
>  <meeko>  (9) 
{"is_sidechain": [false], "free_energy": -8.495, "intermolecular_energy": -12.954, "internal_energy": -0.325}

$$$$
