3uew_ligand
     RDKit          3D

 49 48  0  0  0  0  0  0  0  0999 V2000
   -0.1020    4.1330   20.7690 C   0  0  0  0  0  0  0  0  0  0  0  0
    0.1580    5.5950   20.4420 C   0  0  0  0  0  0  0  0  0  0  0  0
   -0.2950    5.9960   19.0350 C   0  0  0  0  0  0  0  0  0  0  0  0
   -1.5670    5.2780   18.5840 C   0  0  0  0  0  0  0  0  0  0  0  0
   -2.8360    6.1330   18.6820 C   0  0  0  0  0  0  0  0  0  0  0  0
   -3.5170    6.1080   20.0560 C   0  0  0  0  0  0  0  0  0  0  0  0
   -3.1240    7.2980   20.9360 C   0  0  0  0  0  0  0  0  0  0  0  0
   -3.0780    8.6270   20.1750 C   0  0  0  0  0  0  0  0  0  0  0  0
   -1.6850    9.2590   20.1340 C   0  0  0  0  0  0  0  0  0  0  0  0
   -1.7660   10.7620   19.8540 C   0  0  0  0  0  0  0  0  0  0  0  0
   -3.1770   11.1700   19.4230 C   0  0  0  0  0  0  0  0  0  0  0  0
   -3.2230   12.5000   18.6610 C   0  0  0  0  0  0  0  0  0  0  0  0
   -2.2070   13.5250   19.1680 C   0  0  0  0  0  0  0  0  0  0  0  0
   -2.4690   14.9570   18.6860 C   0  0  0  0  0  0  0  0  0  0  0  0
   -3.8640   15.1810   18.1040 C   0  0  0  0  0  0  0  0  0  0  0  0
   -4.1490   16.5400   17.4580 C   0  0  0  0  0  0  0  0  0  0  0  0
   -4.7120   16.4720   16.3280 O   0  0  0  0  0  0  0  0  0  0  0  0
   -3.7820   17.5570   18.1100 O   0  0  0  0  0  0  0  0  0  0  0  0
   -0.1256    4.0000   21.8607 H   0  0  0  0  0  0  0  0  0  0  0  0
   -1.0685    3.8279   20.3414 H   0  0  0  0  0  0  0  0  0  0  0  0
    0.7000    3.5134   20.3414 H   0  0  0  0  0  0  0  0  0  0  0  0
   -0.3816    6.2164   21.1719 H   0  0  0  0  0  0  0  0  0  0  0  0
    1.2463    5.7483   20.4876 H   0  0  0  0  0  0  0  0  0  0  0  0
   -0.4827    7.0798   19.0239 H   0  0  0  0  0  0  0  0  0  0  0  0
    0.5068    5.7082   18.3392 H   0  0  0  0  0  0  0  0  0  0  0  0
   -1.4373    4.9710   17.5357 H   0  0  0  0  0  0  0  0  0  0  0  0
   -1.7067    4.4235   19.2625 H   0  0  0  0  0  0  0  0  0  0  0  0
   -2.5670    7.1743   18.4511 H   0  0  0  0  0  0  0  0  0  0  0  0
   -3.5562    5.7056   17.9688 H   0  0  0  0  0  0  0  0  0  0  0  0
   -4.6069    6.1252   19.9082 H   0  0  0  0  0  0  0  0  0  0  0  0
   -3.1889    5.1931   20.5711 H   0  0  0  0  0  0  0  0  0  0  0  0
   -3.8582    7.3874   21.7502 H   0  0  0  0  0  0  0  0  0  0  0  0
   -2.1088    7.1032   21.3120 H   0  0  0  0  0  0  0  0  0  0  0  0
   -3.4097    8.4481   19.1416 H   0  0  0  0  0  0  0  0  0  0  0  0
   -3.7360    9.3285   20.7089 H   0  0  0  0  0  0  0  0  0  0  0  0
   -1.1908    9.1010   21.1040 H   0  0  0  0  0  0  0  0  0  0  0  0
   -1.1114    8.7846   19.3241 H   0  0  0  0  0  0  0  0  0  0  0  0
   -1.4969   11.3121   20.7677 H   0  0  0  0  0  0  0  0  0  0  0  0
   -1.0694   11.0020   19.0372 H   0  0  0  0  0  0  0  0  0  0  0  0
   -3.5840   10.3818   18.7726 H   0  0  0  0  0  0  0  0  0  0  0  0
   -3.7702   11.3017   20.3400 H   0  0  0  0  0  0  0  0  0  0  0  0
   -3.0173   12.3008   17.5989 H   0  0  0  0  0  0  0  0  0  0  0  0
   -4.2236   12.9295   18.8168 H   0  0  0  0  0  0  0  0  0  0  0  0
   -2.2313   13.5207   20.2677 H   0  0  0  0  0  0  0  0  0  0  0  0
   -1.2280   13.2282   18.7637 H   0  0  0  0  0  0  0  0  0  0  0  0
   -2.3394   15.6370   19.5409 H   0  0  0  0  0  0  0  0  0  0  0  0
   -1.7543   15.1505   17.8725 H   0  0  0  0  0  0  0  0  0  0  0  0
   -4.0290   14.4101   17.3369 H   0  0  0  0  0  0  0  0  0  0  0  0
   -4.5406   15.1341   18.9700 H   0  0  0  0  0  0  0  0  0  0  0  0
  1  2  1  0
  2  3  1  0
  3  4  1  0
  4  5  1  0
  5  6  1  0
  6  7  1  0
  7  8  1  0
  8  9  1  0
  9 10  1  0
 10 11  1  0
 11 12  1  0
 12 13  1  0
 13 14  1  0
 14 15  1  0
 15 16  1  0
 16 17  2  0
 16 18  1  0
  1 19  1  0
  1 20  1  0
  1 21  1  0
  2 22  1  0
  2 23  1  0
  3 24  1  0
  3 25  1  0
  4 26  1  0
  4 27  1  0
  5 28  1  0
  5 29  1  0
  6 30  1  0
  6 31  1  0
  7 32  1  0
  7 33  1  0
  8 34  1  0
  8 35  1  0
  9 36  1  0
  9 37  1  0
 10 38  1  0
 10 39  1  0
 11 40  1  0
 11 41  1  0
 12 42  1  0
 12 43  1  0
 13 44  1  0
 13 45  1  0
 14 46  1  0
 14 47  1  0
 15 48  1  0
 15 49  1  0
M  CHG  1  18  -1
M  END
>  <meeko>  (1) 
{"is_sidechain": [false], "free_energy": -5.821, "intermolecular_energy": -10.586, "internal_energy": -1.225}

$$$$
3uew_ligand
     RDKit          3D

 49 48  0  0  0  0  0  0  0  0999 V2000
   -4.6060   16.9520   17.5850 C   0  0  0  0  0  0  0  0  0  0  0  0
   -3.2000   16.7380   18.1220 C   0  0  0  0  0  0  0  0  0  0  0  0
   -2.8830   15.2730   18.4340 C   0  0  0  0  0  0  0  0  0  0  0  0
   -3.9720   14.3070   17.9660 C   0  0  0  0  0  0  0  0  0  0  0  0
   -3.9980   12.9770   18.7270 C   0  0  0  0  0  0  0  0  0  0  0  0
   -2.8890   11.9940   18.3310 C   0  0  0  0  0  0  0  0  0  0  0  0
   -1.7790   11.8930   19.3830 C   0  0  0  0  0  0  0  0  0  0  0  0
   -1.7880   10.5660   20.1480 C   0  0  0  0  0  0  0  0  0  0  0  0
   -2.9780    9.6690   19.8010 C   0  0  0  0  0  0  0  0  0  0  0  0
   -2.7620    8.2400   20.3080 C   0  0  0  0  0  0  0  0  0  0  0  0
   -1.2930    7.8270   20.1940 C   0  0  0  0  0  0  0  0  0  0  0  0
   -1.0570    6.6700   19.2160 C   0  0  0  0  0  0  0  0  0  0  0  0
    0.2140    5.8740   19.5160 C   0  0  0  0  0  0  0  0  0  0  0  0
    0.1690    5.0980   20.8380 C   0  0  0  0  0  0  0  0  0  0  0  0
   -0.1950    3.6210   20.6900 C   0  0  0  0  0  0  0  0  0  0  0  0
   -1.6700    3.2400   20.8440 C   0  0  0  0  0  0  0  0  0  0  0  0
   -2.2830    3.0780   19.7500 O   0  0  0  0  0  0  0  0  0  0  0  0
   -2.1030    3.1470   22.0260 O   0  0  0  0  0  0  0  0  0  0  0  0
   -5.3073   17.0587   18.4257 H   0  0  0  0  0  0  0  0  0  0  0  0
   -4.6289   17.8640   16.9704 H   0  0  0  0  0  0  0  0  0  0  0  0
   -4.8992   16.0881   16.9704 H   0  0  0  0  0  0  0  0  0  0  0  0
   -2.4816   17.0975   17.3706 H   0  0  0  0  0  0  0  0  0  0  0  0
   -3.1264   17.2941   19.0682 H   0  0  0  0  0  0  0  0  0  0  0  0
   -1.9403   15.0054   17.9343 H   0  0  0  0  0  0  0  0  0  0  0  0
   -2.8124   15.1801   19.5278 H   0  0  0  0  0  0  0  0  0  0  0  0
   -4.9479   14.7979   18.0950 H   0  0  0  0  0  0  0  0  0  0  0  0
   -3.7527   14.0669   16.9152 H   0  0  0  0  0  0  0  0  0  0  0  0
   -3.8972   13.1938   19.8007 H   0  0  0  0  0  0  0  0  0  0  0  0
   -4.9515   12.4907   18.4732 H   0  0  0  0  0  0  0  0  0  0  0  0
   -3.3351   10.9978   18.1945 H   0  0  0  0  0  0  0  0  0  0  0  0
   -2.4318   12.3680   17.4031 H   0  0  0  0  0  0  0  0  0  0  0  0
   -0.8079   11.9977   18.8770 H   0  0  0  0  0  0  0  0  0  0  0  0
   -1.9523   12.6935   20.1173 H   0  0  0  0  0  0  0  0  0  0  0  0
   -0.8615   10.0219   19.9121 H   0  0  0  0  0  0  0  0  0  0  0  0
   -1.8680   10.8099   21.2176 H   0  0  0  0  0  0  0  0  0  0  0  0
   -3.8855   10.0813   20.2662 H   0  0  0  0  0  0  0  0  0  0  0  0
   -3.0826    9.6377   18.7064 H   0  0  0  0  0  0  0  0  0  0  0  0
   -3.0696    8.1834   21.3626 H   0  0  0  0  0  0  0  0  0  0  0  0
   -3.3641    7.5572   19.6905 H   0  0  0  0  0  0  0  0  0  0  0  0
   -0.7125    8.6963   19.8515 H   0  0  0  0  0  0  0  0  0  0  0  0
   -0.9765    7.4796   21.1886 H   0  0  0  0  0  0  0  0  0  0  0  0
   -1.9175    5.9869   19.2692 H   0  0  0  0  0  0  0  0  0  0  0  0
   -0.9376    7.1091   18.2145 H   0  0  0  0  0  0  0  0  0  0  0  0
    0.3725    5.1551   18.6986 H   0  0  0  0  0  0  0  0  0  0  0  0
    1.0322    6.6039   19.6042 H   0  0  0  0  0  0  0  0  0  0  0  0
    1.1610    5.1625   21.3089 H   0  0  0  0  0  0  0  0  0  0  0  0
   -0.6243    5.5579   21.4456 H   0  0  0  0  0  0  0  0  0  0  0  0
    0.1255    3.3010   19.6876 H   0  0  0  0  0  0  0  0  0  0  0  0
    0.3137    3.1206   21.5272 H   0  0  0  0  0  0  0  0  0  0  0  0
  1  2  1  0
  2  3  1  0
  3  4  1  0
  4  5  1  0
  5  6  1  0
  6  7  1  0
  7  8  1  0
  8  9  1  0
  9 10  1  0
 10 11  1  0
 11 12  1  0
 12 13  1  0
 13 14  1  0
 14 15  1  0
 15 16  1  0
 16 17  2  0
 16 18  1  0
  1 19  1  0
  1 20  1  0
  1 21  1  0
  2 22  1  0
  2 23  1  0
  3 24  1  0
  3 25  1  0
  4 26  1  0
  4 27  1  0
  5 28  1  0
  5 29  1  0
  6 30  1  0
  6 31  1  0
  7 32  1  0
  7 33  1  0
  8 34  1  0
  8 35  1  0
  9 36  1  0
  9 37  1  0
 10 38  1  0
 10 39  1  0
 11 40  1  0
 11 41  1  0
 12 42  1  0
 12 43  1  0
 13 44  1  0
 13 45  1  0
 14 46  1  0
 14 47  1  0
 15 48  1  0
 15 49  1  0
M  CHG  1  18  -1
M  END
>  <meeko>  (2) 
{"is_sidechain": [false], "free_energy": -5.798, "intermolecular_energy": -10.982, "internal_energy": -0.786}

$$$$
3uew_ligand
     RDKit          3D

 49 48  0  0  0  0  0  0  0  0999 V2000
   -4.7170   17.5700   17.4190 C   0  0  0  0  0  0  0  0  0  0  0  0
   -3.5540   16.6230   17.1730 C   0  0  0  0  0  0  0  0  0  0  0  0
   -2.7400   16.3170   18.4340 C   0  0  0  0  0  0  0  0  0  0  0  0
   -2.5240   14.8210   18.6650 C   0  0  0  0  0  0  0  0  0  0  0  0
   -3.7440   13.9540   18.3300 C   0  0  0  0  0  0  0  0  0  0  0  0
   -3.5770   12.4650   18.6560 C   0  0  0  0  0  0  0  0  0  0  0  0
   -2.1310   11.9820   18.5040 C   0  0  0  0  0  0  0  0  0  0  0  0
   -1.7510   10.8820   19.5020 C   0  0  0  0  0  0  0  0  0  0  0  0
   -2.9420   10.3370   20.2910 C   0  0  0  0  0  0  0  0  0  0  0  0
   -3.0340    8.8130   20.1740 C   0  0  0  0  0  0  0  0  0  0  0  0
   -1.6440    8.1720   20.1780 C   0  0  0  0  0  0  0  0  0  0  0  0
   -1.6750    6.6450   20.3150 C   0  0  0  0  0  0  0  0  0  0  0  0
   -1.2470    5.9140   19.0420 C   0  0  0  0  0  0  0  0  0  0  0  0
   -2.3800    5.1450   18.3510 C   0  0  0  0  0  0  0  0  0  0  0  0
   -3.5060    6.0280   17.8170 C   0  0  0  0  0  0  0  0  0  0  0  0
   -4.9230    5.7510   18.3300 C   0  0  0  0  0  0  0  0  0  0  0  0
   -5.0590    4.6330   18.9060 O   0  0  0  0  0  0  0  0  0  0  0  0
   -5.7830    6.6480   18.1100 O   0  0  0  0  0  0  0  0  0  0  0  0
   -4.8674   17.6925   18.5018 H   0  0  0  0  0  0  0  0  0  0  0  0
   -4.4956   18.5479   16.9666 H   0  0  0  0  0  0  0  0  0  0  0  0
   -5.6298   17.1550   16.9666 H   0  0  0  0  0  0  0  0  0  0  0  0
   -3.9525   15.6771   16.7774 H   0  0  0  0  0  0  0  0  0  0  0  0
   -2.8767   17.1191   16.4623 H   0  0  0  0  0  0  0  0  0  0  0  0
   -1.7569   16.8017   18.3414 H   0  0  0  0  0  0  0  0  0  0  0  0
   -3.3114   16.7005   19.2922 H   0  0  0  0  0  0  0  0  0  0  0  0
   -1.6832   14.4921   18.0366 H   0  0  0  0  0  0  0  0  0  0  0  0
   -2.3272   14.6907   19.7394 H   0  0  0  0  0  0  0  0  0  0  0  0
   -4.6035   14.3359   18.9004 H   0  0  0  0  0  0  0  0  0  0  0  0
   -3.8850   14.0211   17.2411 H   0  0  0  0  0  0  0  0  0  0  0  0
   -3.8970   12.2946   19.6945 H   0  0  0  0  0  0  0  0  0  0  0  0
   -4.1920   11.8987   17.9411 H   0  0  0  0  0  0  0  0  0  0  0  0
   -1.9993   11.5895   17.4849 H   0  0  0  0  0  0  0  0  0  0  0  0
   -1.4770   12.8435   18.7041 H   0  0  0  0  0  0  0  0  0  0  0  0
   -1.2918   10.0511   18.9463 H   0  0  0  0  0  0  0  0  0  0  0  0
   -1.0584   11.3302   20.2296 H   0  0  0  0  0  0  0  0  0  0  0  0
   -2.8251   10.6090   21.3504 H   0  0  0  0  0  0  0  0  0  0  0  0
   -3.8628   10.7740   19.8773 H   0  0  0  0  0  0  0  0  0  0  0  0
   -3.6117    8.4222   21.0246 H   0  0  0  0  0  0  0  0  0  0  0  0
   -3.5284    8.5662   19.2229 H   0  0  0  0  0  0  0  0  0  0  0  0
   -1.1404    8.4267   19.2338 H   0  0  0  0  0  0  0  0  0  0  0  0
   -1.1091    8.5648   21.0553 H   0  0  0  0  0  0  0  0  0  0  0  0
   -0.9958    6.3538   21.1298 H   0  0  0  0  0  0  0  0  0  0  0  0
   -2.7167    6.3577   20.5207 H   0  0  0  0  0  0  0  0  0  0  0  0
   -0.8512    6.6566   18.3336 H   0  0  0  0  0  0  0  0  0  0  0  0
   -0.4945    5.1695   19.3413 H   0  0  0  0  0  0  0  0  0  0  0  0
   -1.9513    4.5855   17.5065 H   0  0  0  0  0  0  0  0  0  0  0  0
   -2.8278    4.4916   19.1143 H   0  0  0  0  0  0  0  0  0  0  0  0
   -3.2595    7.0687   18.0744 H   0  0  0  0  0  0  0  0  0  0  0  0
   -3.5489    5.8085   16.7400 H   0  0  0  0  0  0  0  0  0  0  0  0
  1  2  1  0
  2  3  1  0
  3  4  1  0
  4  5  1  0
  5  6  1  0
  6  7  1  0
  7  8  1  0
  8  9  1  0
  9 10  1  0
 10 11  1  0
 11 12  1  0
 12 13  1  0
 13 14  1  0
 14 15  1  0
 15 16  1  0
 16 17  2  0
 16 18  1  0
  1 19  1  0
  1 20  1  0
  1 21  1  0
  2 22  1  0
  2 23  1  0
  3 24  1  0
  3 25  1  0
  4 26  1  0
  4 27  1  0
  5 28  1  0
  5 29  1  0
  6 30  1  0
  6 31  1  0
  7 32  1  0
  7 33  1  0
  8 34  1  0
  8 35  1  0
  9 36  1  0
  9 37  1  0
 10 38  1  0
 10 39  1  0
 11 40  1  0
 11 41  1  0
 12 42  1  0
 12 43  1  0
 13 44  1  0
 13 45  1  0
 14 46  1  0
 14 47  1  0
 15 48  1  0
 15 49  1  0
M  CHG  1  18  -1
M  END
>  <meeko>  (3) 
{"is_sidechain": [false], "free_energy": -5.766, "intermolecular_energy": -10.709, "internal_energy": -1.001}

$$$$
3uew_ligand
     RDKit          3D

 49 48  0  0  0  0  0  0  0  0999 V2000
   -4.1990   16.9740   17.6260 C   0  0  0  0  0  0  0  0  0  0  0  0
   -2.9310   16.5440   18.3470 C   0  0  0  0  0  0  0  0  0  0  0  0
   -2.8680   15.0390   18.6250 C   0  0  0  0  0  0  0  0  0  0  0  0
   -4.0050   14.2570   17.9670 C   0  0  0  0  0  0  0  0  0  0  0  0
   -4.0360   12.7690   18.3370 C   0  0  0  0  0  0  0  0  0  0  0  0
   -3.1240   12.3840   19.5080 C   0  0  0  0  0  0  0  0  0  0  0  0
   -1.8980   11.5770   19.0670 C   0  0  0  0  0  0  0  0  0  0  0  0
   -1.6280   10.3530   19.9490 C   0  0  0  0  0  0  0  0  0  0  0  0
   -2.8660    9.4870   20.1860 C   0  0  0  0  0  0  0  0  0  0  0  0
   -2.5110    7.9980   20.1790 C   0  0  0  0  0  0  0  0  0  0  0  0
   -1.0240    7.7840   19.8870 C   0  0  0  0  0  0  0  0  0  0  0  0
   -0.5420    6.3570   20.1770 C   0  0  0  0  0  0  0  0  0  0  0  0
   -0.4200    5.4930   18.9210 C   0  0  0  0  0  0  0  0  0  0  0  0
   -1.2340    4.1940   18.9740 C   0  0  0  0  0  0  0  0  0  0  0  0
   -2.7210    4.3690   18.6690 C   0  0  0  0  0  0  0  0  0  0  0  0
   -3.0940    5.0570   17.3520 C   0  0  0  0  0  0  0  0  0  0  0  0
   -2.9250    4.3390   16.3240 O   0  0  0  0  0  0  0  0  0  0  0  0
   -3.5070    6.2460   17.4390 O   0  0  0  0  0  0  0  0  0  0  0  0
   -4.9704   17.2356   18.3653 H   0  0  0  0  0  0  0  0  0  0  0  0
   -3.9835   17.8493   16.9956 H   0  0  0  0  0  0  0  0  0  0  0  0
   -4.5603   16.1482   16.9956 H   0  0  0  0  0  0  0  0  0  0  0  0
   -2.0663   16.8200   17.7256 H   0  0  0  0  0  0  0  0  0  0  0  0
   -2.9235   17.0541   19.3215 H   0  0  0  0  0  0  0  0  0  0  0  0
   -1.9114   14.6527   18.2434 H   0  0  0  0  0  0  0  0  0  0  0  0
   -2.9642   14.9031   19.7123 H   0  0  0  0  0  0  0  0  0  0  0  0
   -4.9592   14.7097   18.2747 H   0  0  0  0  0  0  0  0  0  0  0  0
   -3.8407   14.3109   16.8807 H   0  0  0  0  0  0  0  0  0  0  0  0
   -5.0693   12.5034   18.6050 H   0  0  0  0  0  0  0  0  0  0  0  0
   -3.6641   12.2212   17.4586 H   0  0  0  0  0  0  0  0  0  0  0  0
   -2.7795   13.3044   20.0022 H   0  0  0  0  0  0  0  0  0  0  0  0
   -3.7102   11.7494   20.1889 H   0  0  0  0  0  0  0  0  0  0  0  0
   -2.0587   11.2344   18.0342 H   0  0  0  0  0  0  0  0  0  0  0  0
   -1.0240   12.2394   19.1530 H   0  0  0  0  0  0  0  0  0  0  0  0
   -0.8592    9.7354   19.4617 H   0  0  0  0  0  0  0  0  0  0  0  0
   -1.3020   10.7271   20.9307 H   0  0  0  0  0  0  0  0  0  0  0  0
   -3.3039    9.7467   21.1611 H   0  0  0  0  0  0  0  0  0  0  0  0
   -3.5840    9.6772   19.3747 H   0  0  0  0  0  0  0  0  0  0  0  0
   -2.7487    7.5680   21.1632 H   0  0  0  0  0  0  0  0  0  0  0  0
   -3.0954    7.5047   19.3883 H   0  0  0  0  0  0  0  0  0  0  0  0
   -0.8429    8.0033   18.8244 H   0  0  0  0  0  0  0  0  0  0  0  0
   -0.4637    8.4562   20.5535 H   0  0  0  0  0  0  0  0  0  0  0  0
    0.4450    6.4131   20.6595 H   0  0  0  0  0  0  0  0  0  0  0  0
   -1.2942    5.8845   20.8258 H   0  0  0  0  0  0  0  0  0  0  0  0
   -0.7671    6.0835   18.0603 H   0  0  0  0  0  0  0  0  0  0  0  0
    0.6375    5.2019   18.8372 H   0  0  0  0  0  0  0  0  0  0  0  0
   -0.8120    3.4931   18.2387 H   0  0  0  0  0  0  0  0  0  0  0  0
   -1.1667    3.8228   20.0073 H   0  0  0  0  0  0  0  0  0  0  0  0
   -3.1758    3.3675   18.6585 H   0  0  0  0  0  0  0  0  0  0  0  0
   -3.0918    5.0443   19.4542 H   0  0  0  0  0  0  0  0  0  0  0  0
  1  2  1  0
  2  3  1  0
  3  4  1  0
  4  5  1  0
  5  6  1  0
  6  7  1  0
  7  8  1  0
  8  9  1  0
  9 10  1  0
 10 11  1  0
 11 12  1  0
 12 13  1  0
 13 14  1  0
 14 15  1  0
 15 16  1  0
 16 17  2  0
 16 18  1  0
  1 19  1  0
  1 20  1  0
  1 21  1  0
  2 22  1  0
  2 23  1  0
  3 24  1  0
  3 25  1  0
  4 26  1  0
  4 27  1  0
  5 28  1  0
  5 29  1  0
  6 30  1  0
  6 31  1  0
  7 32  1  0
  7 33  1  0
  8 34  1  0
  8 35  1  0
  9 36  1  0
  9 37  1  0
 10 38  1  0
 10 39  1  0
 11 40  1  0
 11 41  1  0
 12 42  1  0
 12 43  1  0
 13 44  1  0
 13 45  1  0
 14 46  1  0
 14 47  1  0
 15 48  1  0
 15 49  1  0
M  CHG  1  18  -1
M  END
>  <meeko>  (4) 
{"is_sidechain": [false], "free_energy": -5.764, "intermolecular_energy": -10.722, "internal_energy": -0.985}

$$$$
3uew_ligand
     RDKit          3D

 49 48  0  0  0  0  0  0  0  0999 V2000
   -5.1340   17.5190   17.2220 C   0  0  0  0  0  0  0  0  0  0  0  0
   -3.8150   17.5700   17.9770 C   0  0  0  0  0  0  0  0  0  0  0  0
   -3.1340   16.2040   18.1080 C   0  0  0  0  0  0  0  0  0  0  0  0
   -3.9860   15.0520   17.5740 C   0  0  0  0  0  0  0  0  0  0  0  0
   -3.8070   13.7350   18.3380 C   0  0  0  0  0  0  0  0  0  0  0  0
   -2.5050   13.6370   19.1440 C   0  0  0  0  0  0  0  0  0  0  0  0
   -2.4700   12.4180   20.0710 C   0  0  0  0  0  0  0  0  0  0  0  0
   -1.2820   11.4870   19.8050 C   0  0  0  0  0  0  0  0  0  0  0  0
   -1.6520   10.0030   19.8340 C   0  0  0  0  0  0  0  0  0  0  0  0
   -3.1660    9.8110   19.9580 C   0  0  0  0  0  0  0  0  0  0  0  0
   -3.5140    8.3640   20.3150 C   0  0  0  0  0  0  0  0  0  0  0  0
   -4.1490    7.5840   19.1570 C   0  0  0  0  0  0  0  0  0  0  0  0
   -3.4350    6.2670   18.8510 C   0  0  0  0  0  0  0  0  0  0  0  0
   -2.0140    6.1790   19.4200 C   0  0  0  0  0  0  0  0  0  0  0  0
   -1.4530    4.7590   19.4970 C   0  0  0  0  0  0  0  0  0  0  0  0
   -0.2490    4.5260   20.4150 C   0  0  0  0  0  0  0  0  0  0  0  0
    0.1420    5.5580   21.0330 O   0  0  0  0  0  0  0  0  0  0  0  0
    0.2170    3.3540   20.4400 O   0  0  0  0  0  0  0  0  0  0  0  0
   -5.9666   17.4868   17.9402 H   0  0  0  0  0  0  0  0  0  0  0  0
   -5.2295   18.4141   16.5898 H   0  0  0  0  0  0  0  0  0  0  0  0
   -5.1601   16.6192   16.5898 H   0  0  0  0  0  0  0  0  0  0  0  0
   -3.1340   18.2490   17.4430 H   0  0  0  0  0  0  0  0  0  0  0  0
   -4.0380   17.9199   18.9957 H   0  0  0  0  0  0  0  0  0  0  0  0
   -2.1887   16.2294   17.5460 H   0  0  0  0  0  0  0  0  0  0  0  0
   -2.9725   16.0210   19.1806 H   0  0  0  0  0  0  0  0  0  0  0  0
   -5.0439   15.3468   17.6367 H   0  0  0  0  0  0  0  0  0  0  0  0
   -3.6573   14.8667   16.5408 H   0  0  0  0  0  0  0  0  0  0  0  0
   -4.6511   13.6248   19.0347 H   0  0  0  0  0  0  0  0  0  0  0  0
   -3.7662   12.9380   17.5809 H   0  0  0  0  0  0  0  0  0  0  0  0
   -1.6613   13.5685   18.4415 H   0  0  0  0  0  0  0  0  0  0  0  0
   -2.4387   14.5350   19.7758 H   0  0  0  0  0  0  0  0  0  0  0  0
   -2.4101   12.7719   21.1108 H   0  0  0  0  0  0  0  0  0  0  0  0
   -3.3859   11.8390   19.8819 H   0  0  0  0  0  0  0  0  0  0  0  0
   -0.8693   11.7237   18.8132 H   0  0  0  0  0  0  0  0  0  0  0  0
   -0.5525   11.6546   20.6110 H   0  0  0  0  0  0  0  0  0  0  0  0
   -1.3054    9.5288   18.9040 H   0  0  0  0  0  0  0  0  0  0  0  0
   -1.1701    9.5414   20.7084 H   0  0  0  0  0  0  0  0  0  0  0  0
   -3.5486   10.4767   20.7457 H   0  0  0  0  0  0  0  0  0  0  0  0
   -3.6276   10.0509   18.9888 H   0  0  0  0  0  0  0  0  0  0  0  0
   -2.5906    7.8482   20.6173 H   0  0  0  0  0  0  0  0  0  0  0  0
   -4.2562    8.4003   21.1261 H   0  0  0  0  0  0  0  0  0  0  0  0
   -5.1944    7.3620   19.4174 H   0  0  0  0  0  0  0  0  0  0  0  0
   -4.0702    8.2136   18.2584 H   0  0  0  0  0  0  0  0  0  0  0  0
   -4.0291    5.4449   19.2765 H   0  0  0  0  0  0  0  0  0  0  0  0
   -3.3433    6.2024   17.7567 H   0  0  0  0  0  0  0  0  0  0  0  0
   -1.3491    6.7776   18.7800 H   0  0  0  0  0  0  0  0  0  0  0  0
   -2.0650    6.5535   20.4530 H   0  0  0  0  0  0  0  0  0  0  0  0
   -2.2643    4.1020   19.8436 H   0  0  0  0  0  0  0  0  0  0  0  0
   -1.0795    4.5486   18.4840 H   0  0  0  0  0  0  0  0  0  0  0  0
  1  2  1  0
  2  3  1  0
  3  4  1  0
  4  5  1  0
  5  6  1  0
  6  7  1  0
  7  8  1  0
  8  9  1  0
  9 10  1  0
 10 11  1  0
 11 12  1  0
 12 13  1  0
 13 14  1  0
 14 15  1  0
 15 16  1  0
 16 17  2  0
 16 18  1  0
  1 19  1  0
  1 20  1  0
  1 21  1  0
  2 22  1  0
  2 23  1  0
  3 24  1  0
  3 25  1  0
  4 26  1  0
  4 27  1  0
  5 28  1  0
  5 29  1  0
  6 30  1  0
  6 31  1  0
  7 32  1  0
  7 33  1  0
  8 34  1  0
  8 35  1  0
  9 36  1  0
  9 37  1  0
 10 38  1  0
 10 39  1  0
 11 40  1  0
 11 41  1  0
 12 42  1  0
 12 43  1  0
 13 44  1  0
 13 45  1  0
 14 46  1  0
 14 47  1  0
 15 48  1  0
 15 49  1  0
M  CHG  1  18  -1
M  END
>  <meeko>  (5) 
{"is_sidechain": [false], "free_energy": -5.75, "intermolecular_energy": -10.844, "internal_energy": -0.837}

$$$$
3uew_ligand
     RDKit          3D

 49 48  0  0  0  0  0  0  0  0999 V2000
   -4.5780   16.7140   17.6820 C   0  0  0  0  0  0  0  0  0  0  0  0
   -3.1870   16.1000   17.6520 C   0  0  0  0  0  0  0  0  0  0  0  0
   -3.0850   14.7840   18.4280 C   0  0  0  0  0  0  0  0  0  0  0  0
   -4.2350   13.8200   18.1350 C   0  0  0  0  0  0  0  0  0  0  0  0
   -3.9510   12.3670   18.5350 C   0  0  0  0  0  0  0  0  0  0  0  0
   -2.4910   11.9300   18.3580 C   0  0  0  0  0  0  0  0  0  0  0  0
   -1.9320   11.2130   19.5910 C   0  0  0  0  0  0  0  0  0  0  0  0
   -2.8940   10.1740   20.1770 C   0  0  0  0  0  0  0  0  0  0  0  0
   -2.3230    8.7560   20.1960 C   0  0  0  0  0  0  0  0  0  0  0  0
   -3.4130    7.7220   20.4920 C   0  0  0  0  0  0  0  0  0  0  0  0
   -4.3940    7.6030   19.3230 C   0  0  0  0  0  0  0  0  0  0  0  0
   -3.8510    6.7770   18.1500 C   0  0  0  0  0  0  0  0  0  0  0  0
   -3.9750    5.2680   18.3640 C   0  0  0  0  0  0  0  0  0  0  0  0
   -2.6520    4.5050   18.2180 C   0  0  0  0  0  0  0  0  0  0  0  0
   -1.4190    5.2920   18.6570 C   0  0  0  0  0  0  0  0  0  0  0  0
   -0.9090    5.0650   20.0830 C   0  0  0  0  0  0  0  0  0  0  0  0
   -1.5400    4.1780   20.7270 O   0  0  0  0  0  0  0  0  0  0  0  0
    0.0580    5.7860   20.4530 O   0  0  0  0  0  0  0  0  0  0  0  0
   -4.8947   16.8538   18.7261 H   0  0  0  0  0  0  0  0  0  0  0  0
   -4.5600   17.6878   17.1708 H   0  0  0  0  0  0  0  0  0  0  0  0
   -5.2854   16.0445   17.1708 H   0  0  0  0  0  0  0  0  0  0  0  0
   -2.9131   15.9087   16.6040 H   0  0  0  0  0  0  0  0  0  0  0  0
   -2.5063   16.8156   18.1363 H   0  0  0  0  0  0  0  0  0  0  0  0
   -2.1390   14.2917   18.1582 H   0  0  0  0  0  0  0  0  0  0  0  0
   -3.1317   15.0320   19.4987 H   0  0  0  0  0  0  0  0  0  0  0  0
   -5.1225   14.1631   18.6869 H   0  0  0  0  0  0  0  0  0  0  0  0
   -4.3840   13.8258   17.0452 H   0  0  0  0  0  0  0  0  0  0  0  0
   -4.2200   12.2439   19.5945 H   0  0  0  0  0  0  0  0  0  0  0  0
   -4.5494   11.7355   17.8619 H   0  0  0  0  0  0  0  0  0  0  0  0
   -2.4303   11.2479   17.4972 H   0  0  0  0  0  0  0  0  0  0  0  0
   -1.8901   12.8382   18.2024 H   0  0  0  0  0  0  0  0  0  0  0  0
   -0.9997   10.7036   19.3057 H   0  0  0  0  0  0  0  0  0  0  0  0
   -1.7673   11.9771   20.3650 H   0  0  0  0  0  0  0  0  0  0  0  0
   -3.1349   10.4661   21.2098 H   0  0  0  0  0  0  0  0  0  0  0  0
   -3.7835   10.1558   19.5301 H   0  0  0  0  0  0  0  0  0  0  0  0
   -1.8771    8.5359   19.2148 H   0  0  0  0  0  0  0  0  0  0  0  0
   -1.5639    8.6977   20.9899 H   0  0  0  0  0  0  0  0  0  0  0  0
   -2.9417    6.7434   20.6662 H   0  0  0  0  0  0  0  0  0  0  0  0
   -3.9700    8.0478   21.3828 H   0  0  0  0  0  0  0  0  0  0  0  0
   -5.3149    7.1251   19.6885 H   0  0  0  0  0  0  0  0  0  0  0  0
   -4.5733    8.6208   18.9463 H   0  0  0  0  0  0  0  0  0  0  0  0
   -4.4113    7.0482   17.2431 H   0  0  0  0  0  0  0  0  0  0  0  0
   -2.7790    7.0061   18.0590 H   0  0  0  0  0  0  0  0  0  0  0  0
   -4.3646    5.0935   19.3778 H   0  0  0  0  0  0  0  0  0  0  0  0
   -4.6478    4.8902   17.5801 H   0  0  0  0  0  0  0  0  0  0  0  0
   -2.7124    3.5915   18.8278 H   0  0  0  0  0  0  0  0  0  0  0  0
   -2.5262    4.2964   17.1453 H   0  0  0  0  0  0  0  0  0  0  0  0
   -0.6006    5.0339   17.9689 H   0  0  0  0  0  0  0  0  0  0  0  0
   -1.7353    6.3453   18.6357 H   0  0  0  0  0  0  0  0  0  0  0  0
  1  2  1  0
  2  3  1  0
  3  4  1  0
  4  5  1  0
  5  6  1  0
  6  7  1  0
  7  8  1  0
  8  9  1  0
  9 10  1  0
 10 11  1  0
 11 12  1  0
 12 13  1  0
 13 14  1  0
 14 15  1  0
 15 16  1  0
 16 17  2  0
 16 18  1  0
  1 19  1  0
  1 20  1  0
  1 21  1  0
  2 22  1  0
  2 23  1  0
  3 24  1  0
  3 25  1  0
  4 26  1  0
  4 27  1  0
  5 28  1  0
  5 29  1  0
  6 30  1  0
  6 31  1  0
  7 32  1  0
  7 33  1  0
  8 34  1  0
  8 35  1  0
  9 36  1  0
  9 37  1  0
 10 38  1  0
 10 39  1  0
 11 40  1  0
 11 41  1  0
 12 42  1  0
 12 43  1  0
 13 44  1  0
 13 45  1  0
 14 46  1  0
 14 47  1  0
 15 48  1  0
 15 49  1  0
M  CHG  1  18  -1
M  END
>  <meeko>  (6) 
{"is_sidechain": [false], "free_energy": -5.38, "intermolecular_energy": -9.853, "internal_energy": -1.155}

$$$$
3uew_ligand
     RDKit          3D

 49 48  0  0  0  0  0  0  0  0999 V2000
   -5.9220    4.7380   18.0200 C   0  0  0  0  0  0  0  0  0  0  0  0
   -5.8250    6.2480   18.1660 C   0  0  0  0  0  0  0  0  0  0  0  0
   -4.3900    6.7520   18.3470 C   0  0  0  0  0  0  0  0  0  0  0  0
   -3.3750    6.0060   17.4810 C   0  0  0  0  0  0  0  0  0  0  0  0
   -2.2160    5.3850   18.2690 C   0  0  0  0  0  0  0  0  0  0  0  0
   -2.4160    5.3700   19.7900 C   0  0  0  0  0  0  0  0  0  0  0  0
   -1.3390    6.1630   20.5390 C   0  0  0  0  0  0  0  0  0  0  0  0
   -1.0100    7.5070   19.8820 C   0  0  0  0  0  0  0  0  0  0  0  0
   -2.0080    8.6150   20.2240 C   0  0  0  0  0  0  0  0  0  0  0  0
   -1.4040   10.0010   19.9790 C   0  0  0  0  0  0  0  0  0  0  0  0
   -2.4780   11.0890   20.0300 C   0  0  0  0  0  0  0  0  0  0  0  0
   -3.6890   10.7960   19.1360 C   0  0  0  0  0  0  0  0  0  0  0  0
   -4.2430   12.0410   18.4400 C   0  0  0  0  0  0  0  0  0  0  0  0
   -3.3590   13.2850   18.5850 C   0  0  0  0  0  0  0  0  0  0  0  0
   -3.8950   14.5260   17.8730 C   0  0  0  0  0  0  0  0  0  0  0  0
   -3.2990   15.8800   18.2710 C   0  0  0  0  0  0  0  0  0  0  0  0
   -4.0080   16.8760   17.9480 O   0  0  0  0  0  0  0  0  0  0  0  0
   -2.1800   15.8490   18.8530 O   0  0  0  0  0  0  0  0  0  0  0  0
   -5.9518    4.2744   19.0171 H   0  0  0  0  0  0  0  0  0  0  0  0
   -6.8385    4.4811   17.4686 H   0  0  0  0  0  0  0  0  0  0  0  0
   -5.0459    4.3659   17.4686 H   0  0  0  0  0  0  0  0  0  0  0  0
   -6.2463    6.7132   17.2626 H   0  0  0  0  0  0  0  0  0  0  0  0
   -6.3819    6.5223   19.0741 H   0  0  0  0  0  0  0  0  0  0  0  0
   -4.3583    7.8191   18.0817 H   0  0  0  0  0  0  0  0  0  0  0  0
   -4.1131    6.5785   19.3973 H   0  0  0  0  0  0  0  0  0  0  0  0
   -3.9014    5.2003   16.9484 H   0  0  0  0  0  0  0  0  0  0  0  0
   -2.9334    6.7481   16.7996 H   0  0  0  0  0  0  0  0  0  0  0  0
   -2.0870    4.3468   17.9293 H   0  0  0  0  0  0  0  0  0  0  0  0
   -1.3343    6.0137   18.0758 H   0  0  0  0  0  0  0  0  0  0  0  0
   -3.3985    5.8083   20.0196 H   0  0  0  0  0  0  0  0  0  0  0  0
   -2.3480    4.3237   20.1225 H   0  0  0  0  0  0  0  0  0  0  0  0
   -1.6935    6.3523   21.5630 H   0  0  0  0  0  0  0  0  0  0  0  0
   -0.4198    5.5590   20.5239 H   0  0  0  0  0  0  0  0  0  0  0  0
   -0.0110    7.8229   20.2171 H   0  0  0  0  0  0  0  0  0  0  0  0
   -1.0567    7.3547   18.7936 H   0  0  0  0  0  0  0  0  0  0  0  0
   -2.9032    8.4978   19.5956 H   0  0  0  0  0  0  0  0  0  0  0  0
   -2.2679    8.5323   21.2896 H   0  0  0  0  0  0  0  0  0  0  0  0
   -0.6491   10.2054   20.7526 H   0  0  0  0  0  0  0  0  0  0  0  0
   -0.9463   10.0098   18.9788 H   0  0  0  0  0  0  0  0  0  0  0  0
   -2.8272   11.1850   21.0687 H   0  0  0  0  0  0  0  0  0  0  0  0
   -2.0175   12.0158   19.6571 H   0  0  0  0  0  0  0  0  0  0  0  0
   -3.3872   10.0708   18.3660 H   0  0  0  0  0  0  0  0  0  0  0  0
   -4.4858   10.4039   19.7851 H   0  0  0  0  0  0  0  0  0  0  0  0
   -4.3522   11.8179   17.3684 H   0  0  0  0  0  0  0  0  0  0  0  0
   -5.2020   12.2752   18.9252 H   0  0  0  0  0  0  0  0  0  0  0  0
   -3.2641   13.5168   19.6561 H   0  0  0  0  0  0  0  0  0  0  0  0
   -2.3959   13.0428   18.1120 H   0  0  0  0  0  0  0  0  0  0  0  0
   -3.7171   14.3910   16.7959 H   0  0  0  0  0  0  0  0  0  0  0  0
   -4.9524   14.5860   18.1701 H   0  0  0  0  0  0  0  0  0  0  0  0
  1  2  1  0
  2  3  1  0
  3  4  1  0
  4  5  1  0
  5  6  1  0
  6  7  1  0
  7  8  1  0
  8  9  1  0
  9 10  1  0
 10 11  1  0
 11 12  1  0
 12 13  1  0
 13 14  1  0
 14 15  1  0
 15 16  1  0
 16 17  2  0
 16 18  1  0
  1 19  1  0
  1 20  1  0
  1 21  1  0
  2 22  1  0
  2 23  1  0
  3 24  1  0
  3 25  1  0
  4 26  1  0
  4 27  1  0
  5 28  1  0
  5 29  1  0
  6 30  1  0
  6 31  1  0
  7 32  1  0
  7 33  1  0
  8 34  1  0
  8 35  1  0
  9 36  1  0
  9 37  1  0
 10 38  1  0
 10 39  1  0
 11 40  1  0
 11 41  1  0
 12 42  1  0
 12 43  1  0
 13 44  1  0
 13 45  1  0
 14 46  1  0
 14 47  1  0
 15 48  1  0
 15 49  1  0
M  CHG  1  18  -1
M  END
>  <meeko>  (7) 
{"is_sidechain": [false], "free_energy": -5.338, "intermolecular_energy": -9.782, "internal_energy": -1.151}

$$$$
3uew_ligand
     RDKit          3D

 49 48  0  0  0  0  0  0  0  0999 V2000
   -5.8120    3.8120   17.2040 C   0  0  0  0  0  0  0  0  0  0  0  0
   -4.3160    4.0630   17.3160 C   0  0  0  0  0  0  0  0  0  0  0  0
   -3.9690    5.4700   17.8100 C   0  0  0  0  0  0  0  0  0  0  0  0
   -2.4790    5.6590   18.0950 C   0  0  0  0  0  0  0  0  0  0  0  0
   -2.1300    5.7260   19.5860 C   0  0  0  0  0  0  0  0  0  0  0  0
   -1.9410    7.1460   20.1340 C   0  0  0  0  0  0  0  0  0  0  0  0
   -3.2580    7.9210   20.2440 C   0  0  0  0  0  0  0  0  0  0  0  0
   -3.0950    9.4280   20.0190 C   0  0  0  0  0  0  0  0  0  0  0  0
   -1.6420    9.9010   20.0860 C   0  0  0  0  0  0  0  0  0  0  0  0
   -1.5030   11.3380   19.5740 C   0  0  0  0  0  0  0  0  0  0  0  0
   -2.5340   11.6400   18.4830 C   0  0  0  0  0  0  0  0  0  0  0  0
   -3.2280   12.9960   18.6560 C   0  0  0  0  0  0  0  0  0  0  0  0
   -2.2810   14.1080   19.1110 C   0  0  0  0  0  0  0  0  0  0  0  0
   -2.6690   15.5040   18.6100 C   0  0  0  0  0  0  0  0  0  0  0  0
   -4.0930   15.6040   18.0650 C   0  0  0  0  0  0  0  0  0  0  0  0
   -4.2700   16.1800   16.6560 C   0  0  0  0  0  0  0  0  0  0  0  0
   -4.5260   15.3160   15.7690 O   0  0  0  0  0  0  0  0  0  0  0  0
   -4.1290   17.4290   16.5400 O   0  0  0  0  0  0  0  0  0  0  0  0
   -6.2479    3.7389   18.2113 H   0  0  0  0  0  0  0  0  0  0  0  0
   -6.2836    4.6436   16.6599 H   0  0  0  0  0  0  0  0  0  0  0  0
   -5.9864    2.8720   16.6599 H   0  0  0  0  0  0  0  0  0  0  0  0
   -3.8919    3.3321   18.0202 H   0  0  0  0  0  0  0  0  0  0  0  0
   -3.8939    3.9613   16.3053 H   0  0  0  0  0  0  0  0  0  0  0  0
   -4.2723    6.1952   17.0405 H   0  0  0  0  0  0  0  0  0  0  0  0
   -4.5048    5.6244   18.7582 H   0  0  0  0  0  0  0  0  0  0  0  0
   -1.9325    4.8144   17.6500 H   0  0  0  0  0  0  0  0  0  0  0  0
   -2.1932    6.6275   17.6588 H   0  0  0  0  0  0  0  0  0  0  0  0
   -2.9427    5.2456   20.1506 H   0  0  0  0  0  0  0  0  0  0  0  0
   -1.1629    5.2152   19.7032 H   0  0  0  0  0  0  0  0  0  0  0  0
   -1.4881    7.0792   21.1342 H   0  0  0  0  0  0  0  0  0  0  0  0
   -1.2952    7.6896   19.4287 H   0  0  0  0  0  0  0  0  0  0  0  0
   -3.9576    7.5292   19.4910 H   0  0  0  0  0  0  0  0  0  0  0  0
   -3.6325    7.7832   21.2691 H   0  0  0  0  0  0  0  0  0  0  0  0
   -3.4969    9.6773   19.0259 H   0  0  0  0  0  0  0  0  0  0  0  0
   -3.6387    9.9368   20.8287 H   0  0  0  0  0  0  0  0  0  0  0  0
   -1.2982    9.8573   21.1300 H   0  0  0  0  0  0  0  0  0  0  0  0
   -1.0320    9.2437   19.4489 H   0  0  0  0  0  0  0  0  0  0  0  0
   -1.6539   12.0337   20.4126 H   0  0  0  0  0  0  0  0  0  0  0  0
   -0.4972   11.4590   19.1454 H   0  0  0  0  0  0  0  0  0  0  0  0
   -2.0227   11.6323   17.5091 H   0  0  0  0  0  0  0  0  0  0  0  0
   -3.3133   10.8666   18.5512 H   0  0  0  0  0  0  0  0  0  0  0  0
   -3.6703   13.2871   17.6918 H   0  0  0  0  0  0  0  0  0  0  0  0
   -3.9883   12.8745   19.4416 H   0  0  0  0  0  0  0  0  0  0  0  0
   -2.2721   14.1257   20.2108 H   0  0  0  0  0  0  0  0  0  0  0  0
   -1.2942   13.8798   18.6820 H   0  0  0  0  0  0  0  0  0  0  0  0
   -2.5705   16.2102   19.4476 H   0  0  0  0  0  0  0  0  0  0  0  0
   -1.9946   15.7365   17.7727 H   0  0  0  0  0  0  0  0  0  0  0  0
   -4.5173   14.5891   18.0623 H   0  0  0  0  0  0  0  0  0  0  0  0
   -4.5981   16.3219   18.7279 H   0  0  0  0  0  0  0  0  0  0  0  0
  1  2  1  0
  2  3  1  0
  3  4  1  0
  4  5  1  0
  5  6  1  0
  6  7  1  0
  7  8  1  0
  8  9  1  0
  9 10  1  0
 10 11  1  0
 11 12  1  0
 12 13  1  0
 13 14  1  0
 14 15  1  0
 15 16  1  0
 16 17  2  0
 16 18  1  0
  1 19  1  0
  1 20  1  0
  1 21  1  0
  2 22  1  0
  2 23  1  0
  3 24  1  0
  3 25  1  0
  4 26  1  0
  4 27  1  0
  5 28  1  0
  5 29  1  0
  6 30  1  0
  6 31  1  0
  7 32  1  0
  7 33  1  0
  8 34  1  0
  8 35  1  0
  9 36  1  0
  9 37  1  0
 10 38  1  0
 10 39  1  0
 11 40  1  0
 11 41  1  0
 12 42  1  0
 12 43  1  0
 13 44  1  0
 13 45  1  0
 14 46  1  0
 14 47  1  0
 15 48  1  0
 15 49  1  0
M  CHG  1  18  -1
M  END
>  <meeko>  (8) 
{"is_sidechain": [false], "free_energy": -5.323, "intermolecular_energy": -10.111, "internal_energy": -0.793}

$$$$
3uew_ligand
     RDKit          3D

 49 48  0  0  0  0  0  0  0  0999 V2000
   -3.8170   16.7450   17.3750 C   0  0  0  0  0  0  0  0  0  0  0  0
   -2.8360   16.5480   18.5200 C   0  0  0  0  0  0  0  0  0  0  0  0
   -2.3920   15.0930   18.7000 C   0  0  0  0  0  0  0  0  0  0  0  0
   -3.4890   14.0830   18.3640 C   0  0  0  0  0  0  0  0  0  0  0  0
   -3.3180   12.7220   19.0500 C   0  0  0  0  0  0  0  0  0  0  0  0
   -1.9190   12.4700   19.6260 C   0  0  0  0  0  0  0  0  0  0  0  0
   -1.5760   10.9800   19.7240 C   0  0  0  0  0  0  0  0  0  0  0  0
   -2.7770   10.1050   20.0970 C   0  0  0  0  0  0  0  0  0  0  0  0
   -2.4330    8.6200   20.2300 C   0  0  0  0  0  0  0  0  0  0  0  0
   -3.6980    7.7620   20.3130 C   0  0  0  0  0  0  0  0  0  0  0  0
   -4.0020    7.0930   18.9710 C   0  0  0  0  0  0  0  0  0  0  0  0
   -5.4970    6.8440   18.7350 C   0  0  0  0  0  0  0  0  0  0  0  0
   -5.7840    5.5340   18.0000 C   0  0  0  0  0  0  0  0  0  0  0  0
   -4.8490    4.3820   18.3870 C   0  0  0  0  0  0  0  0  0  0  0  0
   -4.2070    3.6660   17.1990 C   0  0  0  0  0  0  0  0  0  0  0  0
   -2.6930    3.8190   17.0190 C   0  0  0  0  0  0  0  0  0  0  0  0
   -2.2230    3.2000   16.0210 O   0  0  0  0  0  0  0  0  0  0  0  0
   -2.0950    4.5200   17.8810 O   0  0  0  0  0  0  0  0  0  0  0  0
   -4.8192   16.9463   17.7813 H   0  0  0  0  0  0  0  0  0  0  0  0
   -3.4939   17.5962   16.7577 H   0  0  0  0  0  0  0  0  0  0  0  0
   -3.8476   15.8351   16.7577 H   0  0  0  0  0  0  0  0  0  0  0  0
   -1.9448   17.1625   18.3247 H   0  0  0  0  0  0  0  0  0  0  0  0
   -3.3531   16.8454   19.4442 H   0  0  0  0  0  0  0  0  0  0  0  0
   -1.5310   14.9061   18.0414 H   0  0  0  0  0  0  0  0  0  0  0  0
   -2.1371   14.9578   19.7615 H   0  0  0  0  0  0  0  0  0  0  0  0
   -4.4556   14.5070   18.6736 H   0  0  0  0  0  0  0  0  0  0  0  0
   -3.4324   13.9016   17.2805 H   0  0  0  0  0  0  0  0  0  0  0  0
   -4.0448   12.6588   19.8733 H   0  0  0  0  0  0  0  0  0  0  0  0
   -3.4784   11.9589   18.2742 H   0  0  0  0  0  0  0  0  0  0  0  0
   -1.1782   12.9590   18.9763 H   0  0  0  0  0  0  0  0  0  0  0  0
   -1.9022   12.8812   20.6461 H   0  0  0  0  0  0  0  0  0  0  0  0
   -1.1897   10.6458   18.7498 H   0  0  0  0  0  0  0  0  0  0  0  0
   -0.8308   10.8692   20.5255 H   0  0  0  0  0  0  0  0  0  0  0  0
   -3.1786   10.4568   21.0588 H   0  0  0  0  0  0  0  0  0  0  0  0
   -3.5089   10.1955   19.2808 H   0  0  0  0  0  0  0  0  0  0  0  0
   -1.8453    8.3083   19.3539 H   0  0  0  0  0  0  0  0  0  0  0  0
   -1.8558    8.4786   21.1557 H   0  0  0  0  0  0  0  0  0  0  0  0
   -3.5544    6.9841   21.0773 H   0  0  0  0  0  0  0  0  0  0  0  0
   -4.5441    8.4136   20.5769 H   0  0  0  0  0  0  0  0  0  0  0  0
   -3.6259    7.7413   18.1659 H   0  0  0  0  0  0  0  0  0  0  0  0
   -3.5084    6.1100   18.9809 H   0  0  0  0  0  0  0  0  0  0  0  0
   -6.0043    6.8152   19.7106 H   0  0  0  0  0  0  0  0  0  0  0  0
   -5.8668    7.6618   18.0991 H   0  0  0  0  0  0  0  0  0  0  0  0
   -6.8172    5.2309   18.2247 H   0  0  0  0  0  0  0  0  0  0  0  0
   -5.6220    5.7285   16.9295 H   0  0  0  0  0  0  0  0  0  0  0  0
   -4.0458    4.7880   19.0194 H   0  0  0  0  0  0  0  0  0  0  0  0
   -5.4675    3.6359   18.9074 H   0  0  0  0  0  0  0  0  0  0  0  0
   -4.4198    2.5921   17.3064 H   0  0  0  0  0  0  0  0  0  0  0  0
   -4.6461    4.1442   16.3110 H   0  0  0  0  0  0  0  0  0  0  0  0
  1  2  1  0
  2  3  1  0
  3  4  1  0
  4  5  1  0
  5  6  1  0
  6  7  1  0
  7  8  1  0
  8  9  1  0
  9 10  1  0
 10 11  1  0
 11 12  1  0
 12 13  1  0
 13 14  1  0
 14 15  1  0
 15 16  1  0
 16 17  2  0
 16 18  1  0
  1 19  1  0
  1 20  1  0
  1 21  1  0
  2 22  1  0
  2 23  1  0
  3 24  1  0
  3 25  1  0
  4 26  1  0
  4 27  1  0
  5 28  1  0
  5 29  1  0
  6 30  1  0
  6 31  1  0
  7 32  1  0
  7 33  1  0
  8 34  1  0
  8 35  1  0
  9 36  1  0
  9 37  1  0
 10 38  1  0
 10 39  1  0
 11 40  1  0
 11 41  1  0
 12 42  1  0
 12 43  1  0
 13 44  1  0
 13 45  1  0
 14 46  1  0
 14 47  1  0
 15 48  1  0
 15 49  1  0
M  CHG  1  18  -1
M  END
>  <meeko>  (9) 
{"is_sidechain": [false], "free_energy": -5.283, "intermolecular_energy": -10.135, "internal_energy": -0.697}

$$$$
