4de1_ligand
     RDKit          3D

 34 37  0  0  0  0  0  0  0  0999 V2000
   -8.7190   55.2860   13.6350 O   0  0  0  0  0  0  0  0  0  0  0  0
   -8.7470   55.3590   12.4130 C   0  0  0  0  0  0  0  0  0  0  0  0
   -8.0720   54.5530   11.5140 N   0  0  0  0  0  0  0  0  0  0  0  0
   -7.2720   53.4300   11.8070 C   0  0  0  0  0  0  0  0  0  0  0  0
   -7.7540   52.1230   11.8650 C   0  0  0  0  0  0  0  0  0  0  0  0
   -6.8900   51.0650   12.1570 C   0  0  0  0  0  0  0  0  0  0  0  0
   -5.5340   51.3020   12.3930 C   0  0  0  0  0  0  0  0  0  0  0  0
   -5.0250   52.6040   12.3390 C   0  0  0  0  0  0  0  0  0  0  0  0
   -3.6150   52.9080   12.5740 C   0  0  0  0  0  0  0  0  0  0  0  0
   -3.0530   53.2690   13.7150 N   0  0  0  0  0  0  0  0  0  0  0  0
   -1.7160   53.4470   13.4620 N   0  0  0  0  0  0  0  0  0  0  0  0
   -1.4410   53.2010   12.1900 N   0  0  0  0  0  0  0  0  0  0  0  0
   -2.6140   52.8660   11.6400 N   0  0  0  0  0  0  0  0  0  0  0  0
   -5.9090   53.6580   12.0420 C   0  0  0  0  0  0  0  0  0  0  0  0
   -9.5530   56.4500   11.7890 C   0  0  0  0  0  0  0  0  0  0  0  0
   -9.1470   57.0050   10.5250 C   0  0  0  0  0  0  0  0  0  0  0  0
   -9.8480   58.0430    9.8650 C   0  0  0  0  0  0  0  0  0  0  0  0
  -10.9910   58.4790   10.5530 C   0  0  0  0  0  0  0  0  0  0  0  0
  -11.8830   59.4300   10.2340 N   0  0  0  0  0  0  0  0  0  0  0  0
  -12.7760   59.4180   11.2420 N   0  0  0  0  0  0  0  0  0  0  0  0
  -12.5110   58.5040   12.2220 C   0  0  0  0  0  0  0  0  0  0  0  0
  -11.3670   57.8810   11.8100 C   0  0  0  0  0  0  0  0  0  0  0  0
  -10.7110   56.8640   12.4900 C   0  0  0  0  0  0  0  0  0  0  0  0
   -8.0980   54.8320   10.5400 H   0  0  0  0  0  0  0  0  0  0  0  0
   -8.8199   51.9240   11.6799 H   0  0  0  0  0  0  0  0  0  0  0  0
   -7.2805   50.0376   12.2014 H   0  0  0  0  0  0  0  0  0  0  0  0
   -4.8631   50.4610   12.6224 H   0  0  0  0  0  0  0  0  0  0  0  0
   -2.6510   52.6290   10.6580 H   0  0  0  0  0  0  0  0  0  0  0  0
   -5.5208   54.6861   11.9931 H   0  0  0  0  0  0  0  0  0  0  0  0
   -8.2431   56.6010   10.0456 H   0  0  0  0  0  0  0  0  0  0  0  0
   -9.5268   58.4681    8.9027 H   0  0  0  0  0  0  0  0  0  0  0  0
  -13.5520   60.0700   11.1960 H   0  0  0  0  0  0  0  0  0  0  0  0
  -13.0893   58.3125   13.1379 H   0  0  0  0  0  0  0  0  0  0  0  0
  -11.0465   56.4366   13.4465 H   0  0  0  0  0  0  0  0  0  0  0  0
  1  2  2  0
  2  3  1  0
  3  4  1  0
  4  5  2  0
  5  6  1  0
  6  7  2  0
  7  8  1  0
  8  9  1  0
  9 10  2  0
 10 11  1  0
 11 12  2  0
 12 13  1  0
  8 14  2  0
  2 15  1  0
 15 16  1  0
 16 17  2  0
 17 18  1  0
 18 19  2  0
 19 20  1  0
 20 21  1  0
 21 22  2  0
 22 23  1  0
 14  4  1  0
 23 15  2  0
 13  9  1  0
 22 18  1  0
  3 24  1  0
  5 25  1  0
  6 26  1  0
  7 27  1  0
 13 28  1  0
 14 29  1  0
 16 30  1  0
 17 31  1  0
 20 32  1  0
 21 33  1  0
 23 34  1  0
M  END
>  <meeko>  (1) 
{"is_sidechain": [false], "free_energy": -8.489, "intermolecular_energy": -9.978, "internal_energy": -0.51}

$$$$
4de1_ligand
     RDKit          3D

 34 37  0  0  0  0  0  0  0  0999 V2000
   -8.9510   55.6450   13.9070 O   0  0  0  0  0  0  0  0  0  0  0  0
   -8.8180   55.3010   12.7390 C   0  0  0  0  0  0  0  0  0  0  0  0
   -7.8630   54.4410   12.2280 N   0  0  0  0  0  0  0  0  0  0  0  0
   -6.8910   53.7170   12.9490 C   0  0  0  0  0  0  0  0  0  0  0  0
   -7.1620   52.9830   14.1030 C   0  0  0  0  0  0  0  0  0  0  0  0
   -6.1400   52.2880   14.7530 C   0  0  0  0  0  0  0  0  0  0  0  0
   -4.8350   52.3190   14.2560 C   0  0  0  0  0  0  0  0  0  0  0  0
   -4.5370   53.0460   13.0980 C   0  0  0  0  0  0  0  0  0  0  0  0
   -3.1900   53.1090   12.5340 C   0  0  0  0  0  0  0  0  0  0  0  0
   -2.0620   53.3520   13.1780 N   0  0  0  0  0  0  0  0  0  0  0  0
   -1.0550   53.3120   12.2460 N   0  0  0  0  0  0  0  0  0  0  0  0
   -1.5370   53.0460   11.0430 N   0  0  0  0  0  0  0  0  0  0  0  0
   -2.8580   52.9190   11.2190 N   0  0  0  0  0  0  0  0  0  0  0  0
   -5.5790   53.7390   12.4550 C   0  0  0  0  0  0  0  0  0  0  0  0
   -9.7400   55.8850   11.7200 C   0  0  0  0  0  0  0  0  0  0  0  0
   -9.9840   55.1800   10.4900 C   0  0  0  0  0  0  0  0  0  0  0  0
  -10.8390   55.6620    9.4690 C   0  0  0  0  0  0  0  0  0  0  0  0
  -11.4410   56.8940    9.7720 C   0  0  0  0  0  0  0  0  0  0  0  0
  -12.2940   57.6400    9.0520 N   0  0  0  0  0  0  0  0  0  0  0  0
  -12.5550   58.7110    9.8260 N   0  0  0  0  0  0  0  0  0  0  0  0
  -11.9050   58.7110   11.0270 C   0  0  0  0  0  0  0  0  0  0  0  0
  -11.1770   57.5550   11.0250 C   0  0  0  0  0  0  0  0  0  0  0  0
  -10.3500   57.1190   12.0510 C   0  0  0  0  0  0  0  0  0  0  0  0
   -7.8060   54.3670   11.2190 H   0  0  0  0  0  0  0  0  0  0  0  0
   -8.1860   52.9512   14.5035 H   0  0  0  0  0  0  0  0  0  0  0  0
   -6.3643   51.7120   15.6629 H   0  0  0  0  0  0  0  0  0  0  0  0
   -4.0376   51.7692   14.7774 H   0  0  0  0  0  0  0  0  0  0  0  0
   -3.4460   52.7090   10.4230 H   0  0  0  0  0  0  0  0  0  0  0  0
   -5.3590   54.3122   11.5423 H   0  0  0  0  0  0  0  0  0  0  0  0
   -9.4795   54.2150   10.3342 H   0  0  0  0  0  0  0  0  0  0  0  0
  -11.0150   55.1220    8.5270 H   0  0  0  0  0  0  0  0  0  0  0  0
  -13.1950   59.4110    9.4660 H   0  0  0  0  0  0  0  0  0  0  0  0
  -11.9562   59.4722   11.8194 H   0  0  0  0  0  0  0  0  0  0  0  0
  -10.1899   57.6601   12.9953 H   0  0  0  0  0  0  0  0  0  0  0  0
  1  2  2  0
  2  3  1  0
  3  4  1  0
  4  5  2  0
  5  6  1  0
  6  7  2  0
  7  8  1  0
  8  9  1  0
  9 10  2  0
 10 11  1  0
 11 12  2  0
 12 13  1  0
  8 14  2  0
  2 15  1  0
 15 16  1  0
 16 17  2  0
 17 18  1  0
 18 19  2  0
 19 20  1  0
 20 21  1  0
 21 22  2  0
 22 23  1  0
 14  4  1  0
 23 15  2  0
 13  9  1  0
 22 18  1  0
  3 24  1  0
  5 25  1  0
  6 26  1  0
  7 27  1  0
 13 28  1  0
 14 29  1  0
 16 30  1  0
 17 31  1  0
 20 32  1  0
 21 33  1  0
 23 34  1  0
M  END
>  <meeko>  (2) 
{"is_sidechain": [false], "free_energy": -7.782, "intermolecular_energy": -9.319, "internal_energy": -0.338}

$$$$
4de1_ligand
     RDKit          3D

 34 37  0  0  0  0  0  0  0  0999 V2000
   -6.7620   54.6600    9.5070 O   0  0  0  0  0  0  0  0  0  0  0  0
   -7.6010   54.6210   10.3980 C   0  0  0  0  0  0  0  0  0  0  0  0
   -7.7290   53.6560   11.3810 N   0  0  0  0  0  0  0  0  0  0  0  0
   -6.8770   52.5570   11.6160 C   0  0  0  0  0  0  0  0  0  0  0  0
   -7.2480   51.2270   11.4180 C   0  0  0  0  0  0  0  0  0  0  0  0
   -6.3390   50.1970   11.6690 C   0  0  0  0  0  0  0  0  0  0  0  0
   -5.0490   50.4850   12.1200 C   0  0  0  0  0  0  0  0  0  0  0  0
   -4.6510   51.8110   12.3240 C   0  0  0  0  0  0  0  0  0  0  0  0
   -3.3130   52.1680   12.7910 C   0  0  0  0  0  0  0  0  0  0  0  0
   -2.2270   51.4150   12.7610 N   0  0  0  0  0  0  0  0  0  0  0  0
   -1.2110   52.1630   13.3020 N   0  0  0  0  0  0  0  0  0  0  0  0
   -1.6460   53.3600   13.6620 N   0  0  0  0  0  0  0  0  0  0  0  0
   -2.9460   53.3650   13.3460 N   0  0  0  0  0  0  0  0  0  0  0  0
   -5.5790   52.8360   12.0650 C   0  0  0  0  0  0  0  0  0  0  0  0
   -8.6420   55.6900   10.4350 C   0  0  0  0  0  0  0  0  0  0  0  0
   -8.9520   56.4280    9.2400 C   0  0  0  0  0  0  0  0  0  0  0  0
   -9.9200   57.4600    9.1870 C   0  0  0  0  0  0  0  0  0  0  0  0
  -10.5650   57.6930   10.4120 C   0  0  0  0  0  0  0  0  0  0  0  0
  -11.5200   58.5800   10.7320 N   0  0  0  0  0  0  0  0  0  0  0  0
  -11.7750   58.3590   12.0360 N   0  0  0  0  0  0  0  0  0  0  0  0
  -11.0230   57.3670   12.5980 C   0  0  0  0  0  0  0  0  0  0  0  0
  -10.2310   56.9170   11.5800 C   0  0  0  0  0  0  0  0  0  0  0  0
   -9.2920   55.8990   11.6750 C   0  0  0  0  0  0  0  0  0  0  0  0
   -8.5590   53.7000   11.9610 H   0  0  0  0  0  0  0  0  0  0  0  0
   -8.2613   50.9884   11.0625 H   0  0  0  0  0  0  0  0  0  0  0  0
   -6.6412   49.1513   11.5103 H   0  0  0  0  0  0  0  0  0  0  0  0
   -4.3421   49.6653   12.3159 H   0  0  0  0  0  0  0  0  0  0  0  0
   -3.4980   54.1920   13.5310 H   0  0  0  0  0  0  0  0  0  0  0  0
   -5.2783   53.8829   12.2188 H   0  0  0  0  0  0  0  0  0  0  0  0
   -8.4077   56.1772    8.3176 H   0  0  0  0  0  0  0  0  0  0  0  0
  -10.1456   58.0264    8.2714 H   0  0  0  0  0  0  0  0  0  0  0  0
  -12.4840   58.9290   12.4840 H   0  0  0  0  0  0  0  0  0  0  0  0
  -11.0492   57.0101   13.6382 H   0  0  0  0  0  0  0  0  0  0  0  0
   -9.0810   55.3300   12.5925 H   0  0  0  0  0  0  0  0  0  0  0  0
  1  2  2  0
  2  3  1  0
  3  4  1  0
  4  5  2  0
  5  6  1  0
  6  7  2  0
  7  8  1  0
  8  9  1  0
  9 10  2  0
 10 11  1  0
 11 12  2  0
 12 13  1  0
  8 14  2  0
  2 15  1  0
 15 16  1  0
 16 17  2  0
 17 18  1  0
 18 19  2  0
 19 20  1  0
 20 21  1  0
 21 22  2  0
 22 23  1  0
 14  4  1  0
 23 15  2  0
 13  9  1  0
 22 18  1  0
  3 24  1  0
  5 25  1  0
  6 26  1  0
  7 27  1  0
 13 28  1  0
 14 29  1  0
 16 30  1  0
 17 31  1  0
 20 32  1  0
 21 33  1  0
 23 34  1  0
M  END
>  <meeko>  (3) 
{"is_sidechain": [false], "free_energy": -7.446, "intermolecular_energy": -8.775, "internal_energy": -0.487}

$$$$
4de1_ligand
     RDKit          3D

 34 37  0  0  0  0  0  0  0  0999 V2000
   -8.7090   53.3840   13.5830 O   0  0  0  0  0  0  0  0  0  0  0  0
   -7.9890   53.3930   12.5930 C   0  0  0  0  0  0  0  0  0  0  0  0
   -8.3470   53.7510   11.3050 N   0  0  0  0  0  0  0  0  0  0  0  0
   -9.5900   54.2550   10.8730 C   0  0  0  0  0  0  0  0  0  0  0  0
  -10.5800   53.4780   10.2710 C   0  0  0  0  0  0  0  0  0  0  0  0
  -11.7880   54.0570    9.8770 C   0  0  0  0  0  0  0  0  0  0  0  0
  -12.0220   55.4180   10.0820 C   0  0  0  0  0  0  0  0  0  0  0  0
  -11.0460   56.2200   10.6860 C   0  0  0  0  0  0  0  0  0  0  0  0
  -11.2390   57.6480   10.9260 C   0  0  0  0  0  0  0  0  0  0  0  0
  -10.9560   58.6440   10.1040 N   0  0  0  0  0  0  0  0  0  0  0  0
  -11.3040   59.8040   10.7500 N   0  0  0  0  0  0  0  0  0  0  0  0
  -11.7980   59.5450   11.9510 N   0  0  0  0  0  0  0  0  0  0  0  0
  -11.7590   58.2110   12.0610 N   0  0  0  0  0  0  0  0  0  0  0  0
   -9.8350   55.6200   11.0770 C   0  0  0  0  0  0  0  0  0  0  0  0
   -6.5760   52.9340   12.7420 C   0  0  0  0  0  0  0  0  0  0  0  0
   -6.2800   51.5260   12.7570 C   0  0  0  0  0  0  0  0  0  0  0  0
   -4.9710   51.0040   12.8980 C   0  0  0  0  0  0  0  0  0  0  0  0
   -3.9780   51.9910   13.0120 C   0  0  0  0  0  0  0  0  0  0  0  0
   -2.6500   51.8680   13.1590 N   0  0  0  0  0  0  0  0  0  0  0  0
   -2.1890   53.1330   13.2030 N   0  0  0  0  0  0  0  0  0  0  0  0
   -3.1570   54.0920   13.0990 C   0  0  0  0  0  0  0  0  0  0  0  0
   -4.3230   53.3900   12.9760 C   0  0  0  0  0  0  0  0  0  0  0  0
   -5.5880   53.9440   12.8380 C   0  0  0  0  0  0  0  0  0  0  0  0
   -7.6670   53.5740   10.5750 H   0  0  0  0  0  0  0  0  0  0  0  0
  -10.4081   52.4041   10.1059 H   0  0  0  0  0  0  0  0  0  0  0  0
  -12.5613   53.4359    9.4014 H   0  0  0  0  0  0  0  0  0  0  0  0
  -12.9778   55.8625    9.7675 H   0  0  0  0  0  0  0  0  0  0  0  0
  -12.0950   57.7740   12.9090 H   0  0  0  0  0  0  0  0  0  0  0  0
   -9.0606   56.2379   11.5550 H   0  0  0  0  0  0  0  0  0  0  0  0
   -7.1149   50.8173   12.6534 H   0  0  0  0  0  0  0  0  0  0  0  0
   -4.7523   49.9261   12.9165 H   0  0  0  0  0  0  0  0  0  0  0  0
   -1.1890   53.2710   13.3070 H   0  0  0  0  0  0  0  0  0  0  0  0
   -3.0268   55.1842   13.1115 H   0  0  0  0  0  0  0  0  0  0  0  0
   -5.7955   55.0238   12.8073 H   0  0  0  0  0  0  0  0  0  0  0  0
  1  2  2  0
  2  3  1  0
  3  4  1  0
  4  5  2  0
  5  6  1  0
  6  7  2  0
  7  8  1  0
  8  9  1  0
  9 10  2  0
 10 11  1  0
 11 12  2  0
 12 13  1  0
  8 14  2  0
  2 15  1  0
 15 16  1  0
 16 17  2  0
 17 18  1  0
 18 19  2  0
 19 20  1  0
 20 21  1  0
 21 22  2  0
 22 23  1  0
 14  4  1  0
 23 15  2  0
 13  9  1  0
 22 18  1  0
  3 24  1  0
  5 25  1  0
  6 26  1  0
  7 27  1  0
 13 28  1  0
 14 29  1  0
 16 30  1  0
 17 31  1  0
 20 32  1  0
 21 33  1  0
 23 34  1  0
M  END
>  <meeko>  (4) 
{"is_sidechain": [false], "free_energy": -7.25, "intermolecular_energy": -8.541, "internal_energy": -0.491}

$$$$
4de1_ligand
     RDKit          3D

 34 37  0  0  0  0  0  0  0  0999 V2000
   -8.4760   55.7460    9.8090 O   0  0  0  0  0  0  0  0  0  0  0  0
   -9.5790   55.4250   10.2340 C   0  0  0  0  0  0  0  0  0  0  0  0
   -9.9200   54.2340   10.8490 N   0  0  0  0  0  0  0  0  0  0  0  0
   -9.0600   53.1700   11.1890 C   0  0  0  0  0  0  0  0  0  0  0  0
   -9.2150   51.8630   10.7270 C   0  0  0  0  0  0  0  0  0  0  0  0
   -8.3120   50.8690   11.1080 C   0  0  0  0  0  0  0  0  0  0  0  0
   -7.2430   51.1690   11.9540 C   0  0  0  0  0  0  0  0  0  0  0  0
   -7.0620   52.4730   12.4300 C   0  0  0  0  0  0  0  0  0  0  0  0
   -5.9600   52.8430   13.3150 C   0  0  0  0  0  0  0  0  0  0  0  0
   -5.9730   52.8850   14.6360 N   0  0  0  0  0  0  0  0  0  0  0  0
   -4.7200   53.2820   15.0330 N   0  0  0  0  0  0  0  0  0  0  0  0
   -3.9360   53.4840   13.9860 N   0  0  0  0  0  0  0  0  0  0  0  0
   -4.7010   53.2120   12.9230 N   0  0  0  0  0  0  0  0  0  0  0  0
   -7.9810   53.4630   12.0350 C   0  0  0  0  0  0  0  0  0  0  0  0
  -10.7130   56.3770   10.0480 C   0  0  0  0  0  0  0  0  0  0  0  0
  -11.9290   55.9280    9.4240 C   0  0  0  0  0  0  0  0  0  0  0  0
  -13.0500   56.7650    9.2040 C   0  0  0  0  0  0  0  0  0  0  0  0
  -12.8730   58.0790    9.6650 C   0  0  0  0  0  0  0  0  0  0  0  0
  -13.7080   59.1300    9.6250 N   0  0  0  0  0  0  0  0  0  0  0  0
  -13.0300   60.1330   10.2150 N   0  0  0  0  0  0  0  0  0  0  0  0
  -11.7760   59.7950   10.6380 C   0  0  0  0  0  0  0  0  0  0  0  0
  -11.6410   58.4790   10.2980 C   0  0  0  0  0  0  0  0  0  0  0  0
  -10.5210   57.6930   10.5330 C   0  0  0  0  0  0  0  0  0  0  0  0
  -10.9060   54.0720   11.0200 H   0  0  0  0  0  0  0  0  0  0  0  0
  -10.0529   51.6144   10.0591 H   0  0  0  0  0  0  0  0  0  0  0  0
   -8.4439   49.8413   10.7387 H   0  0  0  0  0  0  0  0  0  0  0  0
   -6.5391   50.3766   12.2482 H   0  0  0  0  0  0  0  0  0  0  0  0
   -4.3070   53.2950   11.9950 H   0  0  0  0  0  0  0  0  0  0  0  0
   -7.8494   54.4926   12.3992 H   0  0  0  0  0  0  0  0  0  0  0  0
  -11.9914   54.8785    9.1005 H   0  0  0  0  0  0  0  0  0  0  0  0
  -13.9733   56.4178    8.7173 H   0  0  0  0  0  0  0  0  0  0  0  0
  -13.4900   61.0330   10.2960 H   0  0  0  0  0  0  0  0  0  0  0  0
  -11.0392   60.4390   11.1404 H   0  0  0  0  0  0  0  0  0  0  0  0
   -9.6055   58.0461   11.0303 H   0  0  0  0  0  0  0  0  0  0  0  0
  1  2  2  0
  2  3  1  0
  3  4  1  0
  4  5  2  0
  5  6  1  0
  6  7  2  0
  7  8  1  0
  8  9  1  0
  9 10  2  0
 10 11  1  0
 11 12  2  0
 12 13  1  0
  8 14  2  0
  2 15  1  0
 15 16  1  0
 16 17  2  0
 17 18  1  0
 18 19  2  0
 19 20  1  0
 20 21  1  0
 21 22  2  0
 22 23  1  0
 14  4  1  0
 23 15  2  0
 13  9  1  0
 22 18  1  0
  3 24  1  0
  5 25  1  0
  6 26  1  0
  7 27  1  0
 13 28  1  0
 14 29  1  0
 16 30  1  0
 17 31  1  0
 20 32  1  0
 21 33  1  0
 23 34  1  0
M  END
>  <meeko>  (5) 
{"is_sidechain": [false], "free_energy": -6.919, "intermolecular_energy": -8.281, "internal_energy": -0.361}

$$$$
4de1_ligand
     RDKit          3D

 34 37  0  0  0  0  0  0  0  0999 V2000
   -8.5270   53.3790   13.5700 O   0  0  0  0  0  0  0  0  0  0  0  0
   -7.6610   53.7500   12.7880 C   0  0  0  0  0  0  0  0  0  0  0  0
   -7.8000   54.6720   11.7660 N   0  0  0  0  0  0  0  0  0  0  0  0
   -8.9430   55.4380   11.4560 C   0  0  0  0  0  0  0  0  0  0  0  0
   -9.5530   56.3230   12.3440 C   0  0  0  0  0  0  0  0  0  0  0  0
  -10.6810   57.0490   11.9530 C   0  0  0  0  0  0  0  0  0  0  0  0
  -11.2100   56.8990   10.6700 C   0  0  0  0  0  0  0  0  0  0  0  0
  -10.6150   56.0190    9.7580 C   0  0  0  0  0  0  0  0  0  0  0  0
  -11.1260   55.8260    8.4030 C   0  0  0  0  0  0  0  0  0  0  0  0
  -10.5950   55.0850    7.4450 N   0  0  0  0  0  0  0  0  0  0  0  0
  -11.4150   55.2040    6.3510 N   0  0  0  0  0  0  0  0  0  0  0  0
  -12.4400   55.9990    6.6130 N   0  0  0  0  0  0  0  0  0  0  0  0
  -12.2630   56.3840    7.8830 N   0  0  0  0  0  0  0  0  0  0  0  0
   -9.4790   55.2970   10.1680 C   0  0  0  0  0  0  0  0  0  0  0  0
   -6.3050   53.1320   12.8880 C   0  0  0  0  0  0  0  0  0  0  0  0
   -6.1710   51.7000   12.8940 C   0  0  0  0  0  0  0  0  0  0  0  0
   -4.9270   51.0310   12.9910 C   0  0  0  0  0  0  0  0  0  0  0  0
   -3.8250   51.8980   13.0690 C   0  0  0  0  0  0  0  0  0  0  0  0
   -2.5150   51.6230   13.1710 N   0  0  0  0  0  0  0  0  0  0  0  0
   -1.9110   52.8270   13.1980 N   0  0  0  0  0  0  0  0  0  0  0  0
   -2.7660   53.8900   13.1260 C   0  0  0  0  0  0  0  0  0  0  0  0
   -4.0080   53.3270   13.0440 C   0  0  0  0  0  0  0  0  0  0  0  0
   -5.2060   54.0220   12.9490 C   0  0  0  0  0  0  0  0  0  0  0  0
   -7.0210   54.7670   11.1250 H   0  0  0  0  0  0  0  0  0  0  0  0
   -9.1443   56.4503   13.3573 H   0  0  0  0  0  0  0  0  0  0  0  0
  -11.1556   57.7439   12.6614 H   0  0  0  0  0  0  0  0  0  0  0  0
  -12.0990   57.4752   10.3739 H   0  0  0  0  0  0  0  0  0  0  0  0
  -12.9360   57.0050    8.3100 H   0  0  0  0  0  0  0  0  0  0  0  0
   -8.9994   54.6047    9.4604 H   0  0  0  0  0  0  0  0  0  0  0  0
   -7.0844   51.0917   12.8192 H   0  0  0  0  0  0  0  0  0  0  0  0
   -4.8325   49.9351   13.0040 H   0  0  0  0  0  0  0  0  0  0  0  0
   -0.8990   52.8490   13.2670 H   0  0  0  0  0  0  0  0  0  0  0  0
   -2.5113   54.9601   13.1326 H   0  0  0  0  0  0  0  0  0  0  0  0
   -5.2900   55.1185   12.9244 H   0  0  0  0  0  0  0  0  0  0  0  0
  1  2  2  0
  2  3  1  0
  3  4  1  0
  4  5  2  0
  5  6  1  0
  6  7  2  0
  7  8  1  0
  8  9  1  0
  9 10  2  0
 10 11  1  0
 11 12  2  0
 12 13  1  0
  8 14  2  0
  2 15  1  0
 15 16  1  0
 16 17  2  0
 17 18  1  0
 18 19  2  0
 19 20  1  0
 20 21  1  0
 21 22  2  0
 22 23  1  0
 14  4  1  0
 23 15  2  0
 13  9  1  0
 22 18  1  0
  3 24  1  0
  5 25  1  0
  6 26  1  0
  7 27  1  0
 13 28  1  0
 14 29  1  0
 16 30  1  0
 17 31  1  0
 20 32  1  0
 21 33  1  0
 23 34  1  0
M  END
>  <meeko>  (6) 
{"is_sidechain": [false], "free_energy": -6.915, "intermolecular_energy": -8.196, "internal_energy": -0.442}

$$$$
4de1_ligand
     RDKit          3D

 34 37  0  0  0  0  0  0  0  0999 V2000
   -8.8280   55.3050   13.9570 O   0  0  0  0  0  0  0  0  0  0  0  0
   -8.5400   55.4790   12.7790 C   0  0  0  0  0  0  0  0  0  0  0  0
   -7.4520   54.9570   12.1020 N   0  0  0  0  0  0  0  0  0  0  0  0
   -6.4890   54.0550   12.5990 C   0  0  0  0  0  0  0  0  0  0  0  0
   -6.1700   53.9190   13.9490 C   0  0  0  0  0  0  0  0  0  0  0  0
   -5.2050   52.9950   14.3570 C   0  0  0  0  0  0  0  0  0  0  0  0
   -4.5510   52.1940   13.4190 C   0  0  0  0  0  0  0  0  0  0  0  0
   -4.8540   52.3080   12.0570 C   0  0  0  0  0  0  0  0  0  0  0  0
   -4.2020   51.4930   11.0350 C   0  0  0  0  0  0  0  0  0  0  0  0
   -3.7260   50.2680   11.1700 N   0  0  0  0  0  0  0  0  0  0  0  0
   -3.2070   49.9060    9.9520 N   0  0  0  0  0  0  0  0  0  0  0  0
   -3.3540   50.8810    9.0690 N   0  0  0  0  0  0  0  0  0  0  0  0
   -3.9700   51.8630    9.7370 N   0  0  0  0  0  0  0  0  0  0  0  0
   -5.8290   53.2440   11.6650 C   0  0  0  0  0  0  0  0  0  0  0  0
   -9.4080   56.3780   11.9640 C   0  0  0  0  0  0  0  0  0  0  0  0
   -9.0380   56.6940   10.6100 C   0  0  0  0  0  0  0  0  0  0  0  0
   -9.7990   57.5410    9.7680 C   0  0  0  0  0  0  0  0  0  0  0  0
  -10.9640   58.0400   10.3730 C   0  0  0  0  0  0  0  0  0  0  0  0
  -11.9090   58.8580    9.8860 N   0  0  0  0  0  0  0  0  0  0  0  0
  -12.7980   58.9960   10.8890 N   0  0  0  0  0  0  0  0  0  0  0  0
  -12.4780   58.3090   12.0260 C   0  0  0  0  0  0  0  0  0  0  0  0
  -11.3010   57.6820   11.7280 C   0  0  0  0  0  0  0  0  0  0  0  0
  -10.5860   56.8570   12.5860 C   0  0  0  0  0  0  0  0  0  0  0  0
   -7.2840   55.3060   11.1660 H   0  0  0  0  0  0  0  0  0  0  0  0
   -6.6809   54.5427   14.6973 H   0  0  0  0  0  0  0  0  0  0  0  0
   -4.9587   52.8978   15.4247 H   0  0  0  0  0  0  0  0  0  0  0  0
   -3.7934   51.4693   13.7520 H   0  0  0  0  0  0  0  0  0  0  0  0
   -4.1930   52.7240    9.2560 H   0  0  0  0  0  0  0  0  0  0  0  0
   -6.0797   53.3418   10.5984 H   0  0  0  0  0  0  0  0  0  0  0  0
   -8.1140   56.2538   10.2070 H   0  0  0  0  0  0  0  0  0  0  0  0
   -9.5051   57.7852    8.7365 H   0  0  0  0  0  0  0  0  0  0  0  0
  -13.6100   59.5820   10.7260 H   0  0  0  0  0  0  0  0  0  0  0  0
  -13.0416   58.2695   12.9698 H   0  0  0  0  0  0  0  0  0  0  0  0
  -10.8939   56.6087   13.6124 H   0  0  0  0  0  0  0  0  0  0  0  0
  1  2  2  0
  2  3  1  0
  3  4  1  0
  4  5  2  0
  5  6  1  0
  6  7  2  0
  7  8  1  0
  8  9  1  0
  9 10  2  0
 10 11  1  0
 11 12  2  0
 12 13  1  0
  8 14  2  0
  2 15  1  0
 15 16  1  0
 16 17  2  0
 17 18  1  0
 18 19  2  0
 19 20  1  0
 20 21  1  0
 21 22  2  0
 22 23  1  0
 14  4  1  0
 23 15  2  0
 13  9  1  0
 22 18  1  0
  3 24  1  0
  5 25  1  0
  6 26  1  0
  7 27  1  0
 13 28  1  0
 14 29  1  0
 16 30  1  0
 17 31  1  0
 20 32  1  0
 21 33  1  0
 23 34  1  0
M  END
>  <meeko>  (7) 
{"is_sidechain": [false], "free_energy": -6.769, "intermolecular_energy": -8.305, "internal_energy": -0.162}

$$$$
4de1_ligand
     RDKit          3D

 34 37  0  0  0  0  0  0  0  0999 V2000
   -9.8440   52.8020   11.5870 O   0  0  0  0  0  0  0  0  0  0  0  0
   -9.1370   53.5140   10.8850 C   0  0  0  0  0  0  0  0  0  0  0  0
   -7.8380   53.9120   11.1450 N   0  0  0  0  0  0  0  0  0  0  0  0
   -7.0250   53.5230   12.2300 C   0  0  0  0  0  0  0  0  0  0  0  0
   -7.5190   53.1390   13.4760 C   0  0  0  0  0  0  0  0  0  0  0  0
   -6.6430   52.7610   14.4960 C   0  0  0  0  0  0  0  0  0  0  0  0
   -5.2630   52.7610   14.2810 C   0  0  0  0  0  0  0  0  0  0  0  0
   -4.7410   53.1400   13.0380 C   0  0  0  0  0  0  0  0  0  0  0  0
   -3.3070   53.1550   12.7580 C   0  0  0  0  0  0  0  0  0  0  0  0
   -2.3260   53.3690   13.6180 N   0  0  0  0  0  0  0  0  0  0  0  0
   -1.1530   53.2870   12.9100 N   0  0  0  0  0  0  0  0  0  0  0  0
   -1.3900   53.0260   11.6340 N   0  0  0  0  0  0  0  0  0  0  0  0
   -2.7220   52.9430   11.5390 N   0  0  0  0  0  0  0  0  0  0  0  0
   -5.6390   53.5170   12.0220 C   0  0  0  0  0  0  0  0  0  0  0  0
   -9.7170   54.0670    9.6260 C   0  0  0  0  0  0  0  0  0  0  0  0
  -11.1100   53.8610    9.3310 C   0  0  0  0  0  0  0  0  0  0  0  0
  -11.7410   54.3450    8.1600 C   0  0  0  0  0  0  0  0  0  0  0  0
  -10.8820   55.0610    7.3100 C   0  0  0  0  0  0  0  0  0  0  0  0
  -11.1280   55.6530    6.1310 N   0  0  0  0  0  0  0  0  0  0  0  0
   -9.9510   56.1980    5.7660 N   0  0  0  0  0  0  0  0  0  0  0  0
   -8.9320   55.9850    6.6490 C   0  0  0  0  0  0  0  0  0  0  0  0
   -9.4960   55.2540    7.6560 C   0  0  0  0  0  0  0  0  0  0  0  0
   -8.8390   54.7990    8.7910 C   0  0  0  0  0  0  0  0  0  0  0  0
   -7.4410   54.6110   10.5290 H   0  0  0  0  0  0  0  0  0  0  0  0
   -8.6041   53.1337   13.6566 H   0  0  0  0  0  0  0  0  0  0  0  0
   -7.0429   52.4611   15.4759 H   0  0  0  0  0  0  0  0  0  0  0  0
   -4.5828   52.4618   15.0920 H   0  0  0  0  0  0  0  0  0  0  0  0
   -3.1430   52.7440   10.6410 H   0  0  0  0  0  0  0  0  0  0  0  0
   -5.2430   53.8145   11.0398 H   0  0  0  0  0  0  0  0  0  0  0  0
  -11.7173   53.2971   10.0543 H   0  0  0  0  0  0  0  0  0  0  0  0
  -12.8047   54.1762    7.9365 H   0  0  0  0  0  0  0  0  0  0  0  0
   -9.9160   56.7080    4.8890 H   0  0  0  0  0  0  0  0  0  0  0  0
   -7.8893   56.3259    6.5678 H   0  0  0  0  0  0  0  0  0  0  0  0
   -7.7773   54.9828    9.0122 H   0  0  0  0  0  0  0  0  0  0  0  0
  1  2  2  0
  2  3  1  0
  3  4  1  0
  4  5  2  0
  5  6  1  0
  6  7  2  0
  7  8  1  0
  8  9  1  0
  9 10  2  0
 10 11  1  0
 11 12  2  0
 12 13  1  0
  8 14  2  0
  2 15  1  0
 15 16  1  0
 16 17  2  0
 17 18  1  0
 18 19  2  0
 19 20  1  0
 20 21  1  0
 21 22  2  0
 22 23  1  0
 14  4  1  0
 23 15  2  0
 13  9  1  0
 22 18  1  0
  3 24  1  0
  5 25  1  0
  6 26  1  0
  7 27  1  0
 13 28  1  0
 14 29  1  0
 16 30  1  0
 17 31  1  0
 20 32  1  0
 21 33  1  0
 23 34  1  0
M  END
>  <meeko>  (8) 
{"is_sidechain": [false], "free_energy": -6.737, "intermolecular_energy": -8.229, "internal_energy": -0.2}

$$$$
4de1_ligand
     RDKit          3D

 34 37  0  0  0  0  0  0  0  0999 V2000
   -7.4710   52.6050   12.2770 O   0  0  0  0  0  0  0  0  0  0  0  0
   -6.5950   53.1990   11.6610 C   0  0  0  0  0  0  0  0  0  0  0  0
   -6.7570   53.9970   10.5420 N   0  0  0  0  0  0  0  0  0  0  0  0
   -7.9690   54.3590    9.9200 C   0  0  0  0  0  0  0  0  0  0  0  0
   -8.4610   53.7590    8.7610 C   0  0  0  0  0  0  0  0  0  0  0  0
   -9.6750   54.1760    8.2130 C   0  0  0  0  0  0  0  0  0  0  0  0
  -10.4130   55.1960    8.8170 C   0  0  0  0  0  0  0  0  0  0  0  0
   -9.9430   55.8130    9.9820 C   0  0  0  0  0  0  0  0  0  0  0  0
  -10.6760   56.8830   10.6560 C   0  0  0  0  0  0  0  0  0  0  0  0
  -11.4610   56.7720   11.7140 N   0  0  0  0  0  0  0  0  0  0  0  0
  -11.9290   58.0310   11.9940 N   0  0  0  0  0  0  0  0  0  0  0  0
  -11.4480   58.9160   11.1350 N   0  0  0  0  0  0  0  0  0  0  0  0
  -10.6720   58.2070   10.3070 N   0  0  0  0  0  0  0  0  0  0  0  0
   -8.7180   55.3800   10.5210 C   0  0  0  0  0  0  0  0  0  0  0  0
   -5.1800   53.0350   12.1100 C   0  0  0  0  0  0  0  0  0  0  0  0
   -4.5000   54.1330   12.7440 C   0  0  0  0  0  0  0  0  0  0  0  0
   -3.1600   54.0660   13.1960 C   0  0  0  0  0  0  0  0  0  0  0  0
   -2.5520   52.8200   12.9780 C   0  0  0  0  0  0  0  0  0  0  0  0
   -1.3110   52.4000   13.2700 N   0  0  0  0  0  0  0  0  0  0  0  0
   -1.2720   51.1200   12.8530 N   0  0  0  0  0  0  0  0  0  0  0  0
   -2.4330   50.6740   12.2880 C   0  0  0  0  0  0  0  0  0  0  0  0
   -3.2790   51.7440   12.3520 C   0  0  0  0  0  0  0  0  0  0  0  0
   -4.5900   51.7660   11.8960 C   0  0  0  0  0  0  0  0  0  0  0  0
   -5.9130   54.3060   10.0740 H   0  0  0  0  0  0  0  0  0  0  0  0
   -7.8896   52.9535    8.2766 H   0  0  0  0  0  0  0  0  0  0  0  0
  -10.0535   53.6972    7.2978 H   0  0  0  0  0  0  0  0  0  0  0  0
  -11.3682   55.5160    8.3751 H   0  0  0  0  0  0  0  0  0  0  0  0
  -10.1880   58.6800    9.5550 H   0  0  0  0  0  0  0  0  0  0  0  0
   -8.3381   55.8548   11.4376 H   0  0  0  0  0  0  0  0  0  0  0  0
   -5.0506   55.0748   12.8851 H   0  0  0  0  0  0  0  0  0  0  0  0
   -2.6435   54.9117   13.6735 H   0  0  0  0  0  0  0  0  0  0  0  0
   -0.4090   50.6030   12.9860 H   0  0  0  0  0  0  0  0  0  0  0  0
   -2.6401   49.6761   11.8741 H   0  0  0  0  0  0  0  0  0  0  0  0
   -5.1022   50.9111   11.4303 H   0  0  0  0  0  0  0  0  0  0  0  0
  1  2  2  0
  2  3  1  0
  3  4  1  0
  4  5  2  0
  5  6  1  0
  6  7  2  0
  7  8  1  0
  8  9  1  0
  9 10  2  0
 10 11  1  0
 11 12  2  0
 12 13  1  0
  8 14  2  0
  2 15  1  0
 15 16  1  0
 16 17  2  0
 17 18  1  0
 18 19  2  0
 19 20  1  0
 20 21  1  0
 21 22  2  0
 22 23  1  0
 14  4  1  0
 23 15  2  0
 13  9  1  0
 22 18  1  0
  3 24  1  0
  5 25  1  0
  6 26  1  0
  7 27  1  0
 13 28  1  0
 14 29  1  0
 16 30  1  0
 17 31  1  0
 20 32  1  0
 21 33  1  0
 23 34  1  0
M  END
>  <meeko>  (9) 
{"is_sidechain": [false], "free_energy": -6.218, "intermolecular_energy": -7.335, "internal_energy": -0.483}

$$$$
