3dx2_ligand
     RDKit          3D

 27 27  0  0  0  0  0  0  0  0999 V2000
   50.5460   72.1950  -21.1840 C   0  0  0  0  0  0  0  0  0  0  0  0
   48.7840   71.9760  -21.4690 S   0  0  0  0  0  4  0  0  0  0  0  0
   47.9370   73.2640  -20.8700 O   0  0  0  0  0  0  0  0  0  0  0  0
   48.6380   71.9410  -23.2800 C   0  0  2  0  0  0  0  0  0  0  0  0
   48.6960   73.3290  -23.9510 C   0  0  1  0  0  0  0  0  0  0  0  0
   49.7660   73.3900  -25.0190 N   0  0  0  0  0  0  0  0  0  0  0  0
   47.3530   73.4560  -24.7110 C   0  0  1  0  0  0  0  0  0  0  0  0
   47.5320   74.3450  -25.8070 O   0  0  0  0  0  0  0  0  0  0  0  0
   47.0850   71.9990  -25.1200 C   0  0  1  0  0  0  0  0  0  0  0  0
   48.0900   71.5980  -26.0660 O   0  0  0  0  0  0  0  0  0  0  0  0
   47.3380   71.2850  -23.7860 C   0  0  1  0  0  0  0  0  0  0  0  0
   47.5330   69.8940  -23.9430 O   0  0  0  0  0  0  0  0  0  0  0  0
   50.7422   72.2194  -20.1019 H   0  0  0  0  0  0  0  0  0  0  0  0
   51.0976   71.3585  -21.6379 H   0  0  0  0  0  0  0  0  0  0  0  0
   50.8760   73.1411  -21.6379 H   0  0  0  0  0  0  0  0  0  0  0  0
   48.2560   73.5940  -19.9910 H   0  0  0  0  0  0  0  0  0  0  0  0
   49.5170   71.3431  -23.5628 H   0  0  0  0  0  0  0  0  0  0  0  0
   48.8927   74.1020  -23.1935 H   0  0  0  0  0  0  0  0  0  0  0  0
   49.5800   72.9650  -25.9350 H   0  0  0  0  0  0  0  0  0  0  0  0
   50.0850   74.3750  -25.1470 H   0  0  0  0  0  0  0  0  0  0  0  0
   50.6200   72.9480  -24.6230 H   0  0  0  0  0  0  0  0  0  0  0  0
   46.5066   73.8748  -24.1469 H   0  0  0  0  0  0  0  0  0  0  0  0
   48.1520   75.0580  -25.5440 H   0  0  0  0  0  0  0  0  0  0  0  0
   46.1011   71.8061  -25.5724 H   0  0  0  0  0  0  0  0  0  0  0  0
   48.7210   72.3470  -26.1540 H   0  0  0  0  0  0  0  0  0  0  0  0
   46.4821   71.3827  -23.1020 H   0  0  0  0  0  0  0  0  0  0  0  0
   47.7130   69.4750  -23.0770 H   0  0  0  0  0  0  0  0  0  0  0  0
  2  1  1  6
  2  3  2  3
  2  4  1  0
  4  5  1  0
  5  6  1  0
  5  7  1  0
  7  8  1  0
  7  9  1  0
  9 10  1  0
  9 11  1  0
 11 12  1  0
 11  4  1  0
  1 13  1  0
  1 14  1  0
  1 15  1  0
  3 16  1  0
  4 17  1  6
  5 18  1  1
  6 19  1  0
  6 20  1  0
  6 21  1  0
  7 22  1  1
  8 23  1  0
  9 24  1  6
 10 25  1  0
 11 26  1  1
 12 27  1  0
M  CHG  2   3   1   6   1
M  END
>  <meeko>  (1) 
{"is_sidechain": [false], "free_energy": -6.067, "intermolecular_energy": -7.131, "internal_energy": -0.078}

$$$$
3dx2_ligand
     RDKit          3D

 27 27  0  0  0  0  0  0  0  0999 V2000
   51.0130   70.8450  -18.3920 C   0  0  0  0  0  0  0  0  0  0  0  0
   51.1150   72.2140  -19.5530 S   0  0  0  0  0  4  0  0  0  0  0  0
   52.6230   72.2880  -20.2280 O   0  0  0  0  0  0  0  0  0  0  0  0
   49.8970   71.7890  -20.8330 C   0  0  2  0  0  0  0  0  0  0  0  0
   50.4330   71.8760  -22.2770 C   0  0  1  0  0  0  0  0  0  0  0  0
   50.2190   70.5830  -23.0320 N   0  0  0  0  0  0  0  0  0  0  0  0
   49.5180   72.9130  -22.9750 C   0  0  1  0  0  0  0  0  0  0  0  0
   49.4970   72.6350  -24.3700 O   0  0  0  0  0  0  0  0  0  0  0  0
   48.1750   72.6730  -22.2670 C   0  0  1  0  0  0  0  0  0  0  0  0
   47.7020   71.3610  -22.6160 O   0  0  0  0  0  0  0  0  0  0  0  0
   48.6310   72.6690  -20.8010 C   0  0  1  0  0  0  0  0  0  0  0  0
   47.6710   72.0950  -19.9360 O   0  0  0  0  0  0  0  0  0  0  0  0
   51.0420   71.2337  -17.3634 H   0  0  0  0  0  0  0  0  0  0  0  0
   50.0717   70.2986  -18.5512 H   0  0  0  0  0  0  0  0  0  0  0  0
   51.8630   70.1651  -18.5512 H   0  0  0  0  0  0  0  0  0  0  0  0
   53.3670   72.1250  -19.5920 H   0  0  0  0  0  0  0  0  0  0  0  0
   49.6587   70.7460  -20.5775 H   0  0  0  0  0  0  0  0  0  0  0  0
   51.5063   72.1165  -22.2633 H   0  0  0  0  0  0  0  0  0  0  0  0
   49.3530   70.4570  -23.5690 H   0  0  0  0  0  0  0  0  0  0  0  0
   51.0420   70.3870  -23.6420 H   0  0  0  0  0  0  0  0  0  0  0  0
   50.2880   69.8090  -22.3410 H   0  0  0  0  0  0  0  0  0  0  0  0
   49.8254   73.9667  -22.9034 H   0  0  0  0  0  0  0  0  0  0  0  0
   50.3960   72.7720  -24.7370 H   0  0  0  0  0  0  0  0  0  0  0  0
   47.3775   73.3922  -22.5053 H   0  0  0  0  0  0  0  0  0  0  0  0
   48.2280   70.7150  -22.0930 H   0  0  0  0  0  0  0  0  0  0  0  0
   48.7932   73.6882  -20.4203 H   0  0  0  0  0  0  0  0  0  0  0  0
   47.3660   72.7560  -19.2810 H   0  0  0  0  0  0  0  0  0  0  0  0
  2  1  1  1
  2  3  2  3
  2  4  1  0
  4  5  1  0
  5  6  1  0
  5  7  1  0
  7  8  1  0
  7  9  1  0
  9 10  1  0
  9 11  1  0
 11 12  1  0
 11  4  1  0
  1 13  1  0
  1 14  1  0
  1 15  1  0
  3 16  1  0
  4 17  1  1
  5 18  1  1
  6 19  1  0
  6 20  1  0
  6 21  1  0
  7 22  1  6
  8 23  1  0
  9 24  1  1
 10 25  1  0
 11 26  1  1
 12 27  1  0
M  CHG  2   3   1   6   1
M  END
>  <meeko>  (2) 
{"is_sidechain": [false], "free_energy": -5.914, "intermolecular_energy": -6.951, "internal_energy": -0.078}

$$$$
3dx2_ligand
     RDKit          3D

 27 27  0  0  0  0  0  0  0  0999 V2000
   46.8600   70.6850  -26.6630 C   0  0  0  0  0  0  0  0  0  0  0  0
   46.4600   70.5380  -24.9170 S   0  0  0  0  0  4  0  0  0  0  0  0
   46.9990   69.0930  -24.3190 O   0  0  0  0  0  0  0  0  0  0  0  0
   47.3860   71.8980  -24.1440 C   0  0  2  0  0  0  0  0  0  0  0  0
   48.1220   72.8160  -25.1410 C   0  0  1  0  0  0  0  0  0  0  0  0
   47.7460   74.2690  -24.9460 N   0  0  0  0  0  0  0  0  0  0  0  0
   49.6140   72.7230  -24.7350 C   0  0  1  0  0  0  0  0  0  0  0  0
   50.2700   73.9220  -25.1330 O   0  0  0  0  0  0  0  0  0  0  0  0
   49.5140   72.5360  -23.2130 C   0  0  1  0  0  0  0  0  0  0  0  0
   48.9760   73.7390  -22.6390 O   0  0  0  0  0  0  0  0  0  0  0  0
   48.4570   71.4270  -23.1380 C   0  0  1  0  0  0  0  0  0  0  0  0
   47.8850   71.3080  -21.8510 O   0  0  0  0  0  0  0  0  0  0  0  0
   47.8873   71.0625  -26.7733 H   0  0  0  0  0  0  0  0  0  0  0  0
   46.7786   69.6982  -27.1422 H   0  0  0  0  0  0  0  0  0  0  0  0
   46.1590   71.3842  -27.1422 H   0  0  0  0  0  0  0  0  0  0  0  0
   46.8570   68.3190  -24.9240 H   0  0  0  0  0  0  0  0  0  0  0  0
   46.5840   72.4531  -23.6354 H   0  0  0  0  0  0  0  0  0  0  0  0
   47.8860   72.5132  -26.1718 H   0  0  0  0  0  0  0  0  0  0  0  0
   48.4850   74.9810  -24.9600 H   0  0  0  0  0  0  0  0  0  0  0  0
   46.9910   74.5330  -25.6160 H   0  0  0  0  0  0  0  0  0  0  0  0
   47.2460   74.3360  -24.0370 H   0  0  0  0  0  0  0  0  0  0  0  0
   50.2004   71.9162  -25.1988 H   0  0  0  0  0  0  0  0  0  0  0  0
   51.1890   73.7100  -25.4010 H   0  0  0  0  0  0  0  0  0  0  0  0
   50.4605   72.3126  -22.6989 H   0  0  0  0  0  0  0  0  0  0  0  0
   49.5190   73.9490  -21.8460 H   0  0  0  0  0  0  0  0  0  0  0  0
   48.8861   70.4382  -23.3576 H   0  0  0  0  0  0  0  0  0  0  0  0
   46.9340   71.0840  -21.9200 H   0  0  0  0  0  0  0  0  0  0  0  0
  2  1  1  6
  2  3  2  3
  2  4  1  0
  4  5  1  0
  5  6  1  0
  5  7  1  0
  7  8  1  0
  7  9  1  0
  9 10  1  0
  9 11  1  0
 11 12  1  0
 11  4  1  0
  1 13  1  0
  1 14  1  0
  1 15  1  0
  3 16  1  0
  4 17  1  1
  5 18  1  6
  6 19  1  0
  6 20  1  0
  6 21  1  0
  7 22  1  6
  8 23  1  0
  9 24  1  1
 10 25  1  0
 11 26  1  6
 12 27  1  0
M  CHG  2   3   1   6   1
M  END
>  <meeko>  (3) 
{"is_sidechain": [false], "free_energy": -5.885, "intermolecular_energy": -6.872, "internal_energy": -0.123}

$$$$
3dx2_ligand
     RDKit          3D

 27 27  0  0  0  0  0  0  0  0999 V2000
   43.3470   82.3550  -26.0270 C   0  0  0  0  0  0  0  0  0  0  0  0
   41.6120   82.0920  -25.6350 S   0  0  0  0  0  4  0  0  0  0  0  0
   40.9530   83.4630  -24.9840 O   0  0  0  0  0  0  0  0  0  0  0  0
   40.8470   81.7580  -27.2490 C   0  0  2  0  0  0  0  0  0  0  0  0
   41.7020   80.8860  -28.1910 C   0  0  1  0  0  0  0  0  0  0  0  0
   40.9370   79.6750  -28.6790 N   0  0  0  0  0  0  0  0  0  0  0  0
   41.9230   81.7630  -29.4480 C   0  0  1  0  0  0  0  0  0  0  0  0
   42.1340   80.9100  -30.5670 O   0  0  0  0  0  0  0  0  0  0  0  0
   40.6120   82.5630  -29.5070 C   0  0  1  0  0  0  0  0  0  0  0  0
   39.5330   81.6540  -29.7870 O   0  0  0  0  0  0  0  0  0  0  0  0
   40.5070   83.0320  -28.0500 C   0  0  1  0  0  0  0  0  0  0  0  0
   39.2070   83.4750  -27.7140 O   0  0  0  0  0  0  0  0  0  0  0  0
   43.9243   82.4425  -25.0948 H   0  0  0  0  0  0  0  0  0  0  0  0
   43.7236   81.5037  -26.6130 H   0  0  0  0  0  0  0  0  0  0  0  0
   43.4544   83.2797  -26.6130 H   0  0  0  0  0  0  0  0  0  0  0  0
   41.5390   83.9340  -24.3360 H   0  0  0  0  0  0  0  0  0  0  0  0
   39.9331   81.2203  -26.9564 H   0  0  0  0  0  0  0  0  0  0  0  0
   42.6135   80.5566  -27.6708 H   0  0  0  0  0  0  0  0  0  0  0  0
   40.0910   79.3840  -28.1760 H   0  0  0  0  0  0  0  0  0  0  0  0
   40.7250   79.7750  -29.6950 H   0  0  0  0  0  0  0  0  0  0  0  0
   41.6020   78.8750  -28.6860 H   0  0  0  0  0  0  0  0  0  0  0  0
   42.7981   82.4294  -29.4344 H   0  0  0  0  0  0  0  0  0  0  0  0
   42.7950   81.3210  -31.1640 H   0  0  0  0  0  0  0  0  0  0  0  0
   40.5794   83.3654  -30.2588 H   0  0  0  0  0  0  0  0  0  0  0  0
   39.6460   81.3490  -30.7160 H   0  0  0  0  0  0  0  0  0  0  0  0
   41.1671   83.8884  -27.8481 H   0  0  0  0  0  0  0  0  0  0  0  0
   39.2010   84.4460  -27.5860 H   0  0  0  0  0  0  0  0  0  0  0  0
  2  1  1  6
  2  3  2  3
  2  4  1  0
  4  5  1  0
  5  6  1  0
  5  7  1  0
  7  8  1  0
  7  9  1  0
  9 10  1  0
  9 11  1  0
 11 12  1  0
 11  4  1  0
  1 13  1  0
  1 14  1  0
  1 15  1  0
  3 16  1  0
  4 17  1  1
  5 18  1  1
  6 19  1  0
  6 20  1  0
  6 21  1  0
  7 22  1  1
  8 23  1  0
  9 24  1  6
 10 25  1  0
 11 26  1  6
 12 27  1  0
M  CHG  2   3   1   6   1
M  END
>  <meeko>  (4) 
{"is_sidechain": [false], "free_energy": -5.829, "intermolecular_energy": -6.712, "internal_energy": -0.217}

$$$$
3dx2_ligand
     RDKit          3D

 27 27  0  0  0  0  0  0  0  0999 V2000
   42.6210   81.2430  -30.6010 C   0  0  0  0  0  0  0  0  0  0  0  0
   41.5320   82.0280  -29.4060 S   0  0  0  0  0  4  0  0  0  0  0  0
   39.9540   81.8920  -29.8860 O   0  0  0  0  0  0  0  0  0  0  0  0
   41.7890   81.0650  -27.8860 C   0  0  2  0  0  0  0  0  0  0  0  0
   43.2650   80.7430  -27.5780 C   0  0  1  0  0  0  0  0  0  0  0  0
   43.6590   81.1960  -26.1890 N   0  0  0  0  0  0  0  0  0  0  0  0
   43.3310   79.1960  -27.5370 C   0  0  1  0  0  0  0  0  0  0  0  0
   44.4110   78.8080  -26.6960 O   0  0  0  0  0  0  0  0  0  0  0  0
   41.9430   78.8380  -26.9830 C   0  0  1  0  0  0  0  0  0  0  0  0
   41.8560   79.3120  -25.6270 O   0  0  0  0  0  0  0  0  0  0  0  0
   41.0530   79.7100  -27.8780 C   0  0  1  0  0  0  0  0  0  0  0  0
   39.7510   79.8760  -27.3520 O   0  0  0  0  0  0  0  0  0  0  0  0
   43.4025   80.6796  -30.0702 H   0  0  0  0  0  0  0  0  0  0  0  0
   42.0383   80.5559  -31.2321 H   0  0  0  0  0  0  0  0  0  0  0  0
   43.0887   82.0130  -31.2321 H   0  0  0  0  0  0  0  0  0  0  0  0
   39.8050   82.0350  -30.8560 H   0  0  0  0  0  0  0  0  0  0  0  0
   41.3787   81.7408  -27.1211 H   0  0  0  0  0  0  0  0  0  0  0  0
   43.9158   81.2309  -28.3186 H   0  0  0  0  0  0  0  0  0  0  0  0
   43.0860   81.9040  -25.7150 H   0  0  0  0  0  0  0  0  0  0  0  0
   43.7790   80.3680  -25.5660 H   0  0  0  0  0  0  0  0  0  0  0  0
   44.6340   81.5520  -26.2470 H   0  0  0  0  0  0  0  0  0  0  0  0
   43.5239   78.6866  -28.4927 H   0  0  0  0  0  0  0  0  0  0  0  0
   44.2380   79.1260  -25.7840 H   0  0  0  0  0  0  0  0  0  0  0  0
   41.6942   77.7665  -26.9814 H   0  0  0  0  0  0  0  0  0  0  0  0
   42.5590   78.8530  -25.1150 H   0  0  0  0  0  0  0  0  0  0  0  0
   40.9100   79.2623  -28.8725 H   0  0  0  0  0  0  0  0  0  0  0  0
   39.6980   80.7010  -26.8270 H   0  0  0  0  0  0  0  0  0  0  0  0
  2  1  1  6
  2  3  2  3
  2  4  1  0
  4  5  1  0
  5  6  1  0
  5  7  1  0
  7  8  1  0
  7  9  1  0
  9 10  1  0
  9 11  1  0
 11 12  1  0
 11  4  1  0
  1 13  1  0
  1 14  1  0
  1 15  1  0
  3 16  1  0
  4 17  1  1
  5 18  1  6
  6 19  1  0
  6 20  1  0
  6 21  1  0
  7 22  1  6
  8 23  1  0
  9 24  1  1
 10 25  1  0
 11 26  1  6
 12 27  1  0
M  CHG  2   3   1   6   1
M  END
>  <meeko>  (5) 
{"is_sidechain": [false], "free_energy": -5.625, "intermolecular_energy": -6.471, "internal_energy": -0.218}

$$$$
3dx2_ligand
     RDKit          3D

 27 27  0  0  0  0  0  0  0  0999 V2000
   42.8530   80.3370  -24.8490 C   0  0  0  0  0  0  0  0  0  0  0  0
   44.2260   80.4070  -26.0060 S   0  0  0  0  0  4  0  0  0  0  0  0
   45.2600   79.1400  -25.7540 O   0  0  0  0  0  0  0  0  0  0  0  0
   43.4340   80.2310  -27.6320 C   0  0  2  0  0  0  0  0  0  0  0  0
   42.2960   81.2370  -27.9000 C   0  0  1  0  0  0  0  0  0  0  0  0
   42.5190   82.0050  -29.1850 N   0  0  0  0  0  0  0  0  0  0  0  0
   41.0460   80.3600  -28.1600 C   0  0  1  0  0  0  0  0  0  0  0  0
   40.1440   81.0870  -28.9850 O   0  0  0  0  0  0  0  0  0  0  0  0
   41.6640   79.1270  -28.8370 C   0  0  1  0  0  0  0  0  0  0  0  0
   42.1970   79.5240  -30.1130 O   0  0  0  0  0  0  0  0  0  0  0  0
   42.8250   78.8350  -27.8770 C   0  0  1  0  0  0  0  0  0  0  0  0
   43.7980   77.9820  -28.4470 O   0  0  0  0  0  0  0  0  0  0  0  0
   43.2397   80.3567  -23.8194 H   0  0  0  0  0  0  0  0  0  0  0  0
   42.1936   81.2027  -25.0096 H   0  0  0  0  0  0  0  0  0  0  0  0
   42.2851   79.4087  -25.0096 H   0  0  0  0  0  0  0  0  0  0  0  0
   45.4300   78.9320  -24.8000 H   0  0  0  0  0  0  0  0  0  0  0  0
   44.2774   80.4197  -28.3125 H   0  0  0  0  0  0  0  0  0  0  0  0
   42.2182   81.9444  -27.0612 H   0  0  0  0  0  0  0  0  0  0  0  0
   41.7060   82.2890  -29.7430 H   0  0  0  0  0  0  0  0  0  0  0  0
   43.1270   82.8320  -29.0030 H   0  0  0  0  0  0  0  0  0  0  0  0
   43.1380   81.4240  -29.7850 H   0  0  0  0  0  0  0  0  0  0  0  0
   40.4519   80.0761  -27.2789 H   0  0  0  0  0  0  0  0  0  0  0  0
   39.6990   80.4640  -29.5990 H   0  0  0  0  0  0  0  0  0  0  0  0
   40.9769   78.2850  -29.0070 H   0  0  0  0  0  0  0  0  0  0  0  0
   43.1460   79.7420  -29.9740 H   0  0  0  0  0  0  0  0  0  0  0  0
   42.4835   78.3203  -26.9668 H   0  0  0  0  0  0  0  0  0  0  0  0
   44.6660   78.1200  -28.0150 H   0  0  0  0  0  0  0  0  0  0  0  0
  2  1  1  1
  2  3  2  3
  2  4  1  0
  4  5  1  0
  5  6  1  0
  5  7  1  0
  7  8  1  0
  7  9  1  0
  9 10  1  0
  9 11  1  0
 11 12  1  0
 11  4  1  0
  1 13  1  0
  1 14  1  0
  1 15  1  0
  3 16  1  0
  4 17  1  6
  5 18  1  1
  6 19  1  0
  6 20  1  0
  6 21  1  0
  7 22  1  1
  8 23  1  0
  9 24  1  6
 10 25  1  0
 11 26  1  1
 12 27  1  0
M  CHG  2   3   1   6   1
M  END
>  <meeko>  (6) 
{"is_sidechain": [false], "free_energy": -5.608, "intermolecular_energy": -6.466, "internal_energy": -0.203}

$$$$
3dx2_ligand
     RDKit          3D

 27 27  0  0  0  0  0  0  0  0999 V2000
   44.2330   81.1560  -25.8000 C   0  0  0  0  0  0  0  0  0  0  0  0
   43.4220   82.7290  -26.1160 S   0  0  0  0  0  4  0  0  0  0  0  0
   44.5450   83.9180  -26.3640 O   0  0  0  0  0  0  0  0  0  0  0  0
   42.4950   82.4380  -27.6520 C   0  0  2  0  0  0  0  0  0  0  0  0
   41.1200   81.7710  -27.4500 C   0  0  1  0  0  0  0  0  0  0  0  0
   40.0080   82.5760  -28.0880 N   0  0  0  0  0  0  0  0  0  0  0  0
   41.1950   80.4580  -28.2680 C   0  0  1  0  0  0  0  0  0  0  0  0
   39.8770   80.0890  -28.6590 O   0  0  0  0  0  0  0  0  0  0  0  0
   42.1060   80.8670  -29.4350 C   0  0  1  0  0  0  0  0  0  0  0  0
   41.4160   81.8450  -30.2330 O   0  0  0  0  0  0  0  0  0  0  0  0
   43.2440   81.5560  -28.6710 C   0  0  1  0  0  0  0  0  0  0  0  0
   44.0470   82.3660  -29.5070 O   0  0  0  0  0  0  0  0  0  0  0  0
   44.3149   80.9972  -24.7146 H   0  0  0  0  0  0  0  0  0  0  0  0
   43.6419   80.3426  -26.2460 H   0  0  0  0  0  0  0  0  0  0  0  0
   45.2385   81.1657  -26.2460 H   0  0  0  0  0  0  0  0  0  0  0  0
   45.3260   83.8800  -25.7530 H   0  0  0  0  0  0  0  0  0  0  0  0
   42.3691   83.4618  -28.0341 H   0  0  0  0  0  0  0  0  0  0  0  0
   40.9153   81.6550  -26.3755 H   0  0  0  0  0  0  0  0  0  0  0  0
   39.0580   82.5030  -27.7070 H   0  0  0  0  0  0  0  0  0  0  0  0
   40.2870   83.5790  -28.1490 H   0  0  0  0  0  0  0  0  0  0  0  0
   39.9770   82.3110  -29.0930 H   0  0  0  0  0  0  0  0  0  0  0  0
   41.5891   79.5744  -27.7446 H   0  0  0  0  0  0  0  0  0  0  0  0
   39.5780   80.6860  -29.3780 H   0  0  0  0  0  0  0  0  0  0  0  0
   42.4196   80.0497  -30.1011 H   0  0  0  0  0  0  0  0  0  0  0  0
   41.3920   81.5020  -31.1550 H   0  0  0  0  0  0  0  0  0  0  0  0
   43.9351   80.8272  -28.2224 H   0  0  0  0  0  0  0  0  0  0  0  0
   43.4860   82.8850  -30.1180 H   0  0  0  0  0  0  0  0  0  0  0  0
  2  1  1  6
  2  3  2  3
  2  4  1  0
  4  5  1  0
  5  6  1  0
  5  7  1  0
  7  8  1  0
  7  9  1  0
  9 10  1  0
  9 11  1  0
 11 12  1  0
 11  4  1  0
  1 13  1  0
  1 14  1  0
  1 15  1  0
  3 16  1  0
  4 17  1  6
  5 18  1  1
  6 19  1  0
  6 20  1  0
  6 21  1  0
  7 22  1  1
  8 23  1  0
  9 24  1  6
 10 25  1  0
 11 26  1  1
 12 27  1  0
M  CHG  2   3   1   6   1
M  END
>  <meeko>  (7) 
{"is_sidechain": [false], "free_energy": -5.589, "intermolecular_energy": -6.51, "internal_energy": -0.137}

$$$$
3dx2_ligand
     RDKit          3D

 27 27  0  0  0  0  0  0  0  0999 V2000
   42.3300   80.2670  -29.3860 C   0  0  0  0  0  0  0  0  0  0  0  0
   41.9100   81.9820  -29.7210 S   0  0  0  0  0  4  0  0  0  0  0  0
   40.5100   82.0730  -30.5990 O   0  0  0  0  0  0  0  0  0  0  0  0
   41.6390   82.6940  -28.0710 C   0  0  2  0  0  0  0  0  0  0  0  0
   42.6050   82.1740  -26.9870 C   0  0  1  0  0  0  0  0  0  0  0  0
   43.3170   83.3090  -26.2830 N   0  0  0  0  0  0  0  0  0  0  0  0
   41.6880   81.5390  -25.9130 C   0  0  1  0  0  0  0  0  0  0  0  0
   42.3550   81.5900  -24.6570 O   0  0  0  0  0  0  0  0  0  0  0  0
   40.4400   82.4300  -25.9990 C   0  0  1  0  0  0  0  0  0  0  0  0
   40.7900   83.7520  -25.5540 O   0  0  0  0  0  0  0  0  0  0  0  0
   40.2200   82.4540  -27.5180 C   0  0  1  0  0  0  0  0  0  0  0  0
   39.3640   83.5030  -27.9250 O   0  0  0  0  0  0  0  0  0  0  0  0
   42.3697   80.1049  -28.2987 H   0  0  0  0  0  0  0  0  0  0  0  0
   41.5663   79.6096  -29.8271 H   0  0  0  0  0  0  0  0  0  0  0  0
   43.3111   80.0369  -29.8271 H   0  0  0  0  0  0  0  0  0  0  0  0
   40.4320   81.3960  -31.3210 H   0  0  0  0  0  0  0  0  0  0  0  0
   41.8143   83.7639  -28.2568 H   0  0  0  0  0  0  0  0  0  0  0  0
   43.3483   81.5014  -27.4399 H   0  0  0  0  0  0  0  0  0  0  0  0
   42.7840   84.1460  -26.0220 H   0  0  0  0  0  0  0  0  0  0  0  0
   43.8280   82.9450  -25.4490 H   0  0  0  0  0  0  0  0  0  0  0  0
   44.1060   83.6030  -26.8940 H   0  0  0  0  0  0  0  0  0  0  0  0
   41.4313   80.4783  -26.0505 H   0  0  0  0  0  0  0  0  0  0  0  0
   41.7980   81.1490  -23.9810 H   0  0  0  0  0  0  0  0  0  0  0  0
   39.5754   82.0939  -25.4077 H   0  0  0  0  0  0  0  0  0  0  0  0
   41.6500   83.6800  -25.0830 H   0  0  0  0  0  0  0  0  0  0  0  0
   39.7406   81.5313  -27.8768 H   0  0  0  0  0  0  0  0  0  0  0  0
   39.1270   84.0660  -27.1600 H   0  0  0  0  0  0  0  0  0  0  0  0
  2  1  1  1
  2  3  2  3
  2  4  1  0
  4  5  1  0
  5  6  1  0
  5  7  1  0
  7  8  1  0
  7  9  1  0
  9 10  1  0
  9 11  1  0
 11 12  1  0
 11  4  1  0
  1 13  1  0
  1 14  1  0
  1 15  1  0
  3 16  1  0
  4 17  1  6
  5 18  1  6
  6 19  1  0
  6 20  1  0
  6 21  1  0
  7 22  1  6
  8 23  1  0
  9 24  1  1
 10 25  1  0
 11 26  1  6
 12 27  1  0
M  CHG  2   3   1   6   1
M  END
>  <meeko>  (8) 
{"is_sidechain": [false], "free_energy": -5.537, "intermolecular_energy": -6.368, "internal_energy": -0.217}

$$$$
3dx2_ligand
     RDKit          3D

 27 27  0  0  0  0  0  0  0  0999 V2000
   43.8110   80.4500  -24.8400 C   0  0  0  0  0  0  0  0  0  0  0  0
   43.6840   81.0060  -26.5450 S   0  0  0  0  0  4  0  0  0  0  0  0
   44.0680   79.7780  -27.5840 O   0  0  0  0  0  0  0  0  0  0  0  0
   41.9270   81.4330  -26.7320 C   0  0  2  0  0  0  0  0  0  0  0  0
   41.2580   80.8400  -27.9890 C   0  0  1  0  0  0  0  0  0  0  0  0
   40.0160   80.0480  -27.6400 N   0  0  0  0  0  0  0  0  0  0  0  0
   40.7490   82.0700  -28.7810 C   0  0  1  0  0  0  0  0  0  0  0  0
   39.6380   81.6710  -29.5770 O   0  0  0  0  0  0  0  0  0  0  0  0
   40.3930   83.0470  -27.6500 C   0  0  1  0  0  0  0  0  0  0  0  0
   39.2830   82.5070  -26.9120 O   0  0  0  0  0  0  0  0  0  0  0  0
   41.6610   82.9510  -26.7910 C   0  0  1  0  0  0  0  0  0  0  0  0
   41.4700   83.4540  -25.4840 O   0  0  0  0  0  0  0  0  0  0  0  0
   43.6179   81.2954  -24.1633 H   0  0  0  0  0  0  0  0  0  0  0  0
   43.0708   79.6572  -24.6568 H   0  0  0  0  0  0  0  0  0  0  0  0
   44.8220   80.0572  -24.6568 H   0  0  0  0  0  0  0  0  0  0  0  0
   44.8450   79.2280  -27.3020 H   0  0  0  0  0  0  0  0  0  0  0  0
   41.4908   80.9913  -25.8239 H   0  0  0  0  0  0  0  0  0  0  0  0
   41.9685   80.1891  -28.5195 H   0  0  0  0  0  0  0  0  0  0  0  0
   39.7540   79.9420  -26.6540 H   0  0  0  0  0  0  0  0  0  0  0  0
   39.2020   80.4080  -28.1840 H   0  0  0  0  0  0  0  0  0  0  0  0
   40.1330   79.1000  -28.0510 H   0  0  0  0  0  0  0  0  0  0  0  0
   41.4552   82.5230  -29.4923 H   0  0  0  0  0  0  0  0  0  0  0  0
   39.9430   81.5110  -30.4950 H   0  0  0  0  0  0  0  0  0  0  0  0
   40.1219   84.0642  -27.9690 H   0  0  0  0  0  0  0  0  0  0  0  0
   39.1860   83.0500  -26.0970 H   0  0  0  0  0  0  0  0  0  0  0  0
   42.4865   83.5431  -27.2129 H   0  0  0  0  0  0  0  0  0  0  0  0
   40.5430   83.3190  -25.1990 H   0  0  0  0  0  0  0  0  0  0  0  0
  2  1  1  1
  2  3  2  3
  2  4  1  0
  4  5  1  0
  5  6  1  0
  5  7  1  0
  7  8  1  0
  7  9  1  0
  9 10  1  0
  9 11  1  0
 11 12  1  0
 11  4  1  0
  1 13  1  0
  1 14  1  0
  1 15  1  0
  3 16  1  0
  4 17  1  1
  5 18  1  6
  6 19  1  0
  6 20  1  0
  6 21  1  0
  7 22  1  6
  8 23  1  0
  9 24  1  6
 10 25  1  0
 11 26  1  6
 12 27  1  0
M  CHG  2   3   1   6   1
M  END
>  <meeko>  (9) 
{"is_sidechain": [false], "free_energy": -5.451, "intermolecular_energy": -6.406, "internal_energy": -0.079}

$$$$
