3u9q_ligand
     RDKit          3D

 31 30  0  0  0  0  0  0  0  0999 V2000
   -0.0400   -2.5790   26.9170 C   0  0  0  0  0  0  0  0  0  0  0  0
   -0.0700   -2.1260   25.4670 C   0  0  0  0  0  0  0  0  0  0  0  0
    1.3210   -1.7300   24.9730 C   0  0  0  0  0  0  0  0  0  0  0  0
    1.3790   -1.6850   23.4450 C   0  0  0  0  0  0  0  0  0  0  0  0
    1.2340   -0.2530   22.9270 C   0  0  0  0  0  0  0  0  0  0  0  0
    2.5660    0.3890   22.5210 C   0  0  0  0  0  0  0  0  0  0  0  0
    2.9290    1.6160   23.3620 C   0  0  0  0  0  0  0  0  0  0  0  0
    2.7900    2.9370   22.6010 C   0  0  0  0  0  0  0  0  0  0  0  0
    3.9860    3.2570   21.7080 C   0  0  0  0  0  0  0  0  0  0  0  0
    3.6680    3.3630   20.2120 C   0  0  0  0  0  0  0  0  0  0  0  0
    2.9360    4.3260   19.8550 O   0  0  0  0  0  0  0  0  0  0  0  0
    4.1880    2.4490   19.5090 O   0  0  0  0  0  0  0  0  0  0  0  0
   -0.0982   -1.7008   27.5768 H   0  0  0  0  0  0  0  0  0  0  0  0
   -0.8962   -3.2414   27.1120 H   0  0  0  0  0  0  0  0  0  0  0  0
    0.8961   -3.1227   27.1120 H   0  0  0  0  0  0  0  0  0  0  0  0
   -0.4494   -2.9490   24.8436 H   0  0  0  0  0  0  0  0  0  0  0  0
   -0.7247   -1.2450   25.3950 H   0  0  0  0  0  0  0  0  0  0  0  0
    1.5720   -0.7354   25.3701 H   0  0  0  0  0  0  0  0  0  0  0  0
    2.0408   -2.4839   25.3246 H   0  0  0  0  0  0  0  0  0  0  0  0
    2.3450   -2.0912   23.1106 H   0  0  0  0  0  0  0  0  0  0  0  0
    0.5470   -2.2848   23.0474 H   0  0  0  0  0  0  0  0  0  0  0  0
    0.5718   -0.2659   22.0487 H   0  0  0  0  0  0  0  0  0  0  0  0
    0.8229    0.3488   23.7509 H   0  0  0  0  0  0  0  0  0  0  0  0
    3.3634   -0.3602   22.6344 H   0  0  0  0  0  0  0  0  0  0  0  0
    2.4601    0.7278   21.4798 H   0  0  0  0  0  0  0  0  0  0  0  0
    2.2650    1.6469   24.2385 H   0  0  0  0  0  0  0  0  0  0  0  0
    3.9870    1.5141   23.6455 H   0  0  0  0  0  0  0  0  0  0  0  0
    1.8902    2.8821   21.9706 H   0  0  0  0  0  0  0  0  0  0  0  0
    2.7259    3.7372   23.3531 H   0  0  0  0  0  0  0  0  0  0  0  0
    4.4091    4.2180   22.0358 H   0  0  0  0  0  0  0  0  0  0  0  0
    4.6837    2.4133   21.8148 H   0  0  0  0  0  0  0  0  0  0  0  0
  1  2  1  0
  2  3  1  0
  3  4  1  0
  4  5  1  0
  5  6  1  0
  6  7  1  0
  7  8  1  0
  8  9  1  0
  9 10  1  0
 10 11  2  0
 10 12  1  0
  1 13  1  0
  1 14  1  0
  1 15  1  0
  2 16  1  0
  2 17  1  0
  3 18  1  0
  3 19  1  0
  4 20  1  0
  4 21  1  0
  5 22  1  0
  5 23  1  0
  6 24  1  0
  6 25  1  0
  7 26  1  0
  7 27  1  0
  8 28  1  0
  8 29  1  0
  9 30  1  0
  9 31  1  0
M  CHG  1  12  -1
M  END
>  <meeko>  (1) 
{"is_sidechain": [false], "free_energy": -5.8, "intermolecular_energy": -8.512, "internal_energy": -0.3}

$$$$
3u9q_ligand
     RDKit          3D

 31 30  0  0  0  0  0  0  0  0999 V2000
    2.1560    5.2420   22.1570 C   0  0  0  0  0  0  0  0  0  0  0  0
    2.1450    3.7310   21.9920 C   0  0  0  0  0  0  0  0  0  0  0  0
    3.2790    3.0730   22.7790 C   0  0  0  0  0  0  0  0  0  0  0  0
    2.9200    1.6410   23.1820 C   0  0  0  0  0  0  0  0  0  0  0  0
    1.8150    1.0750   22.2870 C   0  0  0  0  0  0  0  0  0  0  0  0
    1.5840   -0.4280   22.4770 C   0  0  0  0  0  0  0  0  0  0  0  0
    1.6830   -0.8780   23.9380 C   0  0  0  0  0  0  0  0  0  0  0  0
    0.9020   -2.1620   24.2320 C   0  0  0  0  0  0  0  0  0  0  0  0
    0.0790   -2.0970   25.5150 C   0  0  0  0  0  0  0  0  0  0  0  0
    0.3860   -3.1960   26.5390 C   0  0  0  0  0  0  0  0  0  0  0  0
    0.6480   -4.3400   26.0800 O   0  0  0  0  0  0  0  0  0  0  0  0
    0.3310   -2.8080   27.7420 O   0  0  0  0  0  0  0  0  0  0  0  0
    2.1578    5.4939   23.2278 H   0  0  0  0  0  0  0  0  0  0  0  0
    3.0572    5.6562   21.6813 H   0  0  0  0  0  0  0  0  0  0  0  0
    1.2609    5.6693   21.6813 H   0  0  0  0  0  0  0  0  0  0  0  0
    1.1835    3.3388   22.3550 H   0  0  0  0  0  0  0  0  0  0  0  0
    2.2851    3.4992   20.9259 H   0  0  0  0  0  0  0  0  0  0  0  0
    4.1839    3.0529   22.1540 H   0  0  0  0  0  0  0  0  0  0  0  0
    3.4505    3.6581   23.6946 H   0  0  0  0  0  0  0  0  0  0  0  0
    3.8148    1.0077   23.0914 H   0  0  0  0  0  0  0  0  0  0  0  0
    2.5562    1.6520   24.2201 H   0  0  0  0  0  0  0  0  0  0  0  0
    0.8774    1.6029   22.5154 H   0  0  0  0  0  0  0  0  0  0  0  0
    2.1346    1.2240   21.2451 H   0  0  0  0  0  0  0  0  0  0  0  0
    0.5800   -0.6767   22.1027 H   0  0  0  0  0  0  0  0  0  0  0  0
    2.3759   -0.9514   21.9212 H   0  0  0  0  0  0  0  0  0  0  0  0
    2.7423   -1.0511   24.1787 H   0  0  0  0  0  0  0  0  0  0  0  0
    1.2420   -0.0808   24.5544 H   0  0  0  0  0  0  0  0  0  0  0  0
    0.2198   -2.3542   23.3908 H   0  0  0  0  0  0  0  0  0  0  0  0
    1.6413   -2.9658   24.3638 H   0  0  0  0  0  0  0  0  0  0  0  0
    0.2674   -1.1239   25.9922 H   0  0  0  0  0  0  0  0  0  0  0  0
   -0.9694   -2.2411   25.2149 H   0  0  0  0  0  0  0  0  0  0  0  0
  1  2  1  0
  2  3  1  0
  3  4  1  0
  4  5  1  0
  5  6  1  0
  6  7  1  0
  7  8  1  0
  8  9  1  0
  9 10  1  0
 10 11  2  0
 10 12  1  0
  1 13  1  0
  1 14  1  0
  1 15  1  0
  2 16  1  0
  2 17  1  0
  3 18  1  0
  3 19  1  0
  4 20  1  0
  4 21  1  0
  5 22  1  0
  5 23  1  0
  6 24  1  0
  6 25  1  0
  7 26  1  0
  7 27  1  0
  8 28  1  0
  8 29  1  0
  9 30  1  0
  9 31  1  0
M  CHG  1  12  -1
M  END
>  <meeko>  (2) 
{"is_sidechain": [false], "free_energy": -5.7, "intermolecular_energy": -8.352, "internal_energy": -0.313}

$$$$
3u9q_ligand
     RDKit          3D

 31 30  0  0  0  0  0  0  0  0999 V2000
   -0.0530   -2.8840   27.2070 C   0  0  0  0  0  0  0  0  0  0  0  0
   -0.4390   -2.1600   25.9280 C   0  0  0  0  0  0  0  0  0  0  0  0
    0.4770   -2.5450   24.7670 C   0  0  0  0  0  0  0  0  0  0  0  0
    1.4270   -1.4010   24.4020 C   0  0  0  0  0  0  0  0  0  0  0  0
    1.4730   -1.1810   22.8890 C   0  0  0  0  0  0  0  0  0  0  0  0
    1.1200    0.2500   22.4680 C   0  0  0  0  0  0  0  0  0  0  0  0
    2.3210    1.0430   21.9470 C   0  0  0  0  0  0  0  0  0  0  0  0
    2.9770    1.9230   23.0150 C   0  0  0  0  0  0  0  0  0  0  0  0
    4.0370    2.8710   22.4590 C   0  0  0  0  0  0  0  0  0  0  0  0
    3.6230    3.6390   21.1990 C   0  0  0  0  0  0  0  0  0  0  0  0
    4.2160    3.3330   20.1290 O   0  0  0  0  0  0  0  0  0  0  0  0
    2.7210    4.5040   21.3960 O   0  0  0  0  0  0  0  0  0  0  0  0
   -0.3705   -2.2884   28.0756 H   0  0  0  0  0  0  0  0  0  0  0  0
   -0.5471   -3.8664   27.2356 H   0  0  0  0  0  0  0  0  0  0  0  0
    1.0380   -3.0213   27.2356 H   0  0  0  0  0  0  0  0  0  0  0  0
   -1.4751   -2.4223   25.6678 H   0  0  0  0  0  0  0  0  0  0  0  0
   -0.3400   -1.0782   26.1010 H   0  0  0  0  0  0  0  0  0  0  0  0
    1.0706   -3.4248   25.0560 H   0  0  0  0  0  0  0  0  0  0  0  0
   -0.1496   -2.7677   23.8907 H   0  0  0  0  0  0  0  0  0  0  0  0
    1.0799   -0.4775   24.8884 H   0  0  0  0  0  0  0  0  0  0  0  0
    2.4379   -1.6647   24.7463 H   0  0  0  0  0  0  0  0  0  0  0  0
    2.4896   -1.4073   22.5351 H   0  0  0  0  0  0  0  0  0  0  0  0
    0.7182   -1.8450   22.4425 H   0  0  0  0  0  0  0  0  0  0  0  0
    0.3616    0.2026   21.6726 H   0  0  0  0  0  0  0  0  0  0  0  0
    0.7504    0.7707   23.3637 H   0  0  0  0  0  0  0  0  0  0  0  0
    3.0718    0.3324   21.5711 H   0  0  0  0  0  0  0  0  0  0  0  0
    1.9506    1.7124   21.1566 H   0  0  0  0  0  0  0  0  0  0  0  0
    2.1934    2.5235   23.5002 H   0  0  0  0  0  0  0  0  0  0  0  0
    3.4849    1.2493   23.7208 H   0  0  0  0  0  0  0  0  0  0  0  0
    4.2820    3.6050   23.2408 H   0  0  0  0  0  0  0  0  0  0  0  0
    4.8905    2.2409   22.1682 H   0  0  0  0  0  0  0  0  0  0  0  0
  1  2  1  0
  2  3  1  0
  3  4  1  0
  4  5  1  0
  5  6  1  0
  6  7  1  0
  7  8  1  0
  8  9  1  0
  9 10  1  0
 10 11  2  0
 10 12  1  0
  1 13  1  0
  1 14  1  0
  1 15  1  0
  2 16  1  0
  2 17  1  0
  3 18  1  0
  3 19  1  0
  4 20  1  0
  4 21  1  0
  5 22  1  0
  5 23  1  0
  6 24  1  0
  6 25  1  0
  7 26  1  0
  7 27  1  0
  8 28  1  0
  8 29  1  0
  9 30  1  0
  9 31  1  0
M  CHG  1  12  -1
M  END
>  <meeko>  (3) 
{"is_sidechain": [false], "free_energy": -5.658, "intermolecular_energy": -8.309, "internal_energy": -0.295}

$$$$
3u9q_ligand
     RDKit          3D

 31 30  0  0  0  0  0  0  0  0999 V2000
    0.0070   -2.7380   27.2380 C   0  0  0  0  0  0  0  0  0  0  0  0
   -0.3540   -2.2480   25.8450 C   0  0  0  0  0  0  0  0  0  0  0  0
    0.1220   -3.2220   24.7680 C   0  0  0  0  0  0  0  0  0  0  0  0
    1.4420   -2.7610   24.1440 C   0  0  0  0  0  0  0  0  0  0  0  0
    1.4280   -1.2560   23.8690 C   0  0  0  0  0  0  0  0  0  0  0  0
    1.4300   -0.9050   22.3770 C   0  0  0  0  0  0  0  0  0  0  0  0
    2.8220   -0.9590   21.7420 C   0  0  0  0  0  0  0  0  0  0  0  0
    3.2270    0.3490   21.0570 C   0  0  0  0  0  0  0  0  0  0  0  0
    2.6700    1.5950   21.7400 C   0  0  0  0  0  0  0  0  0  0  0  0
    3.6320    2.2850   22.7150 C   0  0  0  0  0  0  0  0  0  0  0  0
    4.6040    2.9060   22.2070 O   0  0  0  0  0  0  0  0  0  0  0  0
    3.3250    2.1350   23.9330 O   0  0  0  0  0  0  0  0  0  0  0  0
   -0.4696   -2.0911   27.9892 H   0  0  0  0  0  0  0  0  0  0  0  0
   -0.3472   -3.7715   27.3664 H   0  0  0  0  0  0  0  0  0  0  0  0
    1.0990   -2.7060   27.3664 H   0  0  0  0  0  0  0  0  0  0  0  0
   -1.4468   -2.1436   25.7748 H   0  0  0  0  0  0  0  0  0  0  0  0
    0.1431   -1.2808   25.6797 H   0  0  0  0  0  0  0  0  0  0  0  0
    0.2671   -4.2139   25.2209 H   0  0  0  0  0  0  0  0  0  0  0  0
   -0.6403   -3.2631   23.9761 H   0  0  0  0  0  0  0  0  0  0  0  0
    2.2657   -2.9918   24.8355 H   0  0  0  0  0  0  0  0  0  0  0  0
    1.5786   -3.2885   23.1884 H   0  0  0  0  0  0  0  0  0  0  0  0
    0.5238   -0.8274   24.3259 H   0  0  0  0  0  0  0  0  0  0  0  0
    2.3512   -0.8408   24.2994 H   0  0  0  0  0  0  0  0  0  0  0  0
    0.7785   -1.6177   21.8502 H   0  0  0  0  0  0  0  0  0  0  0  0
    1.0715    0.1310   22.2865 H   0  0  0  0  0  0  0  0  0  0  0  0
    3.5565   -1.1824   22.5297 H   0  0  0  0  0  0  0  0  0  0  0  0
    2.7958   -1.7383   20.9661 H   0  0  0  0  0  0  0  0  0  0  0  0
    4.3250    0.4150   21.0552 H   0  0  0  0  0  0  0  0  0  0  0  0
    2.8074    0.3238   20.0405 H   0  0  0  0  0  0  0  0  0  0  0  0
    2.3983    2.3198   20.9585 H   0  0  0  0  0  0  0  0  0  0  0  0
    1.8124    1.2585   22.3410 H   0  0  0  0  0  0  0  0  0  0  0  0
  1  2  1  0
  2  3  1  0
  3  4  1  0
  4  5  1  0
  5  6  1  0
  6  7  1  0
  7  8  1  0
  8  9  1  0
  9 10  1  0
 10 11  2  0
 10 12  1  0
  1 13  1  0
  1 14  1  0
  1 15  1  0
  2 16  1  0
  2 17  1  0
  3 18  1  0
  3 19  1  0
  4 20  1  0
  4 21  1  0
  5 22  1  0
  5 23  1  0
  6 24  1  0
  6 25  1  0
  7 26  1  0
  7 27  1  0
  8 28  1  0
  8 29  1  0
  9 30  1  0
  9 31  1  0
M  CHG  1  12  -1
M  END
>  <meeko>  (4) 
{"is_sidechain": [false], "free_energy": -5.513, "intermolecular_energy": -7.912, "internal_energy": -0.48}

$$$$
3u9q_ligand
     RDKit          3D

 31 30  0  0  0  0  0  0  0  0999 V2000
   -0.0190   -2.6890   27.1190 C   0  0  0  0  0  0  0  0  0  0  0  0
   -0.3150   -2.0680   25.7640 C   0  0  0  0  0  0  0  0  0  0  0  0
    0.8280   -2.3060   24.7770 C   0  0  0  0  0  0  0  0  0  0  0  0
    1.4720   -0.9880   24.3410 C   0  0  0  0  0  0  0  0  0  0  0  0
    1.1690   -0.6840   22.8720 C   0  0  0  0  0  0  0  0  0  0  0  0
    1.4830    0.7610   22.4690 C   0  0  0  0  0  0  0  0  0  0  0  0
    2.7840    1.2920   23.0790 C   0  0  0  0  0  0  0  0  0  0  0  0
    3.8830    1.5400   22.0410 C   0  0  0  0  0  0  0  0  0  0  0  0
    4.3200    0.2790   21.3010 C   0  0  0  0  0  0  0  0  0  0  0  0
    3.9940    0.2610   19.8030 C   0  0  0  0  0  0  0  0  0  0  0  0
    3.3690   -0.7450   19.3700 O   0  0  0  0  0  0  0  0  0  0  0  0
    4.4070    1.2790   19.1740 O   0  0  0  0  0  0  0  0  0  0  0  0
   -0.3455   -2.0041   27.9154 H   0  0  0  0  0  0  0  0  0  0  0  0
   -0.5594   -3.6427   27.2112 H   0  0  0  0  0  0  0  0  0  0  0  0
    1.0621   -2.8698   27.2112 H   0  0  0  0  0  0  0  0  0  0  0  0
   -1.2353   -2.5145   25.3595 H   0  0  0  0  0  0  0  0  0  0  0  0
   -0.4333   -0.9829   25.9000 H   0  0  0  0  0  0  0  0  0  0  0  0
    1.5912   -2.9354   25.2580 H   0  0  0  0  0  0  0  0  0  0  0  0
    0.4180   -2.8029   23.8854 H   0  0  0  0  0  0  0  0  0  0  0  0
    1.0780   -0.1723   24.9650 H   0  0  0  0  0  0  0  0  0  0  0  0
    2.5619   -1.0761   24.4611 H   0  0  0  0  0  0  0  0  0  0  0  0
    1.7709   -1.3587   22.2456 H   0  0  0  0  0  0  0  0  0  0  0  0
    0.0888   -0.8327   22.7271 H   0  0  0  0  0  0  0  0  0  0  0  0
    1.5670    0.8073   21.3732 H   0  0  0  0  0  0  0  0  0  0  0  0
    0.6647    1.3901   22.8494 H   0  0  0  0  0  0  0  0  0  0  0  0
    2.5674    2.2408   23.5917 H   0  0  0  0  0  0  0  0  0  0  0  0
    3.1571    0.5227   23.7710 H   0  0  0  0  0  0  0  0  0  0  0  0
    3.5072    2.2638   21.3028 H   0  0  0  0  0  0  0  0  0  0  0  0
    4.7620    1.9157   22.5853 H   0  0  0  0  0  0  0  0  0  0  0  0
    5.4094    0.1770   21.4144 H   0  0  0  0  0  0  0  0  0  0  0  0
    3.7546   -0.5516   21.7487 H   0  0  0  0  0  0  0  0  0  0  0  0
  1  2  1  0
  2  3  1  0
  3  4  1  0
  4  5  1  0
  5  6  1  0
  6  7  1  0
  7  8  1  0
  8  9  1  0
  9 10  1  0
 10 11  2  0
 10 12  1  0
  1 13  1  0
  1 14  1  0
  1 15  1  0
  2 16  1  0
  2 17  1  0
  3 18  1  0
  3 19  1  0
  4 20  1  0
  4 21  1  0
  5 22  1  0
  5 23  1  0
  6 24  1  0
  6 25  1  0
  7 26  1  0
  7 27  1  0
  8 28  1  0
  8 29  1  0
  9 30  1  0
  9 31  1  0
M  CHG  1  12  -1
M  END
>  <meeko>  (5) 
{"is_sidechain": [false], "free_energy": -5.414, "intermolecular_energy": -7.843, "internal_energy": -0.403}

$$$$
3u9q_ligand
     RDKit          3D

 31 30  0  0  0  0  0  0  0  0999 V2000
    2.1110    5.2330   22.3250 C   0  0  0  0  0  0  0  0  0  0  0  0
    2.4340    4.5790   20.9920 C   0  0  0  0  0  0  0  0  0  0  0  0
    3.1570    3.2450   21.1830 C   0  0  0  0  0  0  0  0  0  0  0  0
    3.6540    3.0810   22.6210 C   0  0  0  0  0  0  0  0  0  0  0  0
    2.9970    1.8780   23.3000 C   0  0  0  0  0  0  0  0  0  0  0  0
    1.8900    1.2300   22.4610 C   0  0  0  0  0  0  0  0  0  0  0  0
    1.6310   -0.2340   22.8250 C   0  0  0  0  0  0  0  0  0  0  0  0
    2.0740   -1.2180   21.7370 C   0  0  0  0  0  0  0  0  0  0  0  0
    2.9430   -0.5820   20.6560 C   0  0  0  0  0  0  0  0  0  0  0  0
    4.4400   -0.8970   20.7590 C   0  0  0  0  0  0  0  0  0  0  0  0
    4.8100   -2.0320   20.3530 O   0  0  0  0  0  0  0  0  0  0  0  0
    5.1300    0.0410   21.2530 O   0  0  0  0  0  0  0  0  0  0  0  0
    2.4359    4.5751   23.1445 H   0  0  0  0  0  0  0  0  0  0  0  0
    2.6369    6.1964   22.3977 H   0  0  0  0  0  0  0  0  0  0  0  0
    1.0263    5.4010   22.3977 H   0  0  0  0  0  0  0  0  0  0  0  0
    1.4967    4.4023   20.4441 H   0  0  0  0  0  0  0  0  0  0  0  0
    3.0960    5.2528   20.4283 H   0  0  0  0  0  0  0  0  0  0  0  0
    2.4627    2.4247   20.9484 H   0  0  0  0  0  0  0  0  0  0  0  0
    4.0275    3.2234   20.5109 H   0  0  0  0  0  0  0  0  0  0  0  0
    4.7442    2.9351   22.6093 H   0  0  0  0  0  0  0  0  0  0  0  0
    3.3897    3.9870   23.1861 H   0  0  0  0  0  0  0  0  0  0  0  0
    3.7724    1.1227   23.4959 H   0  0  0  0  0  0  0  0  0  0  0  0
    2.5283    2.2453   24.2249 H   0  0  0  0  0  0  0  0  0  0  0  0
    0.9598    1.7971   22.6130 H   0  0  0  0  0  0  0  0  0  0  0  0
    2.2223    1.2506   21.4126 H   0  0  0  0  0  0  0  0  0  0  0  0
    2.1798   -0.4660   23.7497 H   0  0  0  0  0  0  0  0  0  0  0  0
    0.5441   -0.3515   22.9467 H   0  0  0  0  0  0  0  0  0  0  0  0
    2.6472   -2.0275   22.2126 H   0  0  0  0  0  0  0  0  0  0  0  0
    1.1622   -1.5855   21.2435 H   0  0  0  0  0  0  0  0  0  0  0  0
    2.5860   -0.9376   19.6782 H   0  0  0  0  0  0  0  0  0  0  0  0
    2.8483    0.5061   20.7863 H   0  0  0  0  0  0  0  0  0  0  0  0
  1  2  1  0
  2  3  1  0
  3  4  1  0
  4  5  1  0
  5  6  1  0
  6  7  1  0
  7  8  1  0
  8  9  1  0
  9 10  1  0
 10 11  2  0
 10 12  1  0
  1 13  1  0
  1 14  1  0
  1 15  1  0
  2 16  1  0
  2 17  1  0
  3 18  1  0
  3 19  1  0
  4 20  1  0
  4 21  1  0
  5 22  1  0
  5 23  1  0
  6 24  1  0
  6 25  1  0
  7 26  1  0
  7 27  1  0
  8 28  1  0
  8 29  1  0
  9 30  1  0
  9 31  1  0
M  CHG  1  12  -1
M  END
>  <meeko>  (6) 
{"is_sidechain": [false], "free_energy": -5.277, "intermolecular_energy": -7.305, "internal_energy": -0.74}

$$$$
3u9q_ligand
     RDKit          3D

 31 30  0  0  0  0  0  0  0  0999 V2000
    5.2700   -0.7480   20.8010 C   0  0  0  0  0  0  0  0  0  0  0  0
    4.1810   -1.6190   21.4050 C   0  0  0  0  0  0  0  0  0  0  0  0
    2.7870   -1.1210   21.0210 C   0  0  0  0  0  0  0  0  0  0  0  0
    1.7490   -1.4990   22.0790 C   0  0  0  0  0  0  0  0  0  0  0  0
    1.3930   -0.2990   22.9590 C   0  0  0  0  0  0  0  0  0  0  0  0
    1.8420    1.0440   22.3730 C   0  0  0  0  0  0  0  0  0  0  0  0
    2.8450    1.7880   23.2590 C   0  0  0  0  0  0  0  0  0  0  0  0
    3.0550    3.2480   22.8450 C   0  0  0  0  0  0  0  0  0  0  0  0
    4.1500    3.4340   21.7980 C   0  0  0  0  0  0  0  0  0  0  0  0
    3.6720    3.3730   20.3420 C   0  0  0  0  0  0  0  0  0  0  0  0
    4.0470    2.3790   19.6630 O   0  0  0  0  0  0  0  0  0  0  0  0
    2.9480    4.3520   19.9970 O   0  0  0  0  0  0  0  0  0  0  0  0
    5.8547   -0.2804   21.6069 H   0  0  0  0  0  0  0  0  0  0  0  0
    5.9328   -1.3680   20.1794 H   0  0  0  0  0  0  0  0  0  0  0  0
    4.8108    0.0348   20.1794 H   0  0  0  0  0  0  0  0  0  0  0  0
    4.3050   -2.6497   21.0413 H   0  0  0  0  0  0  0  0  0  0  0  0
    4.2730   -1.5763   22.5003 H   0  0  0  0  0  0  0  0  0  0  0  0
    2.8132   -0.0259   20.9203 H   0  0  0  0  0  0  0  0  0  0  0  0
    2.5002   -1.5933   20.0699 H   0  0  0  0  0  0  0  0  0  0  0  0
    0.8387   -1.8578   21.5764 H   0  0  0  0  0  0  0  0  0  0  0  0
    2.1748   -2.2859   22.7189 H   0  0  0  0  0  0  0  0  0  0  0  0
    0.3010   -0.2744   23.0889 H   0  0  0  0  0  0  0  0  0  0  0  0
    1.9241   -0.4291   23.9135 H   0  0  0  0  0  0  0  0  0  0  0  0
    2.3106    0.8588   21.3952 H   0  0  0  0  0  0  0  0  0  0  0  0
    0.9472    1.6785   22.2912 H   0  0  0  0  0  0  0  0  0  0  0  0
    2.4765    1.7688   24.2953 H   0  0  0  0  0  0  0  0  0  0  0  0
    3.8136    1.2775   23.1532 H   0  0  0  0  0  0  0  0  0  0  0  0
    2.1103    3.6320   22.4324 H   0  0  0  0  0  0  0  0  0  0  0  0
    3.3717    3.7963   23.7444 H   0  0  0  0  0  0  0  0  0  0  0  0
    4.6166    4.4164   21.9631 H   0  0  0  0  0  0  0  0  0  0  0  0
    4.8461    2.5923   21.9285 H   0  0  0  0  0  0  0  0  0  0  0  0
  1  2  1  0
  2  3  1  0
  3  4  1  0
  4  5  1  0
  5  6  1  0
  6  7  1  0
  7  8  1  0
  8  9  1  0
  9 10  1  0
 10 11  2  0
 10 12  1  0
  1 13  1  0
  1 14  1  0
  1 15  1  0
  2 16  1  0
  2 17  1  0
  3 18  1  0
  3 19  1  0
  4 20  1  0
  4 21  1  0
  5 22  1  0
  5 23  1  0
  6 24  1  0
  6 25  1  0
  7 26  1  0
  7 27  1  0
  8 28  1  0
  8 29  1  0
  9 30  1  0
  9 31  1  0
M  CHG  1  12  -1
M  END
>  <meeko>  (7) 
{"is_sidechain": [false], "free_energy": -5.033, "intermolecular_energy": -7.039, "internal_energy": -0.648}

$$$$
3u9q_ligand
     RDKit          3D

 31 30  0  0  0  0  0  0  0  0999 V2000
   -0.0720   -2.3930   26.6940 C   0  0  0  0  0  0  0  0  0  0  0  0
    1.1280   -2.2440   25.7730 C   0  0  0  0  0  0  0  0  0  0  0  0
    0.7030   -1.8560   24.3570 C   0  0  0  0  0  0  0  0  0  0  0  0
    1.6670   -0.8380   23.7450 C   0  0  0  0  0  0  0  0  0  0  0  0
    1.8110   -1.0490   22.2360 C   0  0  0  0  0  0  0  0  0  0  0  0
    3.1000   -0.4570   21.6560 C   0  0  0  0  0  0  0  0  0  0  0  0
    4.1160   -1.5190   21.2270 C   0  0  0  0  0  0  0  0  0  0  0  0
    4.2520   -1.6510   19.7070 C   0  0  0  0  0  0  0  0  0  0  0  0
    5.4490   -0.8980   19.1330 C   0  0  0  0  0  0  0  0  0  0  0  0
    6.8190   -1.4120   19.5910 C   0  0  0  0  0  0  0  0  0  0  0  0
    7.5230   -0.6180   20.2730 O   0  0  0  0  0  0  0  0  0  0  0  0
    7.0770   -2.5920   19.2160 O   0  0  0  0  0  0  0  0  0  0  0  0
    0.2621   -2.3515   27.7412 H   0  0  0  0  0  0  0  0  0  0  0  0
   -0.7839   -1.5764   26.5037 H   0  0  0  0  0  0  0  0  0  0  0  0
   -0.5626   -3.3590   26.5037 H   0  0  0  0  0  0  0  0  0  0  0  0
    1.7912   -1.4632   26.1736 H   0  0  0  0  0  0  0  0  0  0  0  0
    1.6477   -3.2123   25.7241 H   0  0  0  0  0  0  0  0  0  0  0  0
    0.6881   -2.7582   23.7278 H   0  0  0  0  0  0  0  0  0  0  0  0
   -0.2965   -1.3996   24.4080 H   0  0  0  0  0  0  0  0  0  0  0  0
    1.2831    0.1760   23.9304 H   0  0  0  0  0  0  0  0  0  0  0  0
    2.6547   -0.9702   24.2108 H   0  0  0  0  0  0  0  0  0  0  0  0
    1.8024   -2.1301   22.0333 H   0  0  0  0  0  0  0  0  0  0  0  0
    0.9705   -0.5275   21.7548 H   0  0  0  0  0  0  0  0  0  0  0  0
    2.8399    0.1520   20.7777 H   0  0  0  0  0  0  0  0  0  0  0  0
    3.5700    0.1405   22.4510 H   0  0  0  0  0  0  0  0  0  0  0  0
    5.0982   -1.2503   21.6430 H   0  0  0  0  0  0  0  0  0  0  0  0
    3.7548   -2.4863   21.6062 H   0  0  0  0  0  0  0  0  0  0  0  0
    4.3603   -2.7172   19.4588 H   0  0  0  0  0  0  0  0  0  0  0  0
    3.3487   -1.2077   19.2626 H   0  0  0  0  0  0  0  0  0  0  0  0
    5.4055   -0.9734   18.0364 H   0  0  0  0  0  0  0  0  0  0  0  0
    5.3688    0.1346   19.5036 H   0  0  0  0  0  0  0  0  0  0  0  0
  1  2  1  0
  2  3  1  0
  3  4  1  0
  4  5  1  0
  5  6  1  0
  6  7  1  0
  7  8  1  0
  8  9  1  0
  9 10  1  0
 10 11  2  0
 10 12  1  0
  1 13  1  0
  1 14  1  0
  1 15  1  0
  2 16  1  0
  2 17  1  0
  3 18  1  0
  3 19  1  0
  4 20  1  0
  4 21  1  0
  5 22  1  0
  5 23  1  0
  6 24  1  0
  6 25  1  0
  7 26  1  0
  7 27  1  0
  8 28  1  0
  8 29  1  0
  9 30  1  0
  9 31  1  0
M  CHG  1  12  -1
M  END
>  <meeko>  (8) 
{"is_sidechain": [false], "free_energy": -4.723, "intermolecular_energy": -6.988, "internal_energy": -0.244}

$$$$
3u9q_ligand
     RDKit          3D

 31 30  0  0  0  0  0  0  0  0999 V2000
    1.4580   -0.5150   22.4970 C   0  0  0  0  0  0  0  0  0  0  0  0
    1.7470    0.9680   22.3320 C   0  0  0  0  0  0  0  0  0  0  0  0
    2.7460    1.4650   23.3770 C   0  0  0  0  0  0  0  0  0  0  0  0
    3.4950    2.7060   22.8870 C   0  0  0  0  0  0  0  0  0  0  0  0
    2.5970    3.5840   22.0130 C   0  0  0  0  0  0  0  0  0  0  0  0
    3.3740    4.5650   21.1280 C   0  0  0  0  0  0  0  0  0  0  0  0
    4.0730    3.8910   19.9430 C   0  0  0  0  0  0  0  0  0  0  0  0
    3.2990    2.6930   19.3840 C   0  0  0  0  0  0  0  0  0  0  0  0
    4.1980    1.5650   18.8840 C   0  0  0  0  0  0  0  0  0  0  0  0
    4.0880    0.2520   19.6690 C   0  0  0  0  0  0  0  0  0  0  0  0
    3.2510   -0.5910   19.2480 O   0  0  0  0  0  0  0  0  0  0  0  0
    4.8650    0.1820   20.6650 O   0  0  0  0  0  0  0  0  0  0  0  0
    1.4098   -0.7623   23.5678 H   0  0  0  0  0  0  0  0  0  0  0  0
    0.4959   -0.7562   22.0213 H   0  0  0  0  0  0  0  0  0  0  0  0
    2.2591   -1.0998   22.0213 H   0  0  0  0  0  0  0  0  0  0  0  0
    2.1636    1.1413   21.3288 H   0  0  0  0  0  0  0  0  0  0  0  0
    0.8049    1.5197   22.4661 H   0  0  0  0  0  0  0  0  0  0  0  0
    2.2032    1.7158   24.3003 H   0  0  0  0  0  0  0  0  0  0  0  0
    3.4806    0.6672   23.5608 H   0  0  0  0  0  0  0  0  0  0  0  0
    3.8305    3.2896   23.7570 H   0  0  0  0  0  0  0  0  0  0  0  0
    4.3554    2.3789   22.2848 H   0  0  0  0  0  0  0  0  0  0  0  0
    1.9967    2.9299   21.3636 H   0  0  0  0  0  0  0  0  0  0  0  0
    1.9737    4.1850   22.6915 H   0  0  0  0  0  0  0  0  0  0  0  0
    2.6705    5.3151   20.7375 H   0  0  0  0  0  0  0  0  0  0  0  0
    4.1577    5.0170   21.7537 H   0  0  0  0  0  0  0  0  0  0  0  0
    4.1939    4.6337   19.1406 H   0  0  0  0  0  0  0  0  0  0  0  0
    5.0397    3.5129   20.3072 H   0  0  0  0  0  0  0  0  0  0  0  0
    2.6516    2.2953   20.1794 H   0  0  0  0  0  0  0  0  0  0  0  0
    2.7240    3.0552   18.5190 H   0  0  0  0  0  0  0  0  0  0  0  0
    3.9358    1.3589   17.8358 H   0  0  0  0  0  0  0  0  0  0  0  0
    5.2324    1.9155   19.0147 H   0  0  0  0  0  0  0  0  0  0  0  0
  1  2  1  0
  2  3  1  0
  3  4  1  0
  4  5  1  0
  5  6  1  0
  6  7  1  0
  7  8  1  0
  8  9  1  0
  9 10  1  0
 10 11  2  0
 10 12  1  0
  1 13  1  0
  1 14  1  0
  1 15  1  0
  2 16  1  0
  2 17  1  0
  3 18  1  0
  3 19  1  0
  4 20  1  0
  4 21  1  0
  5 22  1  0
  5 23  1  0
  6 24  1  0
  6 25  1  0
  7 26  1  0
  7 27  1  0
  8 28  1  0
  8 29  1  0
  9 30  1  0
  9 31  1  0
M  CHG  1  12  -1
M  END
>  <meeko>  (9) 
{"is_sidechain": [false], "free_energy": -4.715, "intermolecular_energy": -6.337, "internal_energy": -0.883}

$$$$
