5c28_ligand
     RDKit          3D

 22 23  0  0  0  0  0  0  0  0999 V2000
    3.0520   12.3680   45.8210 C   0  0  0  0  0  0  0  0  0  0  0  0
    3.3510   12.7210   44.3990 C   0  0  0  0  0  0  0  0  0  0  0  0
    2.8190   13.8120   43.7420 C   0  0  0  0  0  0  0  0  0  0  0  0
    1.9360   14.6970   44.3700 N   0  0  0  0  0  0  0  0  0  0  0  0
    3.1100   14.0970   42.4660 N   0  0  0  0  0  0  0  0  0  0  0  0
    3.9550   13.2950   41.7930 C   0  0  0  0  0  0  0  0  0  0  0  0
    4.2710   13.6280   40.3560 C   0  0  0  0  0  0  0  0  0  0  0  0
    3.1640   14.0270   39.4060 C   0  0  0  0  0  0  0  0  0  0  0  0
    3.8340   12.6960   39.2470 C   0  0  0  0  0  0  0  0  0  0  0  0
    4.5160   12.2110   42.3400 N   0  0  0  0  0  0  0  0  0  0  0  0
    4.1990   11.9610   43.6170 C   0  0  0  0  0  0  0  0  0  0  0  0
    4.9810   10.5460   44.2190 Cl  0  0  0  0  0  0  0  0  0  0  0  0
    3.6161   13.0340   46.4905 H   0  0  0  0  0  0  0  0  0  0  0  0
    1.9746   12.4857   46.0093 H   0  0  0  0  0  0  0  0  0  0  0  0
    3.3453   11.3247   46.0093 H   0  0  0  0  0  0  0  0  0  0  0  0
    2.3050   14.9880   45.2700 H   0  0  0  0  0  0  0  0  0  0  0  0
    1.0340   14.2540   44.5170 H   0  0  0  0  0  0  0  0  0  0  0  0
    5.2259   14.0726   40.6731 H   0  0  0  0  0  0  0  0  0  0  0  0
    2.1253   14.0796   39.7643 H   0  0  0  0  0  0  0  0  0  0  0  0
    2.9810   14.8873   38.7454 H   0  0  0  0  0  0  0  0  0  0  0  0
    3.2865   11.7731   39.4890 H   0  0  0  0  0  0  0  0  0  0  0  0
    4.3450   12.1779   38.4221 H   0  0  0  0  0  0  0  0  0  0  0  0
  1  2  1  0
  2  3  2  0
  3  4  1  0
  3  5  1  0
  5  6  2  0
  6  7  1  0
  7  8  1  0
  8  9  1  0
  6 10  1  0
 10 11  2  0
 11 12  1  0
 11  2  1  0
  9  7  1  0
  1 13  1  0
  1 14  1  0
  1 15  1  0
  4 16  1  0
  4 17  1  0
  7 18  1  0
  8 19  1  0
  8 20  1  0
  9 21  1  0
  9 22  1  0
M  END
>  <meeko>  (1) 
{"is_sidechain": [false], "free_energy": -6.128, "intermolecular_energy": -6.665, "internal_energy": 0.105}

$$$$
5c28_ligand
     RDKit          3D

 22 23  0  0  0  0  0  0  0  0999 V2000
    2.5710   13.6910   44.3420 C   0  0  0  0  0  0  0  0  0  0  0  0
    3.5660   12.5810   44.4420 C   0  0  0  0  0  0  0  0  0  0  0  0
    3.8450   11.8910   45.6050 C   0  0  0  0  0  0  0  0  0  0  0  0
    3.2020   12.1840   46.8110 N   0  0  0  0  0  0  0  0  0  0  0  0
    4.7450   10.9000   45.6570 N   0  0  0  0  0  0  0  0  0  0  0  0
    5.4050   10.5560   44.5370 C   0  0  0  0  0  0  0  0  0  0  0  0
    6.4170    9.4400   44.6120 C   0  0  0  0  0  0  0  0  0  0  0  0
    6.9650    8.8230   43.3440 C   0  0  0  0  0  0  0  0  0  0  0  0
    6.0290    8.0340   44.2080 C   0  0  0  0  0  0  0  0  0  0  0  0
    5.2100   11.1690   43.3630 N   0  0  0  0  0  0  0  0  0  0  0  0
    4.3020   12.1540   43.3530 C   0  0  0  0  0  0  0  0  0  0  0  0
    4.1300   12.8670   41.7920 Cl  0  0  0  0  0  0  0  0  0  0  0  0
    2.2805   14.0151   45.3522 H   0  0  0  0  0  0  0  0  0  0  0  0
    3.0188   14.5371   43.8001 H   0  0  0  0  0  0  0  0  0  0  0  0
    1.6812   13.3381   43.8001 H   0  0  0  0  0  0  0  0  0  0  0  0
    3.2980   11.4130   47.4630 H   0  0  0  0  0  0  0  0  0  0  0  0
    2.2130   12.3550   46.6550 H   0  0  0  0  0  0  0  0  0  0  0  0
    6.8555    9.9033   45.5082 H   0  0  0  0  0  0  0  0  0  0  0  0
    6.6283    9.1919   42.3639 H   0  0  0  0  0  0  0  0  0  0  0  0
    7.9725    8.6542   42.9359 H   0  0  0  0  0  0  0  0  0  0  0  0
    5.0063    7.8247   43.8613 H   0  0  0  0  0  0  0  0  0  0  0  0
    6.0670    7.0483   44.6948 H   0  0  0  0  0  0  0  0  0  0  0  0
  1  2  1  0
  2  3  2  0
  3  4  1  0
  3  5  1  0
  5  6  2  0
  6  7  1  0
  7  8  1  0
  8  9  1  0
  6 10  1  0
 10 11  2  0
 11 12  1  0
 11  2  1  0
  9  7  1  0
  1 13  1  0
  1 14  1  0
  1 15  1  0
  4 16  1  0
  4 17  1  0
  7 18  1  0
  8 19  1  0
  8 20  1  0
  9 21  1  0
  9 22  1  0
M  END
>  <meeko>  (2) 
{"is_sidechain": [false], "free_energy": -5.981, "intermolecular_energy": -6.437, "internal_energy": 0.036}

$$$$
5c28_ligand
     RDKit          3D

 22 23  0  0  0  0  0  0  0  0999 V2000
    2.6560   12.5990   45.7280 C   0  0  0  0  0  0  0  0  0  0  0  0
    3.7530   12.1500   44.8170 C   0  0  0  0  0  0  0  0  0  0  0  0
    4.7110   11.2160   45.1560 C   0  0  0  0  0  0  0  0  0  0  0  0
    4.7310   10.5990   46.4110 N   0  0  0  0  0  0  0  0  0  0  0  0
    5.6800   10.8390   44.3120 N   0  0  0  0  0  0  0  0  0  0  0  0
    5.7280   11.3850   43.0840 C   0  0  0  0  0  0  0  0  0  0  0  0
    6.8270   10.9520   42.1460 C   0  0  0  0  0  0  0  0  0  0  0  0
    7.7140    9.7800   42.5030 C   0  0  0  0  0  0  0  0  0  0  0  0
    8.2760   11.1690   42.5230 C   0  0  0  0  0  0  0  0  0  0  0  0
    4.8500   12.3030   42.6640 N   0  0  0  0  0  0  0  0  0  0  0  0
    3.8960   12.6530   43.5380 C   0  0  0  0  0  0  0  0  0  0  0  0
    2.8200   13.8360   42.8900 Cl  0  0  0  0  0  0  0  0  0  0  0  0
    2.9718   12.4697   46.7737 H   0  0  0  0  0  0  0  0  0  0  0  0
    2.4347   13.6600   45.5403 H   0  0  0  0  0  0  0  0  0  0  0  0
    1.7543   11.9976   45.5403 H   0  0  0  0  0  0  0  0  0  0  0  0
    5.2710    9.7410   46.3770 H   0  0  0  0  0  0  0  0  0  0  0  0
    3.7870   10.3760   46.7130 H   0  0  0  0  0  0  0  0  0  0  0  0
    6.1941   11.2192   41.2869 H   0  0  0  0  0  0  0  0  0  0  0  0
    7.5548    9.2384   43.4471 H   0  0  0  0  0  0  0  0  0  0  0  0
    7.9915    8.8378   42.0078 H   0  0  0  0  0  0  0  0  0  0  0  0
    8.5286   11.6455   43.4817 H   0  0  0  0  0  0  0  0  0  0  0  0
    9.1354   11.6654   42.0486 H   0  0  0  0  0  0  0  0  0  0  0  0
  1  2  1  0
  2  3  2  0
  3  4  1  0
  3  5  1  0
  5  6  2  0
  6  7  1  0
  7  8  1  0
  8  9  1  0
  6 10  1  0
 10 11  2  0
 11 12  1  0
 11  2  1  0
  9  7  1  0
  1 13  1  0
  1 14  1  0
  1 15  1  0
  4 16  1  0
  4 17  1  0
  7 18  1  0
  8 19  1  0
  8 20  1  0
  9 21  1  0
  9 22  1  0
M  END
>  <meeko>  (3) 
{"is_sidechain": [false], "free_energy": -5.758, "intermolecular_energy": -6.283, "internal_energy": 0.125}

$$$$
5c28_ligand
     RDKit          3D

 22 23  0  0  0  0  0  0  0  0999 V2000
    3.2650   12.0790   45.8150 C   0  0  0  0  0  0  0  0  0  0  0  0
    3.5800   12.3730   44.3840 C   0  0  0  0  0  0  0  0  0  0  0  0
    4.3800   11.5790   43.5870 C   0  0  0  0  0  0  0  0  0  0  0  0
    4.9750   10.4080   44.0680 N   0  0  0  0  0  0  0  0  0  0  0  0
    4.6410   11.8750   42.3070 N   0  0  0  0  0  0  0  0  0  0  0  0
    4.1050   12.9850   41.7690 C   0  0  0  0  0  0  0  0  0  0  0  0
    4.4100   13.3050   40.3270 C   0  0  0  0  0  0  0  0  0  0  0  0
    4.6390   14.7380   39.8980 C   0  0  0  0  0  0  0  0  0  0  0  0
    3.3880   14.0290   39.4770 C   0  0  0  0  0  0  0  0  0  0  0  0
    3.3220   13.8200   42.4610 N   0  0  0  0  0  0  0  0  0  0  0  0
    3.0850   13.4890   43.7380 C   0  0  0  0  0  0  0  0  0  0  0  0
    2.0630   14.6310   44.5300 Cl  0  0  0  0  0  0  0  0  0  0  0  0
    3.9137   12.6844   46.4651 H   0  0  0  0  0  0  0  0  0  0  0  0
    2.2119   12.3247   46.0166 H   0  0  0  0  0  0  0  0  0  0  0  0
    3.4375   11.0115   46.0166 H   0  0  0  0  0  0  0  0  0  0  0  0
    4.2920    9.8360   44.5530 H   0  0  0  0  0  0  0  0  0  0  0  0
    5.7280   10.6300   44.7110 H   0  0  0  0  0  0  0  0  0  0  0  0
    4.9732   12.3640   40.2409 H   0  0  0  0  0  0  0  0  0  0  0  0
    4.5876   15.5482   40.6402 H   0  0  0  0  0  0  0  0  0  0  0  0
    5.4439   15.2706   39.3703 H   0  0  0  0  0  0  0  0  0  0  0  0
    2.4197   14.3195   39.9107 H   0  0  0  0  0  0  0  0  0  0  0  0
    2.8973   13.8273   38.5134 H   0  0  0  0  0  0  0  0  0  0  0  0
  1  2  1  0
  2  3  2  0
  3  4  1  0
  3  5  1  0
  5  6  2  0
  6  7  1  0
  7  8  1  0
  8  9  1  0
  6 10  1  0
 10 11  2  0
 11 12  1  0
 11  2  1  0
  9  7  1  0
  1 13  1  0
  1 14  1  0
  1 15  1  0
  4 16  1  0
  4 17  1  0
  7 18  1  0
  8 19  1  0
  8 20  1  0
  9 21  1  0
  9 22  1  0
M  END
>  <meeko>  (4) 
{"is_sidechain": [false], "free_energy": -5.756, "intermolecular_energy": -6.466, "internal_energy": 0.309}

$$$$
5c28_ligand
     RDKit          3D

 22 23  0  0  0  0  0  0  0  0999 V2000
    2.6080   14.2420   43.6010 C   0  0  0  0  0  0  0  0  0  0  0  0
    3.5620   13.1680   43.1860 C   0  0  0  0  0  0  0  0  0  0  0  0
    4.1750   13.1090   41.9500 C   0  0  0  0  0  0  0  0  0  0  0  0
    3.9460   14.0750   40.9650 N   0  0  0  0  0  0  0  0  0  0  0  0
    5.0240   12.1310   41.6130 N   0  0  0  0  0  0  0  0  0  0  0  0
    5.2980   11.1650   42.5080 C   0  0  0  0  0  0  0  0  0  0  0  0
    6.2550   10.0680   42.1130 C   0  0  0  0  0  0  0  0  0  0  0  0
    6.9920    9.2810   43.1750 C   0  0  0  0  0  0  0  0  0  0  0  0
    7.7440   10.2500   42.3150 C   0  0  0  0  0  0  0  0  0  0  0  0
    4.7500   11.1310   43.7280 N   0  0  0  0  0  0  0  0  0  0  0  0
    3.9060   12.1270   44.0270 C   0  0  0  0  0  0  0  0  0  0  0  0
    3.2650   11.9850   45.6220 Cl  0  0  0  0  0  0  0  0  0  0  0  0
    2.5652   14.2902   44.6991 H   0  0  0  0  0  0  0  0  0  0  0  0
    2.9500   15.2094   43.2046 H   0  0  0  0  0  0  0  0  0  0  0  0
    1.6070   14.0165   43.2046 H   0  0  0  0  0  0  0  0  0  0  0  0
    4.7350   14.1280   40.3280 H   0  0  0  0  0  0  0  0  0  0  0  0
    3.8070   14.9880   41.3860 H   0  0  0  0  0  0  0  0  0  0  0  0
    5.6062    9.8139   41.2618 H   0  0  0  0  0  0  0  0  0  0  0  0
    6.8259    9.5054   44.2390 H   0  0  0  0  0  0  0  0  0  0  0  0
    7.0980    8.2128   43.4154 H   0  0  0  0  0  0  0  0  0  0  0  0
    8.1291   11.1848   42.7485 H   0  0  0  0  0  0  0  0  0  0  0  0
    8.6288   10.1856   41.6646 H   0  0  0  0  0  0  0  0  0  0  0  0
  1  2  1  0
  2  3  2  0
  3  4  1  0
  3  5  1  0
  5  6  2  0
  6  7  1  0
  7  8  1  0
  8  9  1  0
  6 10  1  0
 10 11  2  0
 11 12  1  0
 11  2  1  0
  9  7  1  0
  1 13  1  0
  1 14  1  0
  1 15  1  0
  4 16  1  0
  4 17  1  0
  7 18  1  0
  8 19  1  0
  8 20  1  0
  9 21  1  0
  9 22  1  0
M  END
>  <meeko>  (5) 
{"is_sidechain": [false], "free_energy": -5.573, "intermolecular_energy": -5.99, "internal_energy": 0.033}

$$$$
5c28_ligand
     RDKit          3D

 22 23  0  0  0  0  0  0  0  0999 V2000
    4.9300   11.1820   44.8590 C   0  0  0  0  0  0  0  0  0  0  0  0
    5.6230   10.0520   44.1680 C   0  0  0  0  0  0  0  0  0  0  0  0
    6.3080    9.0470   44.8200 C   0  0  0  0  0  0  0  0  0  0  0  0
    6.4110    9.0050   46.2140 N   0  0  0  0  0  0  0  0  0  0  0  0
    6.9170    8.0490   44.1670 N   0  0  0  0  0  0  0  0  0  0  0  0
    6.8620    8.0160   42.8230 C   0  0  0  0  0  0  0  0  0  0  0  0
    7.5560    6.8880   42.1020 C   0  0  0  0  0  0  0  0  0  0  0  0
    7.0840    6.4580   40.7300 C   0  0  0  0  0  0  0  0  0  0  0  0
    6.8500    5.5630   41.9090 C   0  0  0  0  0  0  0  0  0  0  0  0
    6.2290    8.9480   42.1010 N   0  0  0  0  0  0  0  0  0  0  0  0
    5.6320    9.9280   42.7920 C   0  0  0  0  0  0  0  0  0  0  0  0
    4.8450   11.0670   41.7620 Cl  0  0  0  0  0  0  0  0  0  0  0  0
    5.0106   11.0505   45.9481 H   0  0  0  0  0  0  0  0  0  0  0  0
    5.4003   12.1330   44.5687 H   0  0  0  0  0  0  0  0  0  0  0  0
    3.8691   11.1940   44.5687 H   0  0  0  0  0  0  0  0  0  0  0  0
    5.6540    8.4580   46.6110 H   0  0  0  0  0  0  0  0  0  0  0  0
    6.3720    9.9430   46.6020 H   0  0  0  0  0  0  0  0  0  0  0  0
    8.5164    7.2070   42.5331 H   0  0  0  0  0  0  0  0  0  0  0  0
    6.2361    6.9729   40.2547 H   0  0  0  0  0  0  0  0  0  0  0  0
    7.5632    6.3372   39.7473 H   0  0  0  0  0  0  0  0  0  0  0  0
    5.8307    5.4222   42.2978 H   0  0  0  0  0  0  0  0  0  0  0  0
    7.0869    4.5156   42.1472 H   0  0  0  0  0  0  0  0  0  0  0  0
  1  2  1  0
  2  3  2  0
  3  4  1  0
  3  5  1  0
  5  6  2  0
  6  7  1  0
  7  8  1  0
  8  9  1  0
  6 10  1  0
 10 11  2  0
 11 12  1  0
 11  2  1  0
  9  7  1  0
  1 13  1  0
  1 14  1  0
  1 15  1  0
  4 16  1  0
  4 17  1  0
  7 18  1  0
  8 19  1  0
  8 20  1  0
  9 21  1  0
  9 22  1  0
M  END
>  <meeko>  (6) 
{"is_sidechain": [false], "free_energy": -5.443, "intermolecular_energy": -5.849, "internal_energy": 0.033}

$$$$
5c28_ligand
     RDKit          3D

 22 23  0  0  0  0  0  0  0  0999 V2000
    6.8100    9.0430   44.8790 C   0  0  0  0  0  0  0  0  0  0  0  0
    5.9260   10.0940   44.2900 C   0  0  0  0  0  0  0  0  0  0  0  0
    5.0020   10.8250   45.0100 C   0  0  0  0  0  0  0  0  0  0  0  0
    4.8160   10.6340   46.3830 N   0  0  0  0  0  0  0  0  0  0  0  0
    4.2250   11.7590   44.4480 N   0  0  0  0  0  0  0  0  0  0  0  0
    4.3460   12.0040   43.1310 C   0  0  0  0  0  0  0  0  0  0  0  0
    3.4620   13.0580   42.5110 C   0  0  0  0  0  0  0  0  0  0  0  0
    3.8880   13.7550   41.2380 C   0  0  0  0  0  0  0  0  0  0  0  0
    3.8850   14.5110   42.5320 C   0  0  0  0  0  0  0  0  0  0  0  0
    5.2060   11.3450   42.3470 N   0  0  0  0  0  0  0  0  0  0  0  0
    5.9650   10.4180   42.9480 C   0  0  0  0  0  0  0  0  0  0  0  0
    7.0380    9.6370   41.8450 Cl  0  0  0  0  0  0  0  0  0  0  0  0
    6.7638    9.0980   45.9767 H   0  0  0  0  0  0  0  0  0  0  0  0
    6.4711    8.0506   44.5470 H   0  0  0  0  0  0  0  0  0  0  0  0
    7.8458    9.2068   44.5470 H   0  0  0  0  0  0  0  0  0  0  0  0
    4.3230   11.4230   46.7890 H   0  0  0  0  0  0  0  0  0  0  0  0
    5.7110   10.5350   46.8530 H   0  0  0  0  0  0  0  0  0  0  0  0
    2.5723   12.4977   42.8343 H   0  0  0  0  0  0  0  0  0  0  0  0
    4.8422   13.4894   40.7595 H   0  0  0  0  0  0  0  0  0  0  0  0
    3.4331   13.9091   40.2484 H   0  0  0  0  0  0  0  0  0  0  0  0
    4.8369   14.7992   43.0019 H   0  0  0  0  0  0  0  0  0  0  0  0
    3.4271   15.4477   42.8826 H   0  0  0  0  0  0  0  0  0  0  0  0
  1  2  1  0
  2  3  2  0
  3  4  1  0
  3  5  1  0
  5  6  2  0
  6  7  1  0
  7  8  1  0
  8  9  1  0
  6 10  1  0
 10 11  2  0
 11 12  1  0
 11  2  1  0
  9  7  1  0
  1 13  1  0
  1 14  1  0
  1 15  1  0
  4 16  1  0
  4 17  1  0
  7 18  1  0
  8 19  1  0
  8 20  1  0
  9 21  1  0
  9 22  1  0
M  END
>  <meeko>  (7) 
{"is_sidechain": [false], "free_energy": -5.375, "intermolecular_energy": -5.775, "internal_energy": 0.034}

$$$$
5c28_ligand
     RDKit          3D

 22 23  0  0  0  0  0  0  0  0999 V2000
    3.6240   13.9770   40.1300 C   0  0  0  0  0  0  0  0  0  0  0  0
    4.0830   12.8270   40.9680 C   0  0  0  0  0  0  0  0  0  0  0  0
    4.6740   11.6860   40.4640 C   0  0  0  0  0  0  0  0  0  0  0  0
    4.8970   11.5120   39.0950 N   0  0  0  0  0  0  0  0  0  0  0  0
    5.0730   10.6750   41.2470 N   0  0  0  0  0  0  0  0  0  0  0  0
    4.8950   10.7680   42.5770 C   0  0  0  0  0  0  0  0  0  0  0  0
    5.3460    9.6200   43.4450 C   0  0  0  0  0  0  0  0  0  0  0  0
    5.7400    9.8630   44.8850 C   0  0  0  0  0  0  0  0  0  0  0  0
    6.7930    9.5170   43.8770 C   0  0  0  0  0  0  0  0  0  0  0  0
    4.3260   11.8290   43.1600 N   0  0  0  0  0  0  0  0  0  0  0  0
    3.9420   12.8180   42.3430 C   0  0  0  0  0  0  0  0  0  0  0  0
    3.2270   14.1340   43.2010 Cl  0  0  0  0  0  0  0  0  0  0  0  0
    3.2960   14.7989   40.7834 H   0  0  0  0  0  0  0  0  0  0  0  0
    4.4533   14.3220   39.4950 H   0  0  0  0  0  0  0  0  0  0  0  0
    2.7850   13.6562   39.4950 H   0  0  0  0  0  0  0  0  0  0  0  0
    4.4870   12.2750   38.5670 H   0  0  0  0  0  0  0  0  0  0  0  0
    4.4870   10.6390   38.7750 H   0  0  0  0  0  0  0  0  0  0  0  0
    4.6340    8.9574   42.9313 H   0  0  0  0  0  0  0  0  0  0  0  0
    5.6930   10.8794   45.3030 H   0  0  0  0  0  0  0  0  0  0  0  0
    5.4286    9.4481   45.8550 H   0  0  0  0  0  0  0  0  0  0  0  0
    7.5176   10.2798   43.5559 H   0  0  0  0  0  0  0  0  0  0  0  0
    7.5720    8.7440   43.8026 H   0  0  0  0  0  0  0  0  0  0  0  0
  1  2  1  0
  2  3  2  0
  3  4  1  0
  3  5  1  0
  5  6  2  0
  6  7  1  0
  7  8  1  0
  8  9  1  0
  6 10  1  0
 10 11  2  0
 11 12  1  0
 11  2  1  0
  9  7  1  0
  1 13  1  0
  1 14  1  0
  1 15  1  0
  4 16  1  0
  4 17  1  0
  7 18  1  0
  8 19  1  0
  8 20  1  0
  9 21  1  0
  9 22  1  0
M  END
>  <meeko>  (8) 
{"is_sidechain": [false], "free_energy": -5.154, "intermolecular_energy": -5.539, "internal_energy": 0.038}

$$$$
5c28_ligand
     RDKit          3D

 22 23  0  0  0  0  0  0  0  0999 V2000
    7.7660    5.6430   42.8970 C   0  0  0  0  0  0  0  0  0  0  0  0
    7.3560    7.0750   42.7710 C   0  0  0  0  0  0  0  0  0  0  0  0
    7.3480    7.9750   43.8180 C   0  0  0  0  0  0  0  0  0  0  0  0
    7.7320    7.6080   45.1120 N   0  0  0  0  0  0  0  0  0  0  0  0
    6.9740    9.2520   43.6680 N   0  0  0  0  0  0  0  0  0  0  0  0
    6.5920    9.6830   42.4520 C   0  0  0  0  0  0  0  0  0  0  0  0
    6.1710   11.1230   42.2990 C   0  0  0  0  0  0  0  0  0  0  0  0
    5.3630   11.8000   43.3840 C   0  0  0  0  0  0  0  0  0  0  0  0
    4.7150   11.4690   42.0740 C   0  0  0  0  0  0  0  0  0  0  0  0
    6.5600    8.8870   41.3770 N   0  0  0  0  0  0  0  0  0  0  0  0
    6.9420    7.6170   41.5700 C   0  0  0  0  0  0  0  0  0  0  0  0
    6.8650    6.6850   40.1200 Cl  0  0  0  0  0  0  0  0  0  0  0  0
    7.8425    5.3758   43.9613 H   0  0  0  0  0  0  0  0  0  0  0  0
    7.0151    5.0025   42.4112 H   0  0  0  0  0  0  0  0  0  0  0  0
    8.7420    5.4969   42.4112 H   0  0  0  0  0  0  0  0  0  0  0  0
    8.4840    6.9280   45.0810 H   0  0  0  0  0  0  0  0  0  0  0  0
    6.9480    7.2030   45.6140 H   0  0  0  0  0  0  0  0  0  0  0  0
    7.1158   11.3394   41.7789 H   0  0  0  0  0  0  0  0  0  0  0  0
    5.0850   11.2423   44.2905 H   0  0  0  0  0  0  0  0  0  0  0  0
    5.4807   12.7158   43.9819 H   0  0  0  0  0  0  0  0  0  0  0  0
    3.9623   10.6687   42.0204 H   0  0  0  0  0  0  0  0  0  0  0  0
    4.1617   12.0418   41.3152 H   0  0  0  0  0  0  0  0  0  0  0  0
  1  2  1  0
  2  3  2  0
  3  4  1  0
  3  5  1  0
  5  6  2  0
  6  7  1  0
  7  8  1  0
  8  9  1  0
  6 10  1  0
 10 11  2  0
 11 12  1  0
 11  2  1  0
  9  7  1  0
  1 13  1  0
  1 14  1  0
  1 15  1  0
  4 16  1  0
  4 17  1  0
  7 18  1  0
  8 19  1  0
  8 20  1  0
  9 21  1  0
  9 22  1  0
M  END
>  <meeko>  (9) 
{"is_sidechain": [false], "free_energy": -5.09, "intermolecular_energy": -5.51, "internal_energy": 0.079}

$$$$
