1qkt_ligand
     RDKit          3D

 44 47  0  0  0  0  0  0  0  0999 V2000
   -4.3340   49.7140  163.2990 C   0  0  0  0  0  0  0  0  0  0  0  0
   -4.5270   50.3970  164.6760 C   0  0  2  0  0  0  0  0  0  0  0  0
   -4.1330   51.8750  164.5660 C   0  0  0  0  0  0  0  0  0  0  0  0
   -2.6130   52.0500  164.3750 C   0  0  0  0  0  0  0  0  0  0  0  0
   -1.7630   51.2950  165.4320 C   0  0  2  0  0  0  0  0  0  0  0  0
   -0.2510   51.4030  165.2430 C   0  0  0  0  0  0  0  0  0  0  0  0
    0.3330   52.5650  164.7080 C   0  0  0  0  0  0  0  0  0  0  0  0
    1.7190   52.6840  164.5740 C   0  0  0  0  0  0  0  0  0  0  0  0
    2.5390   51.6480  164.9850 C   0  0  0  0  0  0  0  0  0  0  0  0
    3.8850   51.8020  164.8340 O   0  0  0  0  0  0  0  0  0  0  0  0
    1.9970   50.4950  165.5380 C   0  0  0  0  0  0  0  0  0  0  0  0
    0.6040   50.3680  165.6860 C   0  0  0  0  0  0  0  0  0  0  0  0
    0.0740   49.0820  166.2750 C   0  0  0  0  0  0  0  0  0  0  0  0
   -1.3990   49.1390  166.6710 C   0  0  0  0  0  0  0  0  0  0  0  0
   -2.2100   49.8070  165.5590 C   0  0  1  0  0  0  0  0  0  0  0  0
   -3.7150   49.7690  165.8270 C   0  0  2  0  0  0  0  0  0  0  0  0
   -4.4010   48.4250  166.0540 C   0  0  0  0  0  0  0  0  0  0  0  0
   -5.8890   48.7140  165.7830 C   0  0  0  0  0  0  0  0  0  0  0  0
   -5.9500   50.1460  165.2140 C   0  0  2  0  0  0  0  0  0  0  0  0
   -6.9710   50.2980  164.2470 O   0  0  0  0  0  0  0  0  0  0  0  0
   -4.0376   48.6652  163.4482 H   0  0  0  0  0  0  0  0  0  0  0  0
   -5.2780   49.7517  162.7355 H   0  0  0  0  0  0  0  0  0  0  0  0
   -3.5494   50.2401  162.7355 H   0  0  0  0  0  0  0  0  0  0  0  0
   -4.6535   52.3190  163.7046 H   0  0  0  0  0  0  0  0  0  0  0  0
   -4.4197   52.3758  165.5025 H   0  0  0  0  0  0  0  0  0  0  0  0
   -2.3422   51.6735  163.3775 H   0  0  0  0  0  0  0  0  0  0  0  0
   -2.3945   53.1218  164.4910 H   0  0  0  0  0  0  0  0  0  0  0  0
   -1.9667   51.8157  166.3793 H   0  0  0  0  0  0  0  0  0  0  0  0
   -0.3133   53.3960  164.3889 H   0  0  0  0  0  0  0  0  0  0  0  0
    2.1561   53.5971  164.1437 H   0  0  0  0  0  0  0  0  0  0  0  0
    4.2410   52.2130  165.6380 H   0  0  0  0  0  0  0  0  0  0  0  0
    2.6593   49.6784  165.8613 H   0  0  0  0  0  0  0  0  0  0  0  0
    0.2008   48.2827  165.5300 H   0  0  0  0  0  0  0  0  0  0  0  0
    0.6438   48.8969  167.1975 H   0  0  0  0  0  0  0  0  0  0  0  0
   -1.7734   48.1173  166.8325 H   0  0  0  0  0  0  0  0  0  0  0  0
   -1.5034   49.7232  167.5972 H   0  0  0  0  0  0  0  0  0  0  0  0
   -2.0206   49.2490  164.6302 H   0  0  0  0  0  0  0  0  0  0  0  0
   -3.7250   50.3213  166.7782 H   0  0  0  0  0  0  0  0  0  0  0  0
   -4.0166   47.6672  165.3555 H   0  0  0  0  0  0  0  0  0  0  0  0
   -4.2250   48.0257  167.0637 H   0  0  0  0  0  0  0  0  0  0  0  0
   -6.2906   47.9958  165.0530 H   0  0  0  0  0  0  0  0  0  0  0  0
   -6.4900   48.6199  166.6995 H   0  0  0  0  0  0  0  0  0  0  0  0
   -6.2242   50.8962  165.9703 H   0  0  0  0  0  0  0  0  0  0  0  0
   -6.8330   49.6420  163.5440 H   0  0  0  0  0  0  0  0  0  0  0  0
  2  1  1  6
  2  3  1  0
  3  4  1  0
  4  5  1  0
  5  6  1  0
  6  7  2  0
  7  8  1  0
  8  9  2  0
  9 10  1  0
  9 11  1  0
 11 12  2  0
 12 13  1  0
 13 14  1  0
 14 15  1  0
 15 16  1  0
 16 17  1  0
 17 18  1  0
 18 19  1  0
 19 20  1  0
 16  2  1  0
 19  2  1  0
 15  5  1  0
 12  6  1  0
  1 21  1  0
  1 22  1  0
  1 23  1  0
  3 24  1  0
  3 25  1  0
  4 26  1  0
  4 27  1  0
  5 28  1  1
  7 29  1  0
  8 30  1  0
 10 31  1  0
 11 32  1  0
 13 33  1  0
 13 34  1  0
 14 35  1  0
 14 36  1  0
 15 37  1  6
 16 38  1  1
 17 39  1  0
 17 40  1  0
 18 41  1  0
 18 42  1  0
 19 43  1  1
 20 44  1  0
M  END
>  <meeko>  (1) 
{"is_sidechain": [false], "free_energy": -10.2, "intermolecular_energy": -10.796, "internal_energy": 0.0}

$$$$
1qkt_ligand
     RDKit          3D

 44 47  0  0  0  0  0  0  0  0999 V2000
   -4.1800   51.7920  162.2660 C   0  0  0  0  0  0  0  0  0  0  0  0
   -4.4640   52.0780  163.7620 C   0  0  2  0  0  0  0  0  0  0  0  0
   -3.7480   53.3700  164.1750 C   0  0  0  0  0  0  0  0  0  0  0  0
   -2.2180   53.1910  164.2090 C   0  0  0  0  0  0  0  0  0  0  0  0
   -1.7530   51.9710  165.0490 C   0  0  2  0  0  0  0  0  0  0  0  0
   -0.2440   51.7310  165.0620 C   0  0  0  0  0  0  0  0  0  0  0  0
    0.6620   52.8040  164.9930 C   0  0  0  0  0  0  0  0  0  0  0  0
    2.0420   52.5920  165.0490 C   0  0  0  0  0  0  0  0  0  0  0  0
    2.5330   51.3060  165.1870 C   0  0  0  0  0  0  0  0  0  0  0  0
    3.8860   51.1400  165.2330 O   0  0  0  0  0  0  0  0  0  0  0  0
    1.6660   50.2250  165.2810 C   0  0  0  0  0  0  0  0  0  0  0  0
    0.2740   50.4270  165.2350 C   0  0  0  0  0  0  0  0  0  0  0  0
   -0.6170   49.2110  165.3210 C   0  0  0  0  0  0  0  0  0  0  0  0
   -2.0890   49.5330  165.5590 C   0  0  0  0  0  0  0  0  0  0  0  0
   -2.5250   50.6790  164.6440 C   0  0  1  0  0  0  0  0  0  0  0  0
   -4.0260   50.9580  164.7280 C   0  0  2  0  0  0  0  0  0  0  0  0
   -5.0140   49.8320  164.4390 C   0  0  0  0  0  0  0  0  0  0  0  0
   -6.3320   50.5630  164.1230 C   0  0  0  0  0  0  0  0  0  0  0  0
   -5.9810   52.0630  164.0410 C   0  0  2  0  0  0  0  0  0  0  0  0
   -6.7560   52.7450  163.0740 O   0  0  0  0  0  0  0  0  0  0  0  0
   -3.4072   51.0138  162.1818 H   0  0  0  0  0  0  0  0  0  0  0  0
   -5.1029   51.4467  161.7771 H   0  0  0  0  0  0  0  0  0  0  0  0
   -3.8283   52.7124  161.7771 H   0  0  0  0  0  0  0  0  0  0  0  0
   -3.9978   54.1617  163.4534 H   0  0  0  0  0  0  0  0  0  0  0  0
   -4.0833   53.6378  165.1879 H   0  0  0  0  0  0  0  0  0  0  0  0
   -1.8604   53.0593  163.1771 H   0  0  0  0  0  0  0  0  0  0  0  0
   -1.7989   54.0893  164.6859 H   0  0  0  0  0  0  0  0  0  0  0  0
   -2.0055   52.2332  166.0870 H   0  0  0  0  0  0  0  0  0  0  0  0
    0.2772   53.8296  164.8931 H   0  0  0  0  0  0  0  0  0  0  0  0
    2.7349   53.4438  164.9836 H   0  0  0  0  0  0  0  0  0  0  0  0
    4.1230   50.7830  166.1040 H   0  0  0  0  0  0  0  0  0  0  0  0
    2.0688   49.2074  165.3918 H   0  0  0  0  0  0  0  0  0  0  0  0
   -0.5336   48.6541  164.3760 H   0  0  0  0  0  0  0  0  0  0  0  0
   -0.2754   48.6282  166.1891 H   0  0  0  0  0  0  0  0  0  0  0  0
   -2.6970   48.6421  165.3430 H   0  0  0  0  0  0  0  0  0  0  0  0
   -2.2294   49.8331  166.6079 H   0  0  0  0  0  0  0  0  0  0  0  0
   -2.2968   50.3818  163.6098 H   0  0  0  0  0  0  0  0  0  0  0  0
   -4.0877   51.1974  165.7999 H   0  0  0  0  0  0  0  0  0  0  0  0
   -4.6830   49.2332  163.5777 H   0  0  0  0  0  0  0  0  0  0  0  0
   -5.1114   49.1289  165.2793 H   0  0  0  0  0  0  0  0  0  0  0  0
   -6.7415   50.2139  163.1636 H   0  0  0  0  0  0  0  0  0  0  0  0
   -7.0929   50.3701  164.8936 H   0  0  0  0  0  0  0  0  0  0  0  0
   -6.2180   52.6103  164.9653 H   0  0  0  0  0  0  0  0  0  0  0  0
   -7.6960   52.5760  163.2530 H   0  0  0  0  0  0  0  0  0  0  0  0
  2  1  1  6
  2  3  1  0
  3  4  1  0
  4  5  1  0
  5  6  1  0
  6  7  2  0
  7  8  1  0
  8  9  2  0
  9 10  1  0
  9 11  1  0
 11 12  2  0
 12 13  1  0
 13 14  1  0
 14 15  1  0
 15 16  1  0
 16 17  1  0
 17 18  1  0
 18 19  1  0
 19 20  1  0
 16  2  1  0
 19  2  1  0
 15  5  1  0
 12  6  1  0
  1 21  1  0
  1 22  1  0
  1 23  1  0
  3 24  1  0
  3 25  1  0
  4 26  1  0
  4 27  1  0
  5 28  1  1
  7 29  1  0
  8 30  1  0
 10 31  1  0
 11 32  1  0
 13 33  1  0
 13 34  1  0
 14 35  1  0
 14 36  1  0
 15 37  1  6
 16 38  1  1
 17 39  1  0
 17 40  1  0
 18 41  1  0
 18 42  1  0
 19 43  1  1
 20 44  1  0
M  END
>  <meeko>  (2) 
{"is_sidechain": [false], "free_energy": -9.577, "intermolecular_energy": -10.137, "internal_energy": 0.0}

$$$$
1qkt_ligand
     RDKit          3D

 44 47  0  0  0  0  0  0  0  0999 V2000
   -4.8140   50.5620  166.0250 C   0  0  0  0  0  0  0  0  0  0  0  0
   -4.5920   50.4860  164.4940 C   0  0  2  0  0  0  0  0  0  0  0  0
   -3.7920   49.2200  164.1610 C   0  0  0  0  0  0  0  0  0  0  0  0
   -2.3350   49.3180  164.6530 C   0  0  0  0  0  0  0  0  0  0  0  0
   -1.6070   50.6080  164.1880 C   0  0  2  0  0  0  0  0  0  0  0  0
   -0.1760   50.7640  164.7000 C   0  0  0  0  0  0  0  0  0  0  0  0
    0.6460   49.6420  164.9100 C   0  0  0  0  0  0  0  0  0  0  0  0
    1.9690   49.7830  165.3370 C   0  0  0  0  0  0  0  0  0  0  0  0
    2.4910   51.0470  165.5460 C   0  0  0  0  0  0  0  0  0  0  0  0
    3.7850   51.1420  165.9670 O   0  0  0  0  0  0  0  0  0  0  0  0
    1.7140   52.1770  165.3270 C   0  0  0  0  0  0  0  0  0  0  0  0
    0.3830   52.0480  164.8890 C   0  0  0  0  0  0  0  0  0  0  0  0
   -0.4170   53.3130  164.6870 C   0  0  0  0  0  0  0  0  0  0  0  0
   -1.7320   53.1060  163.9410 C   0  0  0  0  0  0  0  0  0  0  0  0
   -2.4570   51.8780  164.4960 C   0  0  1  0  0  0  0  0  0  0  0  0
   -3.8480   51.6950  163.8890 C   0  0  2  0  0  0  0  0  0  0  0  0
   -4.8650   52.8280  163.9950 C   0  0  0  0  0  0  0  0  0  0  0  0
   -6.2210   52.1360  163.7600 C   0  0  0  0  0  0  0  0  0  0  0  0
   -5.9310   50.6210  163.7420 C   0  0  2  0  0  0  0  0  0  0  0  0
   -6.9880   49.8640  164.2990 O   0  0  0  0  0  0  0  0  0  0  0  0
   -3.8967   50.2480  166.5445 H   0  0  0  0  0  0  0  0  0  0  0  0
   -5.0606   51.5957  166.3089 H   0  0  0  0  0  0  0  0  0  0  0  0
   -5.6424   49.8963  166.3089 H   0  0  0  0  0  0  0  0  0  0  0  0
   -4.2737   48.3571  164.6440 H   0  0  0  0  0  0  0  0  0  0  0  0
   -3.7765   49.1031  163.0673 H   0  0  0  0  0  0  0  0  0  0  0  0
   -2.3373   49.2973  165.7528 H   0  0  0  0  0  0  0  0  0  0  0  0
   -1.7903   48.4663  164.2194 H   0  0  0  0  0  0  0  0  0  0  0  0
   -1.5055   50.4956  163.0985 H   0  0  0  0  0  0  0  0  0  0  0  0
    0.2398   48.6349  164.7348 H   0  0  0  0  0  0  0  0  0  0  0  0
    2.5927   48.8929  165.5062 H   0  0  0  0  0  0  0  0  0  0  0  0
    4.2300   50.2990  165.7850 H   0  0  0  0  0  0  0  0  0  0  0  0
    2.1406   53.1766  165.4965 H   0  0  0  0  0  0  0  0  0  0  0  0
   -0.6439   53.7398  165.6751 H   0  0  0  0  0  0  0  0  0  0  0  0
    0.1979   53.9815  164.0665 H   0  0  0  0  0  0  0  0  0  0  0  0
   -2.3681   53.9942  164.0694 H   0  0  0  0  0  0  0  0  0  0  0  0
   -1.5220   52.9508  162.8724 H   0  0  0  0  0  0  0  0  0  0  0  0
   -2.5804   52.0272  165.5788 H   0  0  0  0  0  0  0  0  0  0  0  0
   -3.5547   51.5983  162.8333 H   0  0  0  0  0  0  0  0  0  0  0  0
   -4.8306   53.2921  164.9917 H   0  0  0  0  0  0  0  0  0  0  0  0
   -4.6729   53.6376  163.2755 H   0  0  0  0  0  0  0  0  0  0  0  0
   -6.9206   52.3811  164.5727 H   0  0  0  0  0  0  0  0  0  0  0  0
   -6.6836   52.4677  162.8187 H   0  0  0  0  0  0  0  0  0  0  0  0
   -5.8549   50.2115  162.7239 H   0  0  0  0  0  0  0  0  0  0  0  0
   -6.7880   48.9200  164.1860 H   0  0  0  0  0  0  0  0  0  0  0  0
  2  1  1  1
  2  3  1  0
  3  4  1  0
  4  5  1  0
  5  6  1  0
  6  7  2  0
  7  8  1  0
  8  9  2  0
  9 10  1  0
  9 11  1  0
 11 12  2  0
 12 13  1  0
 13 14  1  0
 14 15  1  0
 15 16  1  0
 16 17  1  0
 17 18  1  0
 18 19  1  0
 19 20  1  0
 16  2  1  0
 19  2  1  0
 15  5  1  0
 12  6  1  0
  1 21  1  0
  1 22  1  0
  1 23  1  0
  3 24  1  0
  3 25  1  0
  4 26  1  0
  4 27  1  0
  5 28  1  6
  7 29  1  0
  8 30  1  0
 10 31  1  0
 11 32  1  0
 13 33  1  0
 13 34  1  0
 14 35  1  0
 14 36  1  0
 15 37  1  1
 16 38  1  6
 17 39  1  0
 17 40  1  0
 18 41  1  0
 18 42  1  0
 19 43  1  6
 20 44  1  0
M  END
>  <meeko>  (3) 
{"is_sidechain": [false], "free_energy": -9.102, "intermolecular_energy": -9.634, "internal_energy": 0.0}

$$$$
1qkt_ligand
     RDKit          3D

 44 47  0  0  0  0  0  0  0  0999 V2000
    0.3330   51.8320  165.6770 C   0  0  0  0  0  0  0  0  0  0  0  0
    0.0410   50.5720  164.8230 C   0  0  2  0  0  0  0  0  0  0  0  0
    0.0880   50.9470  163.3370 C   0  0  0  0  0  0  0  0  0  0  0  0
   -1.1010   51.8410  162.9340 C   0  0  0  0  0  0  0  0  0  0  0  0
   -2.4820   51.2650  163.3490 C   0  0  2  0  0  0  0  0  0  0  0  0
   -3.6800   52.1500  163.0120 C   0  0  0  0  0  0  0  0  0  0  0  0
   -3.6800   52.9680  161.8680 C   0  0  0  0  0  0  0  0  0  0  0  0
   -4.7910   53.7460  161.5340 C   0  0  0  0  0  0  0  0  0  0  0  0
   -5.9220   53.7060  162.3310 C   0  0  0  0  0  0  0  0  0  0  0  0
   -6.9840   54.4830  161.9730 O   0  0  0  0  0  0  0  0  0  0  0  0
   -5.9640   52.8930  163.4550 C   0  0  0  0  0  0  0  0  0  0  0  0
   -4.8540   52.0980  163.7980 C   0  0  0  0  0  0  0  0  0  0  0  0
   -4.9540   51.2500  165.0430 C   0  0  0  0  0  0  0  0  0  0  0  0
   -3.8440   50.2120  165.1800 C   0  0  0  0  0  0  0  0  0  0  0  0
   -2.4920   50.8500  164.8510 C   0  0  1  0  0  0  0  0  0  0  0  0
   -1.3190   49.9030  165.1060 C   0  0  2  0  0  0  0  0  0  0  0  0
   -1.1350   49.2960  166.4940 C   0  0  0  0  0  0  0  0  0  0  0  0
    0.3390   48.8510  166.5160 C   0  0  0  0  0  0  0  0  0  0  0  0
    0.9740   49.4130  165.2270 C   0  0  2  0  0  0  0  0  0  0  0  0
    2.3240   49.7920  165.4140 O   0  0  0  0  0  0  0  0  0  0  0  0
    0.2731   51.5734  166.7445 H   0  0  0  0  0  0  0  0  0  0  0  0
    1.3415   52.2057  165.4463 H   0  0  0  0  0  0  0  0  0  0  0  0
   -0.4084   52.6112  165.4463 H   0  0  0  0  0  0  0  0  0  0  0  0
    1.0244   51.4880  163.1358 H   0  0  0  0  0  0  0  0  0  0  0  0
    0.0329   50.0193  162.7485 H   0  0  0  0  0  0  0  0  0  0  0  0
   -0.9757   52.8230  163.4136 H   0  0  0  0  0  0  0  0  0  0  0  0
   -1.0965   51.9073  161.8360 H   0  0  0  0  0  0  0  0  0  0  0  0
   -2.6110   50.3682  162.7252 H   0  0  0  0  0  0  0  0  0  0  0  0
   -2.7885   52.9957  161.2242 H   0  0  0  0  0  0  0  0  0  0  0  0
   -4.7672   54.3880  160.6411 H   0  0  0  0  0  0  0  0  0  0  0  0
   -7.2540   55.0090  162.7420 H   0  0  0  0  0  0  0  0  0  0  0  0
   -6.8685   52.8697  164.0806 H   0  0  0  0  0  0  0  0  0  0  0  0
   -4.9150   51.9152  165.9182 H   0  0  0  0  0  0  0  0  0  0  0  0
   -5.9010   50.6947  164.9736 H   0  0  0  0  0  0  0  0  0  0  0  0
   -3.8262   49.8307  166.2117 H   0  0  0  0  0  0  0  0  0  0  0  0
   -4.0338   49.3839  164.4813 H   0  0  0  0  0  0  0  0  0  0  0  0
   -2.3679   51.7218  165.5102 H   0  0  0  0  0  0  0  0  0  0  0  0
   -1.6090   49.0957  164.4173 H   0  0  0  0  0  0  0  0  0  0  0  0
   -1.3288   50.0444  167.2765 H   0  0  0  0  0  0  0  0  0  0  0  0
   -1.8300   48.4656  166.6875 H   0  0  0  0  0  0  0  0  0  0  0  0
    0.8479   49.2590  167.4017 H   0  0  0  0  0  0  0  0  0  0  0  0
    0.4278   47.7556  166.5636 H   0  0  0  0  0  0  0  0  0  0  0  0
    1.0451   48.6659  164.4228 H   0  0  0  0  0  0  0  0  0  0  0  0
    2.6030   50.3300  164.6550 H   0  0  0  0  0  0  0  0  0  0  0  0
  2  1  1  1
  2  3  1  0
  3  4  1  0
  4  5  1  0
  5  6  1  0
  6  7  2  0
  7  8  1  0
  8  9  2  0
  9 10  1  0
  9 11  1  0
 11 12  2  0
 12 13  1  0
 13 14  1  0
 14 15  1  0
 15 16  1  0
 16 17  1  0
 17 18  1  0
 18 19  1  0
 19 20  1  0
 16  2  1  0
 19  2  1  0
 15  5  1  0
 12  6  1  0
  1 21  1  0
  1 22  1  0
  1 23  1  0
  3 24  1  0
  3 25  1  0
  4 26  1  0
  4 27  1  0
  5 28  1  6
  7 29  1  0
  8 30  1  0
 10 31  1  0
 11 32  1  0
 13 33  1  0
 13 34  1  0
 14 35  1  0
 14 36  1  0
 15 37  1  1
 16 38  1  6
 17 39  1  0
 17 40  1  0
 18 41  1  0
 18 42  1  0
 19 43  1  6
 20 44  1  0
M  END
>  <meeko>  (4) 
{"is_sidechain": [false], "free_energy": -8.307, "intermolecular_energy": -8.793, "internal_energy": 0.0}

$$$$
1qkt_ligand
     RDKit          3D

 44 47  0  0  0  0  0  0  0  0999 V2000
    0.0950   53.3800  165.8780 C   0  0  0  0  0  0  0  0  0  0  0  0
    0.4920   52.4470  164.7060 C   0  0  2  0  0  0  0  0  0  0  0  0
   -0.4900   52.6480  163.5460 C   0  0  0  0  0  0  0  0  0  0  0  0
   -1.8910   52.1000  163.8790 C   0  0  0  0  0  0  0  0  0  0  0  0
   -1.8800   50.6330  164.3880 C   0  0  2  0  0  0  0  0  0  0  0  0
   -3.2460   50.0730  164.7790 C   0  0  0  0  0  0  0  0  0  0  0  0
   -4.4150   50.4760  164.1080 C   0  0  0  0  0  0  0  0  0  0  0  0
   -5.6610   49.9340  164.4340 C   0  0  0  0  0  0  0  0  0  0  0  0
   -5.7520   48.9720  165.4240 C   0  0  0  0  0  0  0  0  0  0  0  0
   -6.9870   48.4710  165.7150 O   0  0  0  0  0  0  0  0  0  0  0  0
   -4.6160   48.5350  166.0910 C   0  0  0  0  0  0  0  0  0  0  0  0
   -3.3540   49.0670  165.7660 C   0  0  0  0  0  0  0  0  0  0  0  0
   -2.1590   48.5660  166.5400 C   0  0  0  0  0  0  0  0  0  0  0  0
   -0.8140   48.9660  165.9380 C   0  0  0  0  0  0  0  0  0  0  0  0
   -0.8430   50.4420  165.5370 C   0  0  1  0  0  0  0  0  0  0  0  0
    0.5180   50.9450  165.0570 C   0  0  2  0  0  0  0  0  0  0  0  0
    1.7300   50.8150  165.9750 C   0  0  0  0  0  0  0  0  0  0  0  0
    2.7380   51.8340  165.4110 C   0  0  0  0  0  0  0  0  0  0  0  0
    1.9780   52.6380  164.3370 C   0  0  2  0  0  0  0  0  0  0  0  0
    2.3920   53.9890  164.2820 O   0  0  0  0  0  0  0  0  0  0  0  0
    0.3082   52.8791  166.8338 H   0  0  0  0  0  0  0  0  0  0  0  0
    0.6740   54.3133  165.8160 H   0  0  0  0  0  0  0  0  0  0  0  0
   -0.9789   53.6099  165.8160 H   0  0  0  0  0  0  0  0  0  0  0  0
   -0.5707   53.7237  163.3305 H   0  0  0  0  0  0  0  0  0  0  0  0
   -0.1063   52.0971  162.6746 H   0  0  0  0  0  0  0  0  0  0  0  0
   -2.3366   52.7353  164.6587 H   0  0  0  0  0  0  0  0  0  0  0  0
   -2.4727   52.1131  162.9455 H   0  0  0  0  0  0  0  0  0  0  0  0
   -1.5703   50.0365  163.5172 H   0  0  0  0  0  0  0  0  0  0  0  0
   -4.3469   51.2319  163.3118 H   0  0  0  0  0  0  0  0  0  0  0  0
   -6.5653   50.2707  163.9059 H   0  0  0  0  0  0  0  0  0  0  0  0
   -7.0030   48.2170  166.6510 H   0  0  0  0  0  0  0  0  0  0  0  0
   -4.7022   47.7699  166.8767 H   0  0  0  0  0  0  0  0  0  0  0  0
   -2.2144   48.9708  167.5613 H   0  0  0  0  0  0  0  0  0  0  0  0
   -2.2032   47.4672  166.5156 H   0  0  0  0  0  0  0  0  0  0  0  0
   -0.0192   48.8053  166.6813 H   0  0  0  0  0  0  0  0  0  0  0  0
   -0.6184   48.3517  165.0467 H   0  0  0  0  0  0  0  0  0  0  0  0
   -1.1197   51.0227  166.4293 H   0  0  0  0  0  0  0  0  0  0  0  0
    0.6572   50.2568  164.2103 H   0  0  0  0  0  0  0  0  0  0  0  0
    1.4626   51.0633  167.0127 H   0  0  0  0  0  0  0  0  0  0  0  0
    2.1329   49.7918  166.0007 H   0  0  0  0  0  0  0  0  0  0  0  0
    3.0918   52.5029  166.2094 H   0  0  0  0  0  0  0  0  0  0  0  0
    3.6214   51.3333  164.9879 H   0  0  0  0  0  0  0  0  0  0  0  0
    2.1801   52.2846  163.3151 H   0  0  0  0  0  0  0  0  0  0  0  0
    1.9630   54.4760  165.0050 H   0  0  0  0  0  0  0  0  0  0  0  0
  2  1  1  1
  2  3  1  0
  3  4  1  0
  4  5  1  0
  5  6  1  0
  6  7  2  0
  7  8  1  0
  8  9  2  0
  9 10  1  0
  9 11  1  0
 11 12  2  0
 12 13  1  0
 13 14  1  0
 14 15  1  0
 15 16  1  0
 16 17  1  0
 17 18  1  0
 18 19  1  0
 19 20  1  0
 16  2  1  0
 19  2  1  0
 15  5  1  0
 12  6  1  0
  1 21  1  0
  1 22  1  0
  1 23  1  0
  3 24  1  0
  3 25  1  0
  4 26  1  0
  4 27  1  0
  5 28  1  6
  7 29  1  0
  8 30  1  0
 10 31  1  0
 11 32  1  0
 13 33  1  0
 13 34  1  0
 14 35  1  0
 14 36  1  0
 15 37  1  1
 16 38  1  6
 17 39  1  0
 17 40  1  0
 18 41  1  0
 18 42  1  0
 19 43  1  6
 20 44  1  0
M  END
>  <meeko>  (5) 
{"is_sidechain": [false], "free_energy": -7.593, "intermolecular_energy": -8.037, "internal_energy": 0.0}

$$$$
1qkt_ligand
     RDKit          3D

 44 47  0  0  0  0  0  0  0  0999 V2000
   -4.2840   52.1950  161.7100 C   0  0  0  0  0  0  0  0  0  0  0  0
   -4.4950   53.0300  162.9980 C   0  0  2  0  0  0  0  0  0  0  0  0
   -3.1890   53.7540  163.3490 C   0  0  0  0  0  0  0  0  0  0  0  0
   -2.1000   52.7730  163.8250 C   0  0  0  0  0  0  0  0  0  0  0  0
   -2.5690   51.8280  164.9630 C   0  0  2  0  0  0  0  0  0  0  0  0
   -1.5320   50.8050  165.4240 C   0  0  0  0  0  0  0  0  0  0  0  0
   -0.1580   51.1070  165.4100 C   0  0  0  0  0  0  0  0  0  0  0  0
    0.7900   50.1910  165.8710 C   0  0  0  0  0  0  0  0  0  0  0  0
    0.3770   48.9660  166.3660 C   0  0  0  0  0  0  0  0  0  0  0  0
    1.3330   48.0980  166.8030 O   0  0  0  0  0  0  0  0  0  0  0  0
   -0.9730   48.6440  166.4150 C   0  0  0  0  0  0  0  0  0  0  0  0
   -1.9380   49.5620  165.9610 C   0  0  0  0  0  0  0  0  0  0  0  0
   -3.3880   49.1460  166.0220 C   0  0  0  0  0  0  0  0  0  0  0  0
   -4.3740   50.2890  165.7930 C   0  0  0  0  0  0  0  0  0  0  0  0
   -3.9200   51.1370  164.6040 C   0  0  1  0  0  0  0  0  0  0  0  0
   -4.9370   52.2150  164.2300 C   0  0  2  0  0  0  0  0  0  0  0  0
   -6.3690   51.8090  163.8930 C   0  0  0  0  0  0  0  0  0  0  0  0
   -6.9240   53.0120  163.1080 C   0  0  0  0  0  0  0  0  0  0  0  0
   -5.7250   53.9490  162.8560 C   0  0  2  0  0  0  0  0  0  0  0  0
   -5.8130   54.6130  161.6110 O   0  0  0  0  0  0  0  0  0  0  0  0
   -4.0229   51.1616  161.9817 H   0  0  0  0  0  0  0  0  0  0  0  0
   -5.2104   52.1953  161.1170 H   0  0  0  0  0  0  0  0  0  0  0  0
   -3.4689   52.6354  161.1170 H   0  0  0  0  0  0  0  0  0  0  0  0
   -2.8250   54.2841  162.4566 H   0  0  0  0  0  0  0  0  0  0  0  0
   -3.3978   54.4567  164.1691 H   0  0  0  0  0  0  0  0  0  0  0  0
   -1.7880   52.1575  162.9684 H   0  0  0  0  0  0  0  0  0  0  0  0
   -1.2747   53.3783  164.2281 H   0  0  0  0  0  0  0  0  0  0  0  0
   -2.7191   52.4880  165.8301 H   0  0  0  0  0  0  0  0  0  0  0  0
    0.1760   52.0832  165.0287 H   0  0  0  0  0  0  0  0  0  0  0  0
    1.8606   50.4419  165.8409 H   0  0  0  0  0  0  0  0  0  0  0  0
    1.4210   48.1960  167.7640 H   0  0  0  0  0  0  0  0  0  0  0  0
   -1.2892   47.6674  166.8103 H   0  0  0  0  0  0  0  0  0  0  0  0
   -3.5607   48.3809  165.2508 H   0  0  0  0  0  0  0  0  0  0  0  0
   -3.5680   48.7707  167.0402 H   0  0  0  0  0  0  0  0  0  0  0  0
   -5.3715   49.8743  165.5856 H   0  0  0  0  0  0  0  0  0  0  0  0
   -4.4136   50.9194  166.6936 H   0  0  0  0  0  0  0  0  0  0  0  0
   -3.8115   50.4646  163.7402 H   0  0  0  0  0  0  0  0  0  0  0  0
   -4.9539   52.7605  165.1851 H   0  0  0  0  0  0  0  0  0  0  0  0
   -6.3820   50.8993  163.2747 H   0  0  0  0  0  0  0  0  0  0  0  0
   -6.9646   51.5773  164.7883 H   0  0  0  0  0  0  0  0  0  0  0  0
   -7.3550   52.6783  162.1526 H   0  0  0  0  0  0  0  0  0  0  0  0
   -7.7222   53.5225  163.6668 H   0  0  0  0  0  0  0  0  0  0  0  0
   -5.6772   54.7855  163.5687 H   0  0  0  0  0  0  0  0  0  0  0  0
   -4.9910   54.4590  161.1170 H   0  0  0  0  0  0  0  0  0  0  0  0
  2  1  1  6
  2  3  1  0
  3  4  1  0
  4  5  1  0
  5  6  1  0
  6  7  2  0
  7  8  1  0
  8  9  2  0
  9 10  1  0
  9 11  1  0
 11 12  2  0
 12 13  1  0
 13 14  1  0
 14 15  1  0
 15 16  1  0
 16 17  1  0
 17 18  1  0
 18 19  1  0
 19 20  1  0
 16  2  1  0
 19  2  1  0
 15  5  1  0
 12  6  1  0
  1 21  1  0
  1 22  1  0
  1 23  1  0
  3 24  1  0
  3 25  1  0
  4 26  1  0
  4 27  1  0
  5 28  1  1
  7 29  1  0
  8 30  1  0
 10 31  1  0
 11 32  1  0
 13 33  1  0
 13 34  1  0
 14 35  1  0
 14 36  1  0
 15 37  1  6
 16 38  1  1
 17 39  1  0
 17 40  1  0
 18 41  1  0
 18 42  1  0
 19 43  1  1
 20 44  1  0
M  END
>  <meeko>  (6) 
{"is_sidechain": [false], "free_energy": -7.501, "intermolecular_energy": -7.939, "internal_energy": 0.0}

$$$$
1qkt_ligand
     RDKit          3D

 44 47  0  0  0  0  0  0  0  0999 V2000
   -3.1550   48.8640  165.9430 C   0  0  0  0  0  0  0  0  0  0  0  0
   -2.2940   50.0640  166.4100 C   0  0  2  0  0  0  0  0  0  0  0  0
   -3.2160   51.2290  166.7920 C   0  0  0  0  0  0  0  0  0  0  0  0
   -3.9070   51.8410  165.5580 C   0  0  0  0  0  0  0  0  0  0  0  0
   -2.9220   52.2240  164.4200 C   0  0  2  0  0  0  0  0  0  0  0  0
   -3.5770   52.7860  163.1590 C   0  0  0  0  0  0  0  0  0  0  0  0
   -4.7520   53.5550  163.2330 C   0  0  0  0  0  0  0  0  0  0  0  0
   -5.3300   54.1060  162.0860 C   0  0  0  0  0  0  0  0  0  0  0  0
   -4.7330   53.9080  160.8540 C   0  0  0  0  0  0  0  0  0  0  0  0
   -5.3300   54.4590  159.7590 O   0  0  0  0  0  0  0  0  0  0  0  0
   -3.5590   53.1720  160.7480 C   0  0  0  0  0  0  0  0  0  0  0  0
   -2.9640   52.6190  161.8970 C   0  0  0  0  0  0  0  0  0  0  0  0
   -1.7000   51.8130  161.7150 C   0  0  0  0  0  0  0  0  0  0  0  0
   -0.9660   51.5020  163.0160 C   0  0  0  0  0  0  0  0  0  0  0  0
   -1.9660   51.0410  164.0790 C   0  0  1  0  0  0  0  0  0  0  0  0
   -1.2820   50.5780  165.3650 C   0  0  2  0  0  0  0  0  0  0  0  0
   -0.2420   49.4630  165.3000 C   0  0  0  0  0  0  0  0  0  0  0  0
   -0.1650   48.9380  166.7460 C   0  0  0  0  0  0  0  0  0  0  0  0
   -1.3090   49.6310  167.5140 C   0  0  2  0  0  0  0  0  0  0  0  0
   -1.8770   48.7950  168.5030 O   0  0  0  0  0  0  0  0  0  0  0  0
   -3.5411   48.3259  166.8213 H   0  0  0  0  0  0  0  0  0  0  0  0
   -3.9974   49.2306  165.3380 H   0  0  0  0  0  0  0  0  0  0  0  0
   -2.5379   48.1834  165.3380 H   0  0  0  0  0  0  0  0  0  0  0  0
   -3.9865   50.8606  167.4853 H   0  0  0  0  0  0  0  0  0  0  0  0
   -2.6017   52.0108  167.2625 H   0  0  0  0  0  0  0  0  0  0  0  0
   -4.6265   51.1085  165.1633 H   0  0  0  0  0  0  0  0  0  0  0  0
   -4.3946   52.7699  165.8888 H   0  0  0  0  0  0  0  0  0  0  0  0
   -2.3333   53.0591  164.8275 H   0  0  0  0  0  0  0  0  0  0  0  0
   -5.2248   53.7260  164.2114 H   0  0  0  0  0  0  0  0  0  0  0  0
   -6.2560   54.6948  162.1626 H   0  0  0  0  0  0  0  0  0  0  0  0
   -4.8690   54.1430  158.9650 H   0  0  0  0  0  0  0  0  0  0  0  0
   -3.0934   53.0213  159.7629 H   0  0  0  0  0  0  0  0  0  0  0  0
   -1.9641   50.8609  161.2314 H   0  0  0  0  0  0  0  0  0  0  0  0
   -1.0189   52.4249  161.1053 H   0  0  0  0  0  0  0  0  0  0  0  0
   -0.2292   50.7049  162.8379 H   0  0  0  0  0  0  0  0  0  0  0  0
   -0.4534   52.4089  163.3691 H   0  0  0  0  0  0  0  0  0  0  0  0
   -2.5178   50.1841  163.6652 H   0  0  0  0  0  0  0  0  0  0  0  0
   -0.7629   51.5139  165.6192 H   0  0  0  0  0  0  0  0  0  0  0  0
   -0.5646   48.6675  164.6122 H   0  0  0  0  0  0  0  0  0  0  0  0
    0.7309   49.8138  164.9254 H   0  0  0  0  0  0  0  0  0  0  0  0
   -0.2998   47.8464  166.7635 H   0  0  0  0  0  0  0  0  0  0  0  0
    0.8131   49.1543  167.2006 H   0  0  0  0  0  0  0  0  0  0  0  0
   -0.9683   50.4969  168.1007 H   0  0  0  0  0  0  0  0  0  0  0  0
   -1.1970   48.1750  168.8140 H   0  0  0  0  0  0  0  0  0  0  0  0
  2  1  1  6
  2  3  1  0
  3  4  1  0
  4  5  1  0
  5  6  1  0
  6  7  2  0
  7  8  1  0
  8  9  2  0
  9 10  1  0
  9 11  1  0
 11 12  2  0
 12 13  1  0
 13 14  1  0
 14 15  1  0
 15 16  1  0
 16 17  1  0
 17 18  1  0
 18 19  1  0
 19 20  1  0
 16  2  1  0
 19  2  1  0
 15  5  1  0
 12  6  1  0
  1 21  1  0
  1 22  1  0
  1 23  1  0
  3 24  1  0
  3 25  1  0
  4 26  1  0
  4 27  1  0
  5 28  1  1
  7 29  1  0
  8 30  1  0
 10 31  1  0
 11 32  1  0
 13 33  1  0
 13 34  1  0
 14 35  1  0
 14 36  1  0
 15 37  1  6
 16 38  1  1
 17 39  1  0
 17 40  1  0
 18 41  1  0
 18 42  1  0
 19 43  1  1
 20 44  1  0
M  END
>  <meeko>  (7) 
{"is_sidechain": [false], "free_energy": -7.309, "intermolecular_energy": -7.736, "internal_energy": 0.0}

$$$$
1qkt_ligand
     RDKit          3D

 44 47  0  0  0  0  0  0  0  0999 V2000
   -4.5900   54.1580  164.4220 C   0  0  0  0  0  0  0  0  0  0  0  0
   -4.9610   53.0250  163.4320 C   0  0  2  0  0  0  0  0  0  0  0  0
   -5.4990   51.8230  164.2190 C   0  0  0  0  0  0  0  0  0  0  0  0
   -4.3900   51.1320  165.0370 C   0  0  0  0  0  0  0  0  0  0  0  0
   -3.1350   50.7680  164.1990 C   0  0  2  0  0  0  0  0  0  0  0  0
   -1.9930   50.1280  164.9870 C   0  0  0  0  0  0  0  0  0  0  0  0
   -2.2510   49.2960  166.0920 C   0  0  0  0  0  0  0  0  0  0  0  0
   -1.2120   48.6750  166.7890 C   0  0  0  0  0  0  0  0  0  0  0  0
    0.0970   48.8660  166.3820 C   0  0  0  0  0  0  0  0  0  0  0  0
    1.0830   48.2460  167.0910 O   0  0  0  0  0  0  0  0  0  0  0  0
    0.3860   49.6630  165.2820 C   0  0  0  0  0  0  0  0  0  0  0  0
   -0.6530   50.2870  164.5670 C   0  0  0  0  0  0  0  0  0  0  0  0
   -0.2750   51.1580  163.3930 C   0  0  0  0  0  0  0  0  0  0  0  0
   -1.4520   51.5520  162.5050 C   0  0  0  0  0  0  0  0  0  0  0  0
   -2.6330   51.9920  163.3730 C   0  0  1  0  0  0  0  0  0  0  0  0
   -3.7980   52.5360  162.5460 C   0  0  2  0  0  0  0  0  0  0  0  0
   -3.5590   53.7050  161.5950 C   0  0  0  0  0  0  0  0  0  0  0  0
   -4.9650   54.2810  161.3500 C   0  0  0  0  0  0  0  0  0  0  0  0
   -5.9040   53.5500  162.3310 C   0  0  2  0  0  0  0  0  0  0  0  0
   -6.9430   54.3850  162.8050 O   0  0  0  0  0  0  0  0  0  0  0  0
   -4.7084   53.7964  165.4541 H   0  0  0  0  0  0  0  0  0  0  0  0
   -3.5456   54.4614  164.2573 H   0  0  0  0  0  0  0  0  0  0  0  0
   -5.2527   55.0204  164.2573 H   0  0  0  0  0  0  0  0  0  0  0  0
   -6.2847   52.1701  164.9062 H   0  0  0  0  0  0  0  0  0  0  0  0
   -5.8979   51.0934  163.4988 H   0  0  0  0  0  0  0  0  0  0  0  0
   -4.0826   51.8091  165.8476 H   0  0  0  0  0  0  0  0  0  0  0  0
   -4.8093   50.1885  165.4165 H   0  0  0  0  0  0  0  0  0  0  0  0
   -3.4766   49.9815  163.5101 H   0  0  0  0  0  0  0  0  0  0  0  0
   -3.2902   49.1316  166.4129 H   0  0  0  0  0  0  0  0  0  0  0  0
   -1.4331   48.0371  167.6574 H   0  0  0  0  0  0  0  0  0  0  0  0
    1.3640   47.4560  166.6010 H   0  0  0  0  0  0  0  0  0  0  0  0
    1.4305   49.8069  164.9686 H   0  0  0  0  0  0  0  0  0  0  0  0
    0.1886   52.0774  163.7801 H   0  0  0  0  0  0  0  0  0  0  0  0
    0.4105   50.5673  162.7675 H   0  0  0  0  0  0  0  0  0  0  0  0
   -1.1522   52.3822  161.8486 H   0  0  0  0  0  0  0  0  0  0  0  0
   -1.7522   50.6869  161.8956 H   0  0  0  0  0  0  0  0  0  0  0  0
   -2.2799   52.8025  164.0275 H   0  0  0  0  0  0  0  0  0  0  0  0
   -4.0002   51.6406  161.9400 H   0  0  0  0  0  0  0  0  0  0  0  0
   -2.9036   54.4575  162.0578 H   0  0  0  0  0  0  0  0  0  0  0  0
   -3.0599   53.3976  160.6642 H   0  0  0  0  0  0  0  0  0  0  0  0
   -4.9740   55.3631  161.5477 H   0  0  0  0  0  0  0  0  0  0  0  0
   -5.2823   54.1361  160.3068 H   0  0  0  0  0  0  0  0  0  0  0  0
   -6.4582   52.7248  161.8600 H   0  0  0  0  0  0  0  0  0  0  0  0
   -6.5460   55.1720  163.2150 H   0  0  0  0  0  0  0  0  0  0  0  0
  2  1  1  1
  2  3  1  0
  3  4  1  0
  4  5  1  0
  5  6  1  0
  6  7  2  0
  7  8  1  0
  8  9  2  0
  9 10  1  0
  9 11  1  0
 11 12  2  0
 12 13  1  0
 13 14  1  0
 14 15  1  0
 15 16  1  0
 16 17  1  0
 17 18  1  0
 18 19  1  0
 19 20  1  0
 16  2  1  0
 19  2  1  0
 15  5  1  0
 12  6  1  0
  1 21  1  0
  1 22  1  0
  1 23  1  0
  3 24  1  0
  3 25  1  0
  4 26  1  0
  4 27  1  0
  5 28  1  6
  7 29  1  0
  8 30  1  0
 10 31  1  0
 11 32  1  0
 13 33  1  0
 13 34  1  0
 14 35  1  0
 14 36  1  0
 15 37  1  1
 16 38  1  6
 17 39  1  0
 17 40  1  0
 18 41  1  0
 18 42  1  0
 19 43  1  6
 20 44  1  0
M  END
>  <meeko>  (8) 
{"is_sidechain": [false], "free_energy": -7.209, "intermolecular_energy": -7.63, "internal_energy": 0.0}

$$$$
