3fv2_ligand
     RDKit          3D

 36 37  0  0  0  0  0  0  0  0999 V2000
   -6.1100   13.4590   17.4490 N   0  0  0  0  0  0  0  0  0  0  0  0
   -5.7030   14.6280   18.3210 C   0  0  1  0  0  0  0  0  0  0  0  0
   -6.0020   14.3390   19.8070 C   0  0  0  0  0  0  0  0  0  0  0  0
   -7.0990   15.2140   20.4320 C   0  0  2  0  0  0  0  0  0  0  0  0
   -6.5190   16.6660   20.5080 C   0  0  0  0  0  0  0  0  0  0  0  0
   -5.8120   16.8780   21.5500 O   0  0  0  0  0  0  0  0  0  0  0  0
   -6.8950   17.4760   19.6260 O   0  0  0  0  0  0  0  0  0  0  0  0
   -7.5800   14.7750   21.8100 C   0  0  0  0  0  0  0  0  0  0  0  0
   -9.0180   14.3460   21.6130 C   0  0  1  0  0  0  0  0  0  0  0  0
   -9.8260   14.7480   22.7180 O   0  0  0  0  0  0  0  0  0  0  0  0
  -11.2080   14.8570   22.3740 C   0  0  0  0  0  0  0  0  0  0  0  0
  -11.4680   15.9620   21.3330 C   0  0  1  0  0  0  0  0  0  0  0  0
  -11.8530   17.1790   21.9880 O   0  0  0  0  0  0  0  0  0  0  0  0
  -10.2480   16.2360   20.4340 C   0  0  1  0  0  0  0  0  0  0  0  0
   -9.4930   17.3160   21.0090 O   0  0  0  0  0  0  0  0  0  0  0  0
   -9.4310   14.9520   20.2790 C   0  0  1  0  0  0  0  0  0  0  0  0
   -8.2430   15.1510   19.5110 O   0  0  0  0  0  0  0  0  0  0  0  0
   -4.2060   14.9830   18.0450 C   0  0  0  0  0  0  0  0  0  0  0  0
   -3.5290   14.1860   17.3530 O   0  0  0  0  0  0  0  0  0  0  0  0
   -3.8980   16.1040   18.5730 O   0  0  0  0  0  0  0  0  0  0  0  0
   -6.7830   12.8170   17.9170 H   0  0  0  0  0  0  0  0  0  0  0  0
   -5.2830   12.8840   17.2550 H   0  0  0  0  0  0  0  0  0  0  0  0
   -6.4480   13.8740   16.5670 H   0  0  0  0  0  0  0  0  0  0  0  0
   -6.3024   15.5144   18.0661 H   0  0  0  0  0  0  0  0  0  0  0  0
   -6.3136   13.2876   19.8939 H   0  0  0  0  0  0  0  0  0  0  0  0
   -5.0769   14.5679   20.3563 H   0  0  0  0  0  0  0  0  0  0  0  0
   -6.9744   13.9345   22.1798 H   0  0  0  0  0  0  0  0  0  0  0  0
   -7.4908   15.5822   22.5519 H   0  0  0  0  0  0  0  0  0  0  0  0
   -9.1455   13.2539   21.5809 H   0  0  0  0  0  0  0  0  0  0  0  0
  -11.5461   13.8954   21.9605 H   0  0  0  0  0  0  0  0  0  0  0  0
  -11.7616   15.1196   23.2876 H   0  0  0  0  0  0  0  0  0  0  0  0
  -12.2820   15.5991   20.6882 H   0  0  0  0  0  0  0  0  0  0  0  0
  -11.5420   17.0490   22.9140 H   0  0  0  0  0  0  0  0  0  0  0  0
  -10.5541   16.5410   19.4224 H   0  0  0  0  0  0  0  0  0  0  0  0
  -10.1080   17.8260   21.5930 H   0  0  0  0  0  0  0  0  0  0  0  0
  -10.1080   14.2610   19.7553 H   0  0  0  0  0  0  0  0  0  0  0  0
  1  2  1  0
  2  3  1  0
  4  3  1  6
  4  5  1  0
  5  6  2  0
  5  7  1  0
  4  8  1  0
  8  9  1  0
  9 10  1  0
 10 11  1  0
 11 12  1  0
 12 13  1  0
 12 14  1  0
 14 15  1  0
 14 16  1  0
 16 17  1  0
  2 18  1  0
 18 19  2  0
 18 20  1  0
 17  4  1  0
 16  9  1  0
  1 21  1  0
  1 22  1  0
  1 23  1  0
  2 24  1  6
  3 25  1  0
  3 26  1  0
  8 27  1  0
  8 28  1  0
  9 29  1  6
 11 30  1  0
 11 31  1  0
 12 32  1  6
 13 33  1  0
 14 34  1  6
 15 35  1  0
 16 36  1  6
M  CHG  3   1   1   7  -1  20  -1
M  END
>  <meeko>  (1) 
{"is_sidechain": [false], "free_energy": -7.826, "intermolecular_energy": -10.343, "internal_energy": -0.78}

$$$$
3fv2_ligand
     RDKit          3D

 36 37  0  0  0  0  0  0  0  0999 V2000
   -7.5720   19.0890   20.7720 N   0  0  0  0  0  0  0  0  0  0  0  0
   -7.7400   17.5850   20.7420 C   0  0  1  0  0  0  0  0  0  0  0  0
   -9.2330   17.1970   20.6910 C   0  0  0  0  0  0  0  0  0  0  0  0
   -9.5250   15.7040   20.9030 C   0  0  2  0  0  0  0  0  0  0  0  0
  -10.7520   15.6250   21.8730 C   0  0  0  0  0  0  0  0  0  0  0  0
  -11.5470   16.6200   21.7710 O   0  0  0  0  0  0  0  0  0  0  0  0
  -10.7620   14.6830   22.7020 O   0  0  0  0  0  0  0  0  0  0  0  0
   -8.3690   14.8830   21.4610 C   0  0  0  0  0  0  0  0  0  0  0  0
   -7.9860   13.9280   20.3500 C   0  0  1  0  0  0  0  0  0  0  0  0
   -7.6500   12.6450   20.8760 O   0  0  0  0  0  0  0  0  0  0  0  0
   -7.8000   11.6030   19.9110 C   0  0  0  0  0  0  0  0  0  0  0  0
   -9.2630   11.4240   19.4640 C   0  0  1  0  0  0  0  0  0  0  0  0
   -9.8910   10.3840   20.2280 O   0  0  0  0  0  0  0  0  0  0  0  0
  -10.0900   12.7160   19.5930 C   0  0  1  0  0  0  0  0  0  0  0  0
  -10.7510   12.7070   20.8690 O   0  0  0  0  0  0  0  0  0  0  0  0
   -9.1750   13.9280   19.4010 C   0  0  1  0  0  0  0  0  0  0  0  0
   -9.8660   15.1650   19.5770 O   0  0  0  0  0  0  0  0  0  0  0  0
   -6.9020   16.9940   19.5620 C   0  0  0  0  0  0  0  0  0  0  0  0
   -7.3650   17.0950   18.4010 O   0  0  0  0  0  0  0  0  0  0  0  0
   -5.8050   16.4980   19.9860 O   0  0  0  0  0  0  0  0  0  0  0  0
   -6.6410   19.4020   20.4240 H   0  0  0  0  0  0  0  0  0  0  0  0
   -7.6130   19.4090   21.7460 H   0  0  0  0  0  0  0  0  0  0  0  0
   -8.3800   19.4710   20.2560 H   0  0  0  0  0  0  0  0  0  0  0  0
   -7.3521   17.1440   21.6721 H   0  0  0  0  0  0  0  0  0  0  0  0
   -9.7590   17.7619   21.4747 H   0  0  0  0  0  0  0  0  0  0  0  0
   -9.5773   17.4354   19.6738 H   0  0  0  0  0  0  0  0  0  0  0  0
   -7.5214   15.5354   21.7178 H   0  0  0  0  0  0  0  0  0  0  0  0
   -8.6503   14.3505   22.3815 H   0  0  0  0  0  0  0  0  0  0  0  0
   -7.0793   14.2328   19.8069 H   0  0  0  0  0  0  0  0  0  0  0  0
   -7.1885   11.8468   19.0297 H   0  0  0  0  0  0  0  0  0  0  0  0
   -7.4745   10.6624   20.3792 H   0  0  0  0  0  0  0  0  0  0  0  0
   -9.2337   11.1526   18.3984 H   0  0  0  0  0  0  0  0  0  0  0  0
  -10.8530   10.5470   20.0900 H   0  0  0  0  0  0  0  0  0  0  0  0
  -10.8645   12.7777   18.8143 H   0  0  0  0  0  0  0  0  0  0  0  0
  -10.9500   11.7640   21.0910 H   0  0  0  0  0  0  0  0  0  0  0  0
   -8.8183   13.8394   18.3642 H   0  0  0  0  0  0  0  0  0  0  0  0
  1  2  1  0
  2  3  1  0
  4  3  1  6
  4  5  1  0
  5  6  2  0
  5  7  1  0
  4  8  1  0
  8  9  1  0
  9 10  1  0
 10 11  1  0
 11 12  1  0
 12 13  1  0
 12 14  1  0
 14 15  1  0
 14 16  1  0
 16 17  1  0
  2 18  1  0
 18 19  2  0
 18 20  1  0
 17  4  1  0
 16  9  1  0
  1 21  1  0
  1 22  1  0
  1 23  1  0
  2 24  1  1
  3 25  1  0
  3 26  1  0
  8 27  1  0
  8 28  1  0
  9 29  1  6
 11 30  1  0
 11 31  1  0
 12 32  1  6
 13 33  1  0
 14 34  1  6
 15 35  1  0
 16 36  1  6
M  CHG  3   1   1   7  -1  20  -1
M  END
>  <meeko>  (2) 
{"is_sidechain": [false], "free_energy": -6.394, "intermolecular_energy": -8.881, "internal_energy": -0.349}

$$$$
3fv2_ligand
     RDKit          3D

 36 37  0  0  0  0  0  0  0  0999 V2000
   -5.3980   13.6670   17.4430 N   0  0  0  0  0  0  0  0  0  0  0  0
   -5.9950   14.5460   18.5210 C   0  0  1  0  0  0  0  0  0  0  0  0
   -6.5350   13.6970   19.6900 C   0  0  0  0  0  0  0  0  0  0  0  0
   -7.9910   13.9820   20.0850 C   0  0  2  0  0  0  0  0  0  0  0  0
   -8.7680   12.6320   19.9220 C   0  0  0  0  0  0  0  0  0  0  0  0
   -8.0440   11.6000   20.1280 O   0  0  0  0  0  0  0  0  0  0  0  0
   -9.9500   12.7020   19.5060 O   0  0  0  0  0  0  0  0  0  0  0  0
   -8.6840   15.0780   19.2840 C   0  0  0  0  0  0  0  0  0  0  0  0
   -8.9380   16.1960   20.2730 C   0  0  1  0  0  0  0  0  0  0  0  0
  -10.2060   16.8060   20.0380 O   0  0  0  0  0  0  0  0  0  0  0  0
  -10.7210   17.4590   21.1990 C   0  0  0  0  0  0  0  0  0  0  0  0
  -11.0170   16.4720   22.3440 C   0  0  1  0  0  0  0  0  0  0  0  0
  -12.4000   16.0900   22.3240 O   0  0  0  0  0  0  0  0  0  0  0  0
  -10.1410   15.2070   22.2850 C   0  0  1  0  0  0  0  0  0  0  0  0
  -10.8610   14.1890   21.5700 O   0  0  0  0  0  0  0  0  0  0  0  0
   -8.7940   15.5490   21.6440 C   0  0  1  0  0  0  0  0  0  0  0  0
   -7.9560   14.4040   21.4930 O   0  0  0  0  0  0  0  0  0  0  0  0
   -4.9420   15.6150   18.9600 C   0  0  0  0  0  0  0  0  0  0  0  0
   -3.9150   15.7550   18.2540 O   0  0  0  0  0  0  0  0  0  0  0  0
   -5.3260   16.2290   20.0100 O   0  0  0  0  0  0  0  0  0  0  0  0
   -4.3600   13.7440   17.3830 H   0  0  0  0  0  0  0  0  0  0  0  0
   -5.7420   13.9800   16.5280 H   0  0  0  0  0  0  0  0  0  0  0  0
   -5.7510   12.7160   17.6310 H   0  0  0  0  0  0  0  0  0  0  0  0
   -6.8659   15.0888   18.1249 H   0  0  0  0  0  0  0  0  0  0  0  0
   -6.4608   12.6374   19.4041 H   0  0  0  0  0  0  0  0  0  0  0  0
   -5.9235   13.9587   20.5661 H   0  0  0  0  0  0  0  0  0  0  0  0
   -8.0355   15.4265   18.4667 H   0  0  0  0  0  0  0  0  0  0  0  0
   -9.6156   14.7207   18.8209 H   0  0  0  0  0  0  0  0  0  0  0  0
   -8.2274   17.0304   20.1796 H   0  0  0  0  0  0  0  0  0  0  0  0
   -9.9811   18.1941   21.5485 H   0  0  0  0  0  0  0  0  0  0  0  0
  -11.6684   17.9430   20.9196 H   0  0  0  0  0  0  0  0  0  0  0  0
  -10.7784   16.9980   23.2802 H   0  0  0  0  0  0  0  0  0  0  0  0
  -12.4040   15.2190   22.7860 H   0  0  0  0  0  0  0  0  0  0  0  0
   -9.9235   14.8209   23.2918 H   0  0  0  0  0  0  0  0  0  0  0  0
  -10.8450   14.4360   20.6120 H   0  0  0  0  0  0  0  0  0  0  0  0
   -8.3335   16.2635   22.3421 H   0  0  0  0  0  0  0  0  0  0  0  0
  1  2  1  0
  2  3  1  0
  4  3  1  6
  4  5  1  0
  5  6  2  0
  5  7  1  0
  4  8  1  0
  8  9  1  0
  9 10  1  0
 10 11  1  0
 11 12  1  0
 12 13  1  0
 12 14  1  0
 14 15  1  0
 14 16  1  0
 16 17  1  0
  2 18  1  0
 18 19  2  0
 18 20  1  0
 17  4  1  0
 16  9  1  0
  1 21  1  0
  1 22  1  0
  1 23  1  0
  2 24  1  6
  3 25  1  0
  3 26  1  0
  8 27  1  0
  8 28  1  0
  9 29  1  1
 11 30  1  0
 11 31  1  0
 12 32  1  1
 13 33  1  0
 14 34  1  1
 15 35  1  0
 16 36  1  1
M  CHG  3   1   1   7  -1  20  -1
M  END
>  <meeko>  (3) 
{"is_sidechain": [false], "free_energy": -6.277, "intermolecular_energy": -8.224, "internal_energy": -0.851}

$$$$
3fv2_ligand
     RDKit          3D

 36 37  0  0  0  0  0  0  0  0999 V2000
  -11.7680   15.8850   22.3800 N   0  0  0  0  0  0  0  0  0  0  0  0
  -10.4800   15.8100   21.5870 C   0  0  1  0  0  0  0  0  0  0  0  0
  -10.3460   14.4460   20.8780 C   0  0  0  0  0  0  0  0  0  0  0  0
   -8.9290   14.0950   20.4030 C   0  0  2  0  0  0  0  0  0  0  0  0
   -8.8830   12.5370   20.2560 C   0  0  0  0  0  0  0  0  0  0  0  0
  -10.0110   12.0200   19.9540 O   0  0  0  0  0  0  0  0  0  0  0  0
   -7.8040   11.9690   20.5550 O   0  0  0  0  0  0  0  0  0  0  0  0
   -7.7990   14.5640   21.3120 C   0  0  0  0  0  0  0  0  0  0  0  0
   -7.0490   15.6070   20.5100 C   0  0  1  0  0  0  0  0  0  0  0  0
   -5.6430   15.5000   20.7260 O   0  0  0  0  0  0  0  0  0  0  0  0
   -4.8810   16.0540   19.6520 C   0  0  0  0  0  0  0  0  0  0  0  0
   -5.0900   15.2900   18.3310 C   0  0  1  0  0  0  0  0  0  0  0  0
   -4.0520   14.3140   18.1540 O   0  0  0  0  0  0  0  0  0  0  0  0
   -6.4590   14.5910   18.2530 C   0  0  1  0  0  0  0  0  0  0  0  0
   -6.3050   13.2370   18.7110 O   0  0  0  0  0  0  0  0  0  0  0  0
   -7.4830   15.3840   19.0680 C   0  0  1  0  0  0  0  0  0  0  0  0
   -8.7630   14.7530   19.0980 O   0  0  0  0  0  0  0  0  0  0  0  0
  -10.4010   17.0290   20.6120 C   0  0  0  0  0  0  0  0  0  0  0  0
  -10.7960   16.8680   19.4330 O   0  0  0  0  0  0  0  0  0  0  0  0
   -9.9480   18.0620   21.2100 O   0  0  0  0  0  0  0  0  0  0  0  0
  -11.8490   16.7570   22.9440 H   0  0  0  0  0  0  0  0  0  0  0  0
  -11.7810   15.1210   23.0660 H   0  0  0  0  0  0  0  0  0  0  0  0
  -12.5260   15.7390   21.6950 H   0  0  0  0  0  0  0  0  0  0  0  0
   -9.6162   15.8760   22.2649 H   0  0  0  0  0  0  0  0  0  0  0  0
  -10.6739   13.6641   21.5788 H   0  0  0  0  0  0  0  0  0  0  0  0
  -10.9658   14.5100   19.9715 H   0  0  0  0  0  0  0  0  0  0  0  0
   -8.2043   15.0051   22.2346 H   0  0  0  0  0  0  0  0  0  0  0  0
   -7.1460   13.7331   21.6172 H   0  0  0  0  0  0  0  0  0  0  0  0
   -7.2817   16.6389   20.8118 H   0  0  0  0  0  0  0  0  0  0  0  0
   -5.1844   17.1013   19.5066 H   0  0  0  0  0  0  0  0  0  0  0  0
   -3.8169   15.9771   19.9201 H   0  0  0  0  0  0  0  0  0  0  0  0
   -5.0538   16.0400   17.5272 H   0  0  0  0  0  0  0  0  0  0  0  0
   -4.1610   13.7200   18.9320 H   0  0  0  0  0  0  0  0  0  0  0  0
   -6.8342   14.5560   17.2196 H   0  0  0  0  0  0  0  0  0  0  0  0
   -7.1810   12.7900   18.6070 H   0  0  0  0  0  0  0  0  0  0  0  0
   -7.5514   16.3519   18.5498 H   0  0  0  0  0  0  0  0  0  0  0  0
  1  2  1  0
  2  3  1  0
  4  3  1  1
  4  5  1  0
  5  6  2  0
  5  7  1  0
  4  8  1  0
  8  9  1  0
  9 10  1  0
 10 11  1  0
 11 12  1  0
 12 13  1  0
 12 14  1  0
 14 15  1  0
 14 16  1  0
 16 17  1  0
  2 18  1  0
 18 19  2  0
 18 20  1  0
 17  4  1  0
 16  9  1  0
  1 21  1  0
  1 22  1  0
  1 23  1  0
  2 24  1  1
  3 25  1  0
  3 26  1  0
  8 27  1  0
  8 28  1  0
  9 29  1  1
 11 30  1  0
 11 31  1  0
 12 32  1  6
 13 33  1  0
 14 34  1  6
 15 35  1  0
 16 36  1  6
M  CHG  3   1   1   7  -1  20  -1
M  END
>  <meeko>  (4) 
{"is_sidechain": [false], "free_energy": -5.36, "intermolecular_energy": -7.387, "internal_energy": -0.477}

$$$$
3fv2_ligand
     RDKit          3D

 36 37  0  0  0  0  0  0  0  0999 V2000
   -7.3140   19.1130   20.7900 N   0  0  0  0  0  0  0  0  0  0  0  0
   -8.0550   17.8290   20.4850 C   0  0  1  0  0  0  0  0  0  0  0  0
   -7.2760   16.6040   21.0070 C   0  0  0  0  0  0  0  0  0  0  0  0
   -7.4710   15.3140   20.1980 C   0  0  2  0  0  0  0  0  0  0  0  0
   -6.3250   15.2810   19.1320 C   0  0  0  0  0  0  0  0  0  0  0  0
   -6.4590   16.1560   18.2110 O   0  0  0  0  0  0  0  0  0  0  0  0
   -5.4860   14.3520   19.2260 O   0  0  0  0  0  0  0  0  0  0  0  0
   -8.8230   15.1720   19.5090 C   0  0  0  0  0  0  0  0  0  0  0  0
   -9.5000   14.0050   20.1980 C   0  0  1  0  0  0  0  0  0  0  0  0
  -10.2220   13.2090   19.2590 O   0  0  0  0  0  0  0  0  0  0  0  0
  -10.4200   11.8700   19.7160 C   0  0  0  0  0  0  0  0  0  0  0  0
   -9.0930   11.1040   19.8760 C   0  0  1  0  0  0  0  0  0  0  0  0
   -8.8220   10.3330   18.6970 O   0  0  0  0  0  0  0  0  0  0  0  0
   -7.8970   12.0300   20.1610 C   0  0  1  0  0  0  0  0  0  0  0  0
   -7.2620   12.3500   18.9120 O   0  0  0  0  0  0  0  0  0  0  0  0
   -8.3810   13.2690   20.9190 C   0  0  1  0  0  0  0  0  0  0  0  0
   -7.3320   14.2070   21.1560 O   0  0  0  0  0  0  0  0  0  0  0  0
   -9.5110   17.9260   21.0450 C   0  0  0  0  0  0  0  0  0  0  0  0
  -10.0560   16.8750   21.4560 O   0  0  0  0  0  0  0  0  0  0  0  0
   -9.9300   19.1320   21.0200 O   0  0  0  0  0  0  0  0  0  0  0  0
   -7.9220   19.8420   21.2190 H   0  0  0  0  0  0  0  0  0  0  0  0
   -6.9840   19.5250   19.9090 H   0  0  0  0  0  0  0  0  0  0  0  0
   -6.4990   18.8370   21.3600 H   0  0  0  0  0  0  0  0  0  0  0  0
   -8.1313   17.6880   19.3967 H   0  0  0  0  0  0  0  0  0  0  0  0
   -6.2045   16.8528   20.9983 H   0  0  0  0  0  0  0  0  0  0  0  0
   -7.6700   16.3968   22.0129 H   0  0  0  0  0  0  0  0  0  0  0  0
   -9.4168   16.0897   19.6321 H   0  0  0  0  0  0  0  0  0  0  0  0
   -8.7172   15.0051   18.4269 H   0  0  0  0  0  0  0  0  0  0  0  0
  -10.2679   14.3129   20.9229 H   0  0  0  0  0  0  0  0  0  0  0  0
  -10.9303   11.9006   20.6900 H   0  0  0  0  0  0  0  0  0  0  0  0
  -11.0236   11.3432   18.9622 H   0  0  0  0  0  0  0  0  0  0  0  0
   -9.2160   10.4437   20.7471 H   0  0  0  0  0  0  0  0  0  0  0  0
   -9.6860   10.3240   18.2240 H   0  0  0  0  0  0  0  0  0  0  0  0
   -7.1508   11.5370   20.8015 H   0  0  0  0  0  0  0  0  0  0  0  0
   -7.8450   12.9970   18.4420 H   0  0  0  0  0  0  0  0  0  0  0  0
   -8.7565   12.8741   21.8745 H   0  0  0  0  0  0  0  0  0  0  0  0
  1  2  1  0
  2  3  1  0
  4  3  1  1
  4  5  1  0
  5  6  2  0
  5  7  1  0
  4  8  1  0
  8  9  1  0
  9 10  1  0
 10 11  1  0
 11 12  1  0
 12 13  1  0
 12 14  1  0
 14 15  1  0
 14 16  1  0
 16 17  1  0
  2 18  1  0
 18 19  2  0
 18 20  1  0
 17  4  1  0
 16  9  1  0
  1 21  1  0
  1 22  1  0
  1 23  1  0
  2 24  1  6
  3 25  1  0
  3 26  1  0
  8 27  1  0
  8 28  1  0
  9 29  1  1
 11 30  1  0
 11 31  1  0
 12 32  1  1
 13 33  1  0
 14 34  1  1
 15 35  1  0
 16 36  1  1
M  CHG  3   1   1   7  -1  20  -1
M  END
>  <meeko>  (5) 
{"is_sidechain": [false], "free_energy": -5.322, "intermolecular_energy": -8.197, "internal_energy": 0.383}

$$$$
3fv2_ligand
     RDKit          3D

 36 37  0  0  0  0  0  0  0  0999 V2000
  -11.8220   15.2220   22.7130 N   0  0  0  0  0  0  0  0  0  0  0  0
  -10.9460   14.8210   21.5450 C   0  0  1  0  0  0  0  0  0  0  0  0
   -9.4530   15.0150   21.8830 C   0  0  0  0  0  0  0  0  0  0  0  0
   -8.5560   15.3760   20.6900 C   0  0  2  0  0  0  0  0  0  0  0  0
   -9.1690   16.6660   20.0480 C   0  0  0  0  0  0  0  0  0  0  0  0
  -10.0570   16.4220   19.1630 O   0  0  0  0  0  0  0  0  0  0  0  0
   -8.6570   17.7640   20.3760 O   0  0  0  0  0  0  0  0  0  0  0  0
   -8.4080   14.2910   19.6300 C   0  0  0  0  0  0  0  0  0  0  0  0
   -6.9550   13.8710   19.6910 C   0  0  1  0  0  0  0  0  0  0  0  0
   -6.4430   13.6180   18.3830 O   0  0  0  0  0  0  0  0  0  0  0  0
   -5.0210   13.7430   18.3190 C   0  0  0  0  0  0  0  0  0  0  0  0
   -4.5450   15.1790   18.6080 C   0  0  1  0  0  0  0  0  0  0  0  0
   -4.3540   15.8940   17.3790 O   0  0  0  0  0  0  0  0  0  0  0  0
   -5.5210   15.9640   19.5030 C   0  0  1  0  0  0  0  0  0  0  0  0
   -6.4150   16.7080   18.6580 O   0  0  0  0  0  0  0  0  0  0  0  0
   -6.2500   14.9940   20.4370 C   0  0  1  0  0  0  0  0  0  0  0  0
   -7.2240   15.6480   21.2500 O   0  0  0  0  0  0  0  0  0  0  0  0
  -11.3010   13.3640   21.1080 C   0  0  0  0  0  0  0  0  0  0  0  0
  -11.4130   12.4910   22.0010 O   0  0  0  0  0  0  0  0  0  0  0  0
  -11.4580   13.2920   19.8430 O   0  0  0  0  0  0  0  0  0  0  0  0
  -12.5400   15.9330   22.4580 H   0  0  0  0  0  0  0  0  0  0  0  0
  -11.2400   15.6750   23.4260 H   0  0  0  0  0  0  0  0  0  0  0  0
  -12.2010   14.3410   23.0930 H   0  0  0  0  0  0  0  0  0  0  0  0
  -11.1418   15.4775   20.6844 H   0  0  0  0  0  0  0  0  0  0  0  0
   -9.3740   15.8229   22.6254 H   0  0  0  0  0  0  0  0  0  0  0  0
   -9.0941   14.0432   22.2528 H   0  0  0  0  0  0  0  0  0  0  0  0
   -9.0656   13.4387   19.8562 H   0  0  0  0  0  0  0  0  0  0  0  0
   -8.6895   14.6526   18.6300 H   0  0  0  0  0  0  0  0  0  0  0  0
   -6.7986   12.9195   20.2204 H   0  0  0  0  0  0  0  0  0  0  0  0
   -4.5730   13.0661   19.0613 H   0  0  0  0  0  0  0  0  0  0  0  0
   -4.7069   13.4845   17.2970 H   0  0  0  0  0  0  0  0  0  0  0  0
   -3.5931   15.0897   19.1521 H   0  0  0  0  0  0  0  0  0  0  0  0
   -4.6840   16.7990   17.5860 H   0  0  0  0  0  0  0  0  0  0  0  0
   -4.9888   16.6819   20.1444 H   0  0  0  0  0  0  0  0  0  0  0  0
   -6.3900   17.6490   18.9600 H   0  0  0  0  0  0  0  0  0  0  0  0
   -5.4534   14.5735   21.0683 H   0  0  0  0  0  0  0  0  0  0  0  0
  1  2  1  0
  2  3  1  0
  4  3  1  1
  4  5  1  0
  5  6  2  0
  5  7  1  0
  4  8  1  0
  8  9  1  0
  9 10  1  0
 10 11  1  0
 11 12  1  0
 12 13  1  0
 12 14  1  0
 14 15  1  0
 14 16  1  0
 16 17  1  0
  2 18  1  0
 18 19  2  0
 18 20  1  0
 17  4  1  0
 16  9  1  0
  1 21  1  0
  1 22  1  0
  1 23  1  0
  2 24  1  6
  3 25  1  0
  3 26  1  0
  8 27  1  0
  8 28  1  0
  9 29  1  1
 11 30  1  0
 11 31  1  0
 12 32  1  1
 13 33  1  0
 14 34  1  1
 15 35  1  0
 16 36  1  1
M  CHG  3   1   1   7  -1  20  -1
M  END
>  <meeko>  (6) 
{"is_sidechain": [false], "free_energy": -4.849, "intermolecular_energy": -6.934, "internal_energy": -0.254}

$$$$
