1pxn_ligand
     RDKit          3D

 37 39  0  0  0  0  0  0  0  0999 V2000
   -2.1750    8.5080   21.9520 C   0  0  0  0  0  0  0  0  0  0  0  0
   -1.0230    8.4450   22.8210 N   0  0  0  0  0  0  0  0  0  0  0  0
   -1.0320    7.5530   23.8380 C   0  0  0  0  0  0  0  0  0  0  0  0
   -2.1100    7.0360   24.3790 N   0  0  0  0  0  0  0  0  0  0  0  0
   -1.7730    6.1520   25.3920 C   0  0  0  0  0  0  0  0  0  0  0  0
   -2.8820    5.4530   26.0960 C   0  0  0  0  0  0  0  0  0  0  0  0
   -0.4130    6.0220   25.6260 C   0  0  0  0  0  0  0  0  0  0  0  0
    0.3100    5.2320   26.6160 C   0  0  0  0  0  0  0  0  0  0  0  0
    0.0380    3.8970   26.8100 C   0  0  0  0  0  0  0  0  0  0  0  0
    0.8020    3.2800   27.7650 C   0  0  0  0  0  0  0  0  0  0  0  0
    1.7560    3.9110   28.4710 N   0  0  0  0  0  0  0  0  0  0  0  0
    1.9570    5.2130   28.2220 C   0  0  0  0  0  0  0  0  0  0  0  0
    2.9180    5.9570   28.8980 N   0  0  0  0  0  0  0  0  0  0  0  0
    3.7310    7.0430   28.5580 C   0  0  0  0  0  0  0  0  0  0  0  0
    3.4130    7.7840   27.4070 C   0  0  0  0  0  0  0  0  0  0  0  0
    4.1860    8.8780   27.0090 C   0  0  0  0  0  0  0  0  0  0  0  0
    5.2930    9.2440   27.7590 C   0  0  0  0  0  0  0  0  0  0  0  0
    6.0230   10.3140   27.3400 O   0  0  0  0  0  0  0  0  0  0  0  0
    5.6370    8.5310   28.9000 C   0  0  0  0  0  0  0  0  0  0  0  0
    4.8560    7.4360   29.2920 C   0  0  0  0  0  0  0  0  0  0  0  0
    1.2570    5.8980   27.3070 N   0  0  0  0  0  0  0  0  0  0  0  0
    0.4490    7.0110   24.5180 S   0  0  0  0  0  0  0  0  0  0  0  0
   -3.0905    8.5581   22.5598 H   0  0  0  0  0  0  0  0  0  0  0  0
   -2.1069    9.4038   21.3172 H   0  0  0  0  0  0  0  0  0  0  0  0
   -2.2050    7.6102   21.3172 H   0  0  0  0  0  0  0  0  0  0  0  0
   -0.1290    8.5920   22.3650 H   0  0  0  0  0  0  0  0  0  0  0  0
   -2.7402    5.5424   27.1832 H   0  0  0  0  0  0  0  0  0  0  0  0
   -3.8417    5.9097   25.8126 H   0  0  0  0  0  0  0  0  0  0  0  0
   -2.8839    4.3901   25.8126 H   0  0  0  0  0  0  0  0  0  0  0  0
   -0.7368    3.3640   26.2395 H   0  0  0  0  0  0  0  0  0  0  0  0
    0.6256    2.2127   27.9645 H   0  0  0  0  0  0  0  0  0  0  0  0
    3.0230    5.5800   29.8290 H   0  0  0  0  0  0  0  0  0  0  0  0
    2.5371    7.4968   26.8067 H   0  0  0  0  0  0  0  0  0  0  0  0
    3.9176    9.4455   26.1057 H   0  0  0  0  0  0  0  0  0  0  0  0
    5.8320   11.0650   27.9260 H   0  0  0  0  0  0  0  0  0  0  0  0
    6.5167    8.8240   29.4919 H   0  0  0  0  0  0  0  0  0  0  0  0
    5.1328    6.8732   30.1957 H   0  0  0  0  0  0  0  0  0  0  0  0
  1  2  1  0
  2  3  1  0
  3  4  2  0
  4  5  1  0
  5  6  1  0
  5  7  2  0
  7  8  1  0
  8  9  2  0
  9 10  1  0
 10 11  2  0
 11 12  1  0
 12 13  1  0
 13 14  1  0
 14 15  2  0
 15 16  1  0
 16 17  2  0
 17 18  1  0
 17 19  1  0
 19 20  2  0
 12 21  2  0
  7 22  1  0
 22  3  1  0
 21  8  1  0
 20 14  1  0
  1 23  1  0
  1 24  1  0
  1 25  1  0
  2 26  1  0
  6 27  1  0
  6 28  1  0
  6 29  1  0
  9 30  1  0
 10 31  1  0
 13 32  1  0
 15 33  1  0
 16 34  1  0
 18 35  1  0
 19 36  1  0
 20 37  1  0
M  END
>  <meeko>  (1) 
{"is_sidechain": [false], "free_energy": -8.969, "intermolecular_energy": -11.328, "internal_energy": 0.143}

$$$$
1pxn_ligand
     RDKit          3D

 37 39  0  0  0  0  0  0  0  0999 V2000
    4.5410    7.2780   28.1110 C   0  0  0  0  0  0  0  0  0  0  0  0
    3.7960    6.2920   28.8590 N   0  0  0  0  0  0  0  0  0  0  0  0
    2.6870    5.7610   28.2950 C   0  0  0  0  0  0  0  0  0  0  0  0
    2.4000    4.4820   28.2520 N   0  0  0  0  0  0  0  0  0  0  0  0
    1.1880    4.2730   27.6110 C   0  0  0  0  0  0  0  0  0  0  0  0
    0.6970    2.8730   27.5000 C   0  0  0  0  0  0  0  0  0  0  0  0
    0.5670    5.4220   27.1460 C   0  0  0  0  0  0  0  0  0  0  0  0
   -0.6750    5.5960   26.4030 C   0  0  0  0  0  0  0  0  0  0  0  0
   -1.8820    5.1710   26.9080 C   0  0  0  0  0  0  0  0  0  0  0  0
   -2.9660    5.4100   26.1060 C   0  0  0  0  0  0  0  0  0  0  0  0
   -2.8820    6.0180   24.9100 N   0  0  0  0  0  0  0  0  0  0  0  0
   -1.6670    6.4020   24.4900 C   0  0  0  0  0  0  0  0  0  0  0  0
   -1.4720    7.0370   23.2680 N   0  0  0  0  0  0  0  0  0  0  0  0
   -1.2780    8.3650   22.8770 C   0  0  0  0  0  0  0  0  0  0  0  0
   -1.4540    8.6970   21.5230 C   0  0  0  0  0  0  0  0  0  0  0  0
   -1.2730   10.0050   21.0640 C   0  0  0  0  0  0  0  0  0  0  0  0
   -0.9100   11.0010   21.9590 C   0  0  0  0  0  0  0  0  0  0  0  0
   -0.7420   12.2620   21.4750 O   0  0  0  0  0  0  0  0  0  0  0  0
   -0.7260   10.7050   23.3020 C   0  0  0  0  0  0  0  0  0  0  0  0
   -0.9100    9.3920   23.7540 C   0  0  0  0  0  0  0  0  0  0  0  0
   -0.5520    6.2080   25.2080 N   0  0  0  0  0  0  0  0  0  0  0  0
    1.5200    6.7890   27.5630 S   0  0  0  0  0  0  0  0  0  0  0  0
    5.0538    7.9567   28.8084 H   0  0  0  0  0  0  0  0  0  0  0  0
    5.2848    6.7726   27.4775 H   0  0  0  0  0  0  0  0  0  0  0  0
    3.8516    7.8555   27.4775 H   0  0  0  0  0  0  0  0  0  0  0  0
    4.3560    5.6590   29.4200 H   0  0  0  0  0  0  0  0  0  0  0  0
    0.5504    2.4549   28.5068 H   0  0  0  0  0  0  0  0  0  0  0  0
   -0.2587    2.8617   26.9555 H   0  0  0  0  0  0  0  0  0  0  0  0
    1.4363    2.2672   26.9555 H   0  0  0  0  0  0  0  0  0  0  0  0
   -1.9701    4.6748   27.8858 H   0  0  0  0  0  0  0  0  0  0  0  0
   -3.9568    5.0878   26.4587 H   0  0  0  0  0  0  0  0  0  0  0  0
   -1.4990    6.3430   22.5350 H   0  0  0  0  0  0  0  0  0  0  0  0
   -1.7403    7.9108   20.8089 H   0  0  0  0  0  0  0  0  0  0  0  0
   -1.4175   10.2430   19.9998 H   0  0  0  0  0  0  0  0  0  0  0  0
   -0.1020   12.7250   22.0410 H   0  0  0  0  0  0  0  0  0  0  0  0
   -0.4371   11.4974   24.0082 H   0  0  0  0  0  0  0  0  0  0  0  0
   -0.7623    9.1634   24.8198 H   0  0  0  0  0  0  0  0  0  0  0  0
  1  2  1  0
  2  3  1  0
  3  4  2  0
  4  5  1  0
  5  6  1  0
  5  7  2  0
  7  8  1  0
  8  9  2  0
  9 10  1  0
 10 11  2  0
 11 12  1  0
 12 13  1  0
 13 14  1  0
 14 15  2  0
 15 16  1  0
 16 17  2  0
 17 18  1  0
 17 19  1  0
 19 20  2  0
 12 21  2  0
  7 22  1  0
 22  3  1  0
 21  8  1  0
 20 14  1  0
  1 23  1  0
  1 24  1  0
  1 25  1  0
  2 26  1  0
  6 27  1  0
  6 28  1  0
  6 29  1  0
  9 30  1  0
 10 31  1  0
 13 32  1  0
 15 33  1  0
 16 34  1  0
 18 35  1  0
 19 36  1  0
 20 37  1  0
M  END
>  <meeko>  (2) 
{"is_sidechain": [false], "free_energy": -8.238, "intermolecular_energy": -9.819, "internal_energy": -0.443}

$$$$
1pxn_ligand
     RDKit          3D

 37 39  0  0  0  0  0  0  0  0999 V2000
   -2.1320    3.4280   25.2260 C   0  0  0  0  0  0  0  0  0  0  0  0
   -1.2950    3.5540   26.3970 N   0  0  0  0  0  0  0  0  0  0  0  0
   -0.4570    4.6130   26.4780 C   0  0  0  0  0  0  0  0  0  0  0  0
    0.4750    4.7700   27.3870 N   0  0  0  0  0  0  0  0  0  0  0  0
    1.1610    5.9580   27.1850 C   0  0  0  0  0  0  0  0  0  0  0  0
    2.2760    6.2790   28.1160 C   0  0  0  0  0  0  0  0  0  0  0  0
    0.7170    6.7130   26.1100 C   0  0  0  0  0  0  0  0  0  0  0  0
    1.1570    8.0130   25.6170 C   0  0  0  0  0  0  0  0  0  0  0  0
    2.4060    8.5100   25.9110 C   0  0  0  0  0  0  0  0  0  0  0  0
    2.6860    9.7370   25.3710 C   0  0  0  0  0  0  0  0  0  0  0  0
    1.8210   10.4230   24.6030 N   0  0  0  0  0  0  0  0  0  0  0  0
    0.6230    9.8690   24.3650 C   0  0  0  0  0  0  0  0  0  0  0  0
   -0.3430   10.4960   23.5860 N   0  0  0  0  0  0  0  0  0  0  0  0
   -1.4230   10.0470   22.8200 C   0  0  0  0  0  0  0  0  0  0  0  0
   -2.7240   10.3740   23.2400 C   0  0  0  0  0  0  0  0  0  0  0  0
   -3.8480    9.9550   22.5230 C   0  0  0  0  0  0  0  0  0  0  0  0
   -3.6830    9.1990   21.3720 C   0  0  0  0  0  0  0  0  0  0  0  0
   -4.8010    8.8080   20.7000 O   0  0  0  0  0  0  0  0  0  0  0  0
   -2.4120    8.8570   20.9310 C   0  0  0  0  0  0  0  0  0  0  0  0
   -1.2910    9.2820   21.6560 C   0  0  0  0  0  0  0  0  0  0  0  0
    0.2630    8.6730   24.8530 N   0  0  0  0  0  0  0  0  0  0  0  0
   -0.5670    5.8840   25.3270 S   0  0  0  0  0  0  0  0  0  0  0  0
   -3.1755    3.2709   25.5364 H   0  0  0  0  0  0  0  0  0  0  0  0
   -2.0625    4.3467   24.6251 H   0  0  0  0  0  0  0  0  0  0  0  0
   -1.7951    2.5704   24.6251 H   0  0  0  0  0  0  0  0  0  0  0  0
   -1.7220    3.2560   27.2680 H   0  0  0  0  0  0  0  0  0  0  0  0
    1.9271    6.1786   29.1544 H   0  0  0  0  0  0  0  0  0  0  0  0
    3.1112    5.5848   27.9410 H   0  0  0  0  0  0  0  0  0  0  0  0
    2.6142    7.3110   27.9410 H   0  0  0  0  0  0  0  0  0  0  0  0
    3.1273    7.9615   26.5346 H   0  0  0  0  0  0  0  0  0  0  0  0
    3.6696   10.1847   25.5761 H   0  0  0  0  0  0  0  0  0  0  0  0
   -0.1720   11.4910   23.5980 H   0  0  0  0  0  0  0  0  0  0  0  0
   -2.8603   10.9726   24.1527 H   0  0  0  0  0  0  0  0  0  0  0  0
   -4.8571   10.2231   22.8693 H   0  0  0  0  0  0  0  0  0  0  0  0
   -5.0420    7.9150   20.9980 H   0  0  0  0  0  0  0  0  0  0  0  0
   -2.2858    8.2562   20.0182 H   0  0  0  0  0  0  0  0  0  0  0  0
   -0.2859    9.0085   21.3026 H   0  0  0  0  0  0  0  0  0  0  0  0
  1  2  1  0
  2  3  1  0
  3  4  2  0
  4  5  1  0
  5  6  1  0
  5  7  2  0
  7  8  1  0
  8  9  2  0
  9 10  1  0
 10 11  2  0
 11 12  1  0
 12 13  1  0
 13 14  1  0
 14 15  2  0
 15 16  1  0
 16 17  2  0
 17 18  1  0
 17 19  1  0
 19 20  2  0
 12 21  2  0
  7 22  1  0
 22  3  1  0
 21  8  1  0
 20 14  1  0
  1 23  1  0
  1 24  1  0
  1 25  1  0
  2 26  1  0
  6 27  1  0
  6 28  1  0
  6 29  1  0
  9 30  1  0
 10 31  1  0
 13 32  1  0
 15 33  1  0
 16 34  1  0
 18 35  1  0
 19 36  1  0
 20 37  1  0
M  END
>  <meeko>  (3) 
{"is_sidechain": [false], "free_energy": -8.181, "intermolecular_energy": -9.939, "internal_energy": -0.252}

$$$$
1pxn_ligand
     RDKit          3D

 37 39  0  0  0  0  0  0  0  0999 V2000
   -4.4160    5.8360   25.3420 C   0  0  0  0  0  0  0  0  0  0  0  0
   -3.1830    5.1110   25.1420 N   0  0  0  0  0  0  0  0  0  0  0  0
   -2.0180    5.7220   25.4590 C   0  0  0  0  0  0  0  0  0  0  0  0
   -1.1760    5.3130   26.3780 N   0  0  0  0  0  0  0  0  0  0  0  0
   -0.0800    6.1580   26.4490 C   0  0  0  0  0  0  0  0  0  0  0  0
    0.9910    5.8220   27.4260 C   0  0  0  0  0  0  0  0  0  0  0  0
   -0.1150    7.2350   25.5760 C   0  0  0  0  0  0  0  0  0  0  0  0
    0.8210    8.3380   25.3900 C   0  0  0  0  0  0  0  0  0  0  0  0
    0.4520    9.4940   24.7410 C   0  0  0  0  0  0  0  0  0  0  0  0
    1.4310   10.4480   24.6500 C   0  0  0  0  0  0  0  0  0  0  0  0
    2.6670   10.2900   25.1530 N   0  0  0  0  0  0  0  0  0  0  0  0
    2.9470    9.1330   25.7690 C   0  0  0  0  0  0  0  0  0  0  0  0
    4.1950    8.8690   26.3220 N   0  0  0  0  0  0  0  0  0  0  0  0
    4.6490    8.5580   27.6070 C   0  0  0  0  0  0  0  0  0  0  0  0
    5.6990    9.3200   28.1500 C   0  0  0  0  0  0  0  0  0  0  0  0
    6.2030    9.0600   29.4280 C   0  0  0  0  0  0  0  0  0  0  0  0
    5.6620    8.0280   30.1800 C   0  0  0  0  0  0  0  0  0  0  0  0
    6.1790    7.8040   31.4190 O   0  0  0  0  0  0  0  0  0  0  0  0
    4.6280    7.2550   29.6720 C   0  0  0  0  0  0  0  0  0  0  0  0
    4.1280    7.5230   28.3910 C   0  0  0  0  0  0  0  0  0  0  0  0
    2.0520    8.1430   25.9050 N   0  0  0  0  0  0  0  0  0  0  0  0
   -1.5440    7.1500   24.6280 S   0  0  0  0  0  0  0  0  0  0  0  0
   -4.6052    5.9473   26.4199 H   0  0  0  0  0  0  0  0  0  0  0  0
   -4.3357    6.8307   24.8792 H   0  0  0  0  0  0  0  0  0  0  0  0
   -5.2462    5.2822   24.8792 H   0  0  0  0  0  0  0  0  0  0  0  0
   -3.2300    4.1150   25.3340 H   0  0  0  0  0  0  0  0  0  0  0  0
    0.6052    5.9430   28.4490 H   0  0  0  0  0  0  0  0  0  0  0  0
    1.3109    4.7803   27.2756 H   0  0  0  0  0  0  0  0  0  0  0  0
    1.8486    6.4943   27.2756 H   0  0  0  0  0  0  0  0  0  0  0  0
   -0.5558    9.6413   24.3255 H   0  0  0  0  0  0  0  0  0  0  0  0
    1.1929   11.3924   24.1386 H   0  0  0  0  0  0  0  0  0  0  0  0
    4.8930    8.9480   25.5970 H   0  0  0  0  0  0  0  0  0  0  0  0
    6.1331   10.1381   27.5565 H   0  0  0  0  0  0  0  0  0  0  0  0
    7.0232    9.6700   29.8343 H   0  0  0  0  0  0  0  0  0  0  0  0
    6.6740    6.9690   31.3980 H   0  0  0  0  0  0  0  0  0  0  0  0
    4.2032    6.4364   30.2715 H   0  0  0  0  0  0  0  0  0  0  0  0
    3.3084    6.9066   27.9932 H   0  0  0  0  0  0  0  0  0  0  0  0
  1  2  1  0
  2  3  1  0
  3  4  2  0
  4  5  1  0
  5  6  1  0
  5  7  2  0
  7  8  1  0
  8  9  2  0
  9 10  1  0
 10 11  2  0
 11 12  1  0
 12 13  1  0
 13 14  1  0
 14 15  2  0
 15 16  1  0
 16 17  2  0
 17 18  1  0
 17 19  1  0
 19 20  2  0
 12 21  2  0
  7 22  1  0
 22  3  1  0
 21  8  1  0
 20 14  1  0
  1 23  1  0
  1 24  1  0
  1 25  1  0
  2 26  1  0
  6 27  1  0
  6 28  1  0
  6 29  1  0
  9 30  1  0
 10 31  1  0
 13 32  1  0
 15 33  1  0
 16 34  1  0
 18 35  1  0
 19 36  1  0
 20 37  1  0
M  END
>  <meeko>  (4) 
{"is_sidechain": [false], "free_energy": -8.145, "intermolecular_energy": -10.137, "internal_energy": -0.008}

$$$$
1pxn_ligand
     RDKit          3D

 37 39  0  0  0  0  0  0  0  0999 V2000
    5.3410    7.8950   29.4150 C   0  0  0  0  0  0  0  0  0  0  0  0
    4.4370    6.7770   29.2780 N   0  0  0  0  0  0  0  0  0  0  0  0
    3.4660    6.8480   28.3390 C   0  0  0  0  0  0  0  0  0  0  0  0
    3.3810    7.7680   27.4080 N   0  0  0  0  0  0  0  0  0  0  0  0
    2.2730    7.5510   26.6030 C   0  0  0  0  0  0  0  0  0  0  0  0
    2.0430    8.4920   25.4740 C   0  0  0  0  0  0  0  0  0  0  0  0
    1.5020    6.4530   26.9550 C   0  0  0  0  0  0  0  0  0  0  0  0
    0.2640    5.9390   26.3810 C   0  0  0  0  0  0  0  0  0  0  0  0
   -0.3480    4.8130   26.8810 C   0  0  0  0  0  0  0  0  0  0  0  0
   -1.5100    4.4520   26.2500 C   0  0  0  0  0  0  0  0  0  0  0  0
   -2.0340    5.1360   25.2180 N   0  0  0  0  0  0  0  0  0  0  0  0
   -1.3740    6.2220   24.7900 C   0  0  0  0  0  0  0  0  0  0  0  0
   -1.8300    6.9970   23.7290 N   0  0  0  0  0  0  0  0  0  0  0  0
   -1.5160    8.2690   23.2420 C   0  0  0  0  0  0  0  0  0  0  0  0
   -1.5940    8.4940   21.8560 C   0  0  0  0  0  0  0  0  0  0  0  0
   -1.2900    9.7410   21.3020 C   0  0  0  0  0  0  0  0  0  0  0  0
   -0.9010   10.7820   22.1320 C   0  0  0  0  0  0  0  0  0  0  0  0
   -0.6120   11.9820   21.5570 O   0  0  0  0  0  0  0  0  0  0  0  0
   -0.8100   10.5920   23.5040 C   0  0  0  0  0  0  0  0  0  0  0  0
   -1.1170    9.3390   24.0500 C   0  0  0  0  0  0  0  0  0  0  0  0
   -0.2300    6.6480   25.3460 N   0  0  0  0  0  0  0  0  0  0  0  0
    2.2160    5.6680   28.3050 S   0  0  0  0  0  0  0  0  0  0  0  0
    5.5086    8.1023   30.4822 H   0  0  0  0  0  0  0  0  0  0  0  0
    6.2998    7.6524   28.9336 H   0  0  0  0  0  0  0  0  0  0  0  0
    4.9030    8.7818   28.9336 H   0  0  0  0  0  0  0  0  0  0  0  0
    4.8530    5.8630   29.4200 H   0  0  0  0  0  0  0  0  0  0  0  0
    1.7994    9.4885   25.8711 H   0  0  0  0  0  0  0  0  0  0  0  0
    2.9522    8.5549   24.8581 H   0  0  0  0  0  0  0  0  0  0  0  0
    1.2073    8.1284   24.8581 H   0  0  0  0  0  0  0  0  0  0  0  0
    0.0654    4.2434   27.7263 H   0  0  0  0  0  0  0  0  0  0  0  0
   -2.0409    3.5569   26.6062 H   0  0  0  0  0  0  0  0  0  0  0  0
   -2.5570    6.4890   23.2460 H   0  0  0  0  0  0  0  0  0  0  0  0
   -1.9008    7.6711   21.1936 H   0  0  0  0  0  0  0  0  0  0  0  0
   -1.3588    9.8956   20.2151 H   0  0  0  0  0  0  0  0  0  0  0  0
   -0.0430   12.4840   22.1640 H   0  0  0  0  0  0  0  0  0  0  0  0
   -0.4989   11.4198   24.1582 H   0  0  0  0  0  0  0  0  0  0  0  0
   -1.0427    9.1933   25.1378 H   0  0  0  0  0  0  0  0  0  0  0  0
  1  2  1  0
  2  3  1  0
  3  4  2  0
  4  5  1  0
  5  6  1  0
  5  7  2  0
  7  8  1  0
  8  9  2  0
  9 10  1  0
 10 11  2  0
 11 12  1  0
 12 13  1  0
 13 14  1  0
 14 15  2  0
 15 16  1  0
 16 17  2  0
 17 18  1  0
 17 19  1  0
 19 20  2  0
 12 21  2  0
  7 22  1  0
 22  3  1  0
 21  8  1  0
 20 14  1  0
  1 23  1  0
  1 24  1  0
  1 25  1  0
  2 26  1  0
  6 27  1  0
  6 28  1  0
  6 29  1  0
  9 30  1  0
 10 31  1  0
 13 32  1  0
 15 33  1  0
 16 34  1  0
 18 35  1  0
 19 36  1  0
 20 37  1  0
M  END
>  <meeko>  (5) 
{"is_sidechain": [false], "free_energy": -7.854, "intermolecular_energy": -9.929, "internal_energy": 0.151}

$$$$
1pxn_ligand
     RDKit          3D

 37 39  0  0  0  0  0  0  0  0999 V2000
    4.4820    9.4220   27.0140 C   0  0  0  0  0  0  0  0  0  0  0  0
    4.1770   10.5940   26.2260 N   0  0  0  0  0  0  0  0  0  0  0  0
    3.0420   10.5950   25.4890 C   0  0  0  0  0  0  0  0  0  0  0  0
    2.6220   11.5950   24.7520 N   0  0  0  0  0  0  0  0  0  0  0  0
    1.4300   11.2720   24.1210 C   0  0  0  0  0  0  0  0  0  0  0  0
    0.8270   12.2900   23.2190 C   0  0  0  0  0  0  0  0  0  0  0  0
    0.9390   10.0080   24.4120 C   0  0  0  0  0  0  0  0  0  0  0  0
   -0.2830    9.3410   23.9790 C   0  0  0  0  0  0  0  0  0  0  0  0
   -1.0880    9.8770   23.0000 C   0  0  0  0  0  0  0  0  0  0  0  0
   -2.1970    9.1360   22.6880 C   0  0  0  0  0  0  0  0  0  0  0  0
   -2.4940    7.9640   23.2770 N   0  0  0  0  0  0  0  0  0  0  0  0
   -1.6570    7.5120   24.2220 C   0  0  0  0  0  0  0  0  0  0  0  0
   -1.8750    6.3130   24.8930 N   0  0  0  0  0  0  0  0  0  0  0  0
   -1.0820    5.4810   25.6890 C   0  0  0  0  0  0  0  0  0  0  0  0
   -1.3800    4.1070   25.7260 C   0  0  0  0  0  0  0  0  0  0  0  0
   -0.6300    3.2200   26.5040 C   0  0  0  0  0  0  0  0  0  0  0  0
    0.4290    3.6990   27.2590 C   0  0  0  0  0  0  0  0  0  0  0  0
    1.1360    2.8060   28.0050 O   0  0  0  0  0  0  0  0  0  0  0  0
    0.7470    5.0500   27.2470 C   0  0  0  0  0  0  0  0  0  0  0  0
   -0.0090    5.9320   26.4650 C   0  0  0  0  0  0  0  0  0  0  0  0
   -0.5500    8.1700   24.5930 N   0  0  0  0  0  0  0  0  0  0  0  0
    2.0270    9.2080   25.4730 S   0  0  0  0  0  0  0  0  0  0  0  0
    4.4169    9.6720   28.0832 H   0  0  0  0  0  0  0  0  0  0  0  0
    3.7614    8.6247   26.7793 H   0  0  0  0  0  0  0  0  0  0  0  0
    5.4998    9.0771   26.7793 H   0  0  0  0  0  0  0  0  0  0  0  0
    4.4350   11.4790   26.6480 H   0  0  0  0  0  0  0  0  0  0  0  0
    0.3580   13.0819   23.8215 H   0  0  0  0  0  0  0  0  0  0  0  0
    1.6114   12.7281   22.5843 H   0  0  0  0  0  0  0  0  0  0  0  0
    0.0659   11.8127   22.5843 H   0  0  0  0  0  0  0  0  0  0  0  0
   -0.8576   10.8314   22.5039 H   0  0  0  0  0  0  0  0  0  0  0  0
   -2.8800    9.5194   21.9157 H   0  0  0  0  0  0  0  0  0  0  0  0
   -2.8240    6.0140   24.7220 H   0  0  0  0  0  0  0  0  0  0  0  0
   -2.2209    3.7222   25.1303 H   0  0  0  0  0  0  0  0  0  0  0  0
   -0.8788    2.1486   26.5168 H   0  0  0  0  0  0  0  0  0  0  0  0
    1.4790    3.2650   28.7900 H   0  0  0  0  0  0  0  0  0  0  0  0
    1.5880    5.4257   27.8483 H   0  0  0  0  0  0  0  0  0  0  0  0
    0.2463    7.0020   26.4608 H   0  0  0  0  0  0  0  0  0  0  0  0
  1  2  1  0
  2  3  1  0
  3  4  2  0
  4  5  1  0
  5  6  1  0
  5  7  2  0
  7  8  1  0
  8  9  2  0
  9 10  1  0
 10 11  2  0
 11 12  1  0
 12 13  1  0
 13 14  1  0
 14 15  2  0
 15 16  1  0
 16 17  2  0
 17 18  1  0
 17 19  1  0
 19 20  2  0
 12 21  2  0
  7 22  1  0
 22  3  1  0
 21  8  1  0
 20 14  1  0
  1 23  1  0
  1 24  1  0
  1 25  1  0
  2 26  1  0
  6 27  1  0
  6 28  1  0
  6 29  1  0
  9 30  1  0
 10 31  1  0
 13 32  1  0
 15 33  1  0
 16 34  1  0
 18 35  1  0
 19 36  1  0
 20 37  1  0
M  END
>  <meeko>  (6) 
{"is_sidechain": [false], "free_energy": -7.817, "intermolecular_energy": -10.004, "internal_energy": 0.272}

$$$$
1pxn_ligand
     RDKit          3D

 37 39  0  0  0  0  0  0  0  0999 V2000
    5.0590    9.9650   27.3080 C   0  0  0  0  0  0  0  0  0  0  0  0
    5.0170    8.6500   27.9040 N   0  0  0  0  0  0  0  0  0  0  0  0
    3.9260    7.8800   27.6850 C   0  0  0  0  0  0  0  0  0  0  0  0
    3.6420    6.7730   28.3290 N   0  0  0  0  0  0  0  0  0  0  0  0
    2.4520    6.2300   27.8690 C   0  0  0  0  0  0  0  0  0  0  0  0
    1.9660    4.9820   28.5150 C   0  0  0  0  0  0  0  0  0  0  0  0
    1.8440    6.9390   26.8440 C   0  0  0  0  0  0  0  0  0  0  0  0
    0.6250    6.6650   26.0910 C   0  0  0  0  0  0  0  0  0  0  0  0
   -0.3140    5.7680   26.5450 C   0  0  0  0  0  0  0  0  0  0  0  0
   -1.4130    5.6190   25.7410 C   0  0  0  0  0  0  0  0  0  0  0  0
   -1.5850    6.2930   24.5900 N   0  0  0  0  0  0  0  0  0  0  0  0
   -0.6210    7.1480   24.2190 C   0  0  0  0  0  0  0  0  0  0  0  0
   -0.7010    7.8920   23.0470 N   0  0  0  0  0  0  0  0  0  0  0  0
   -1.7310    8.5710   22.3880 C   0  0  0  0  0  0  0  0  0  0  0  0
   -1.4240    9.2700   21.2070 C   0  0  0  0  0  0  0  0  0  0  0  0
   -2.4060    9.9720   20.5010 C   0  0  0  0  0  0  0  0  0  0  0  0
   -3.7100    9.9850   20.9720 C   0  0  0  0  0  0  0  0  0  0  0  0
   -4.6380   10.6810   20.2580 O   0  0  0  0  0  0  0  0  0  0  0  0
   -4.0450    9.3080   22.1360 C   0  0  0  0  0  0  0  0  0  0  0  0
   -3.0560    8.6060   22.8370 C   0  0  0  0  0  0  0  0  0  0  0  0
    0.4890    7.3570   24.9420 N   0  0  0  0  0  0  0  0  0  0  0  0
    2.7820    8.3330   26.4850 S   0  0  0  0  0  0  0  0  0  0  0  0
    5.0833   10.7265   28.1014 H   0  0  0  0  0  0  0  0  0  0  0  0
    5.9605   10.0563   26.6844 H   0  0  0  0  0  0  0  0  0  0  0  0
    4.1651   10.1136   26.6844 H   0  0  0  0  0  0  0  0  0  0  0  0
    5.9060    8.1620   27.9410 H   0  0  0  0  0  0  0  0  0  0  0  0
    2.0097    5.0941   29.6084 H   0  0  0  0  0  0  0  0  0  0  0  0
    0.9275    4.7902   28.2072 H   0  0  0  0  0  0  0  0  0  0  0  0
    2.6013    4.1384   28.2072 H   0  0  0  0  0  0  0  0  0  0  0  0
   -0.1912    5.2108   27.4855 H   0  0  0  0  0  0  0  0  0  0  0  0
   -2.1953    4.9114   26.0529 H   0  0  0  0  0  0  0  0  0  0  0  0
    0.2080    7.9000   22.6060 H   0  0  0  0  0  0  0  0  0  0  0  0
   -0.3903    9.2645   20.8309 H   0  0  0  0  0  0  0  0  0  0  0  0
   -2.1456   10.5105   19.5778 H   0  0  0  0  0  0  0  0  0  0  0  0
   -4.4730   10.5310   19.3130 H   0  0  0  0  0  0  0  0  0  0  0  0
   -5.0808    9.3225   22.5060 H   0  0  0  0  0  0  0  0  0  0  0  0
   -3.3265    8.0712   23.7594 H   0  0  0  0  0  0  0  0  0  0  0  0
  1  2  1  0
  2  3  1  0
  3  4  2  0
  4  5  1  0
  5  6  1  0
  5  7  2  0
  7  8  1  0
  8  9  2  0
  9 10  1  0
 10 11  2  0
 11 12  1  0
 12 13  1  0
 13 14  1  0
 14 15  2  0
 15 16  1  0
 16 17  2  0
 17 18  1  0
 17 19  1  0
 19 20  2  0
 12 21  2  0
  7 22  1  0
 22  3  1  0
 21  8  1  0
 20 14  1  0
  1 23  1  0
  1 24  1  0
  1 25  1  0
  2 26  1  0
  6 27  1  0
  6 28  1  0
  6 29  1  0
  9 30  1  0
 10 31  1  0
 13 32  1  0
 15 33  1  0
 16 34  1  0
 18 35  1  0
 19 36  1  0
 20 37  1  0
M  END
>  <meeko>  (7) 
{"is_sidechain": [false], "free_energy": -7.778, "intermolecular_energy": -9.8, "internal_energy": 0.119}

$$$$
1pxn_ligand
     RDKit          3D

 37 39  0  0  0  0  0  0  0  0999 V2000
    2.0690   12.3990   23.8680 C   0  0  0  0  0  0  0  0  0  0  0  0
    0.7510   12.1350   23.3370 N   0  0  0  0  0  0  0  0  0  0  0  0
    0.1920   10.9270   23.5790 C   0  0  0  0  0  0  0  0  0  0  0  0
   -0.8860   10.4640   22.9920 N   0  0  0  0  0  0  0  0  0  0  0  0
   -1.1920    9.1950   23.4590 C   0  0  0  0  0  0  0  0  0  0  0  0
   -2.3750    8.5080   22.8740 C   0  0  0  0  0  0  0  0  0  0  0  0
   -0.3330    8.7090   24.4330 C   0  0  0  0  0  0  0  0  0  0  0  0
   -0.3530    7.4550   25.1780 C   0  0  0  0  0  0  0  0  0  0  0  0
   -1.3230    6.5040   24.9600 C   0  0  0  0  0  0  0  0  0  0  0  0
   -1.2100    5.3720   25.7240 C   0  0  0  0  0  0  0  0  0  0  0  0
   -0.2290    5.1800   26.6230 N   0  0  0  0  0  0  0  0  0  0  0  0
    0.6770    6.1570   26.7750 C   0  0  0  0  0  0  0  0  0  0  0  0
    1.7290    6.0590   27.6790 N   0  0  0  0  0  0  0  0  0  0  0  0
    2.8690    6.8250   27.9390 C   0  0  0  0  0  0  0  0  0  0  0  0
    3.5060    6.6780   29.1830 C   0  0  0  0  0  0  0  0  0  0  0  0
    4.6480    7.4150   29.5100 C   0  0  0  0  0  0  0  0  0  0  0  0
    5.1670    8.3160   28.5910 C   0  0  0  0  0  0  0  0  0  0  0  0
    6.2790    9.0170   28.9440 O   0  0  0  0  0  0  0  0  0  0  0  0
    4.5590    8.4880   27.3550 C   0  0  0  0  0  0  0  0  0  0  0  0
    3.4160    7.7440   27.0360 C   0  0  0  0  0  0  0  0  0  0  0  0
    0.6440    7.2990   26.0720 N   0  0  0  0  0  0  0  0  0  0  0  0
    0.9000    9.8670   24.7310 S   0  0  0  0  0  0  0  0  0  0  0  0
    2.0298   12.3911   24.9673 H   0  0  0  0  0  0  0  0  0  0  0  0
    2.7666   11.6227   23.5204 H   0  0  0  0  0  0  0  0  0  0  0  0
    2.4138   13.3840   23.5204 H   0  0  0  0  0  0  0  0  0  0  0  0
    0.1180   12.9270   23.3360 H   0  0  0  0  0  0  0  0  0  0  0  0
   -3.0192    8.1339   23.6834 H   0  0  0  0  0  0  0  0  0  0  0  0
   -2.9413    9.2178   22.2531 H   0  0  0  0  0  0  0  0  0  0  0  0
   -2.0392    7.6644   22.2531 H   0  0  0  0  0  0  0  0  0  0  0  0
   -2.1305    6.6422   24.2259 H   0  0  0  0  0  0  0  0  0  0  0  0
   -1.9613    4.5789   25.5950 H   0  0  0  0  0  0  0  0  0  0  0  0
    1.6010    5.2260   28.2350 H   0  0  0  0  0  0  0  0  0  0  0  0
    3.0968    5.9671   29.9159 H   0  0  0  0  0  0  0  0  0  0  0  0
    5.1318    7.2817   30.4889 H   0  0  0  0  0  0  0  0  0  0  0  0
    6.2610    9.1570   29.9050 H   0  0  0  0  0  0  0  0  0  0  0  0
    4.9726    9.2046   26.6301 H   0  0  0  0  0  0  0  0  0  0  0  0
    2.9382    7.8849   26.0553 H   0  0  0  0  0  0  0  0  0  0  0  0
  1  2  1  0
  2  3  1  0
  3  4  2  0
  4  5  1  0
  5  6  1  0
  5  7  2  0
  7  8  1  0
  8  9  2  0
  9 10  1  0
 10 11  2  0
 11 12  1  0
 12 13  1  0
 13 14  1  0
 14 15  2  0
 15 16  1  0
 16 17  2  0
 17 18  1  0
 17 19  1  0
 19 20  2  0
 12 21  2  0
  7 22  1  0
 22  3  1  0
 21  8  1  0
 20 14  1  0
  1 23  1  0
  1 24  1  0
  1 25  1  0
  2 26  1  0
  6 27  1  0
  6 28  1  0
  6 29  1  0
  9 30  1  0
 10 31  1  0
 13 32  1  0
 15 33  1  0
 16 34  1  0
 18 35  1  0
 19 36  1  0
 20 37  1  0
M  END
>  <meeko>  (8) 
{"is_sidechain": [false], "free_energy": -7.685, "intermolecular_energy": -9.838, "internal_energy": 0.274}

$$$$
1pxn_ligand
     RDKit          3D

 37 39  0  0  0  0  0  0  0  0999 V2000
   -3.4950   10.2520   21.6130 C   0  0  0  0  0  0  0  0  0  0  0  0
   -2.2650   10.7930   22.1430 N   0  0  0  0  0  0  0  0  0  0  0  0
   -1.5580   10.0430   23.0190 C   0  0  0  0  0  0  0  0  0  0  0  0
   -0.4490   10.4180   23.6110 N   0  0  0  0  0  0  0  0  0  0  0  0
    0.0200    9.4200   24.4520 C   0  0  0  0  0  0  0  0  0  0  0  0
    1.2600    9.6940   25.2260 C   0  0  0  0  0  0  0  0  0  0  0  0
   -0.7470    8.2650   24.4710 C   0  0  0  0  0  0  0  0  0  0  0  0
   -0.5550    7.0090   25.1880 C   0  0  0  0  0  0  0  0  0  0  0  0
   -1.2630    5.8770   24.8580 C   0  0  0  0  0  0  0  0  0  0  0  0
   -0.9720    4.7690   25.6090 C   0  0  0  0  0  0  0  0  0  0  0  0
   -0.0610    4.7640   26.5980 N   0  0  0  0  0  0  0  0  0  0  0  0
    0.5850    5.9100   26.8570 C   0  0  0  0  0  0  0  0  0  0  0  0
    1.5440    6.0120   27.8590 N   0  0  0  0  0  0  0  0  0  0  0  0
    2.7110    6.7630   28.0230 C   0  0  0  0  0  0  0  0  0  0  0  0
    3.4070    6.6630   29.2400 C   0  0  0  0  0  0  0  0  0  0  0  0
    4.5800    7.3890   29.4710 C   0  0  0  0  0  0  0  0  0  0  0  0
    5.0690    8.2300   28.4830 C   0  0  0  0  0  0  0  0  0  0  0  0
    6.2120    8.9220   28.7440 O   0  0  0  0  0  0  0  0  0  0  0  0
    4.4040    8.3540   27.2710 C   0  0  0  0  0  0  0  0  0  0  0  0
    3.2310    7.6220   27.0480 C   0  0  0  0  0  0  0  0  0  0  0  0
    0.3640    7.0430   26.1740 N   0  0  0  0  0  0  0  0  0  0  0  0
   -2.1010    8.4660   23.4330 S   0  0  0  0  0  0  0  0  0  0  0  0
   -4.1555    9.9615   22.4432 H   0  0  0  0  0  0  0  0  0  0  0  0
   -3.9947   11.0134   20.9961 H   0  0  0  0  0  0  0  0  0  0  0  0
   -3.2715    9.3691   20.9961 H   0  0  0  0  0  0  0  0  0  0  0  0
   -1.7210   11.3500   21.4930 H   0  0  0  0  0  0  0  0  0  0  0  0
    1.0387    9.6451   26.3024 H   0  0  0  0  0  0  0  0  0  0  0  0
    2.0230    8.9428   24.9740 H   0  0  0  0  0  0  0  0  0  0  0  0
    1.6355   10.6968   24.9740 H   0  0  0  0  0  0  0  0  0  0  0  0
   -2.0089    5.8625   24.0496 H   0  0  0  0  0  0  0  0  0  0  0  0
   -1.5114    3.8352   25.3918 H   0  0  0  0  0  0  0  0  0  0  0  0
    1.3050    5.3700   28.6020 H   0  0  0  0  0  0  0  0  0  0  0  0
    3.0209    5.9995   30.0278 H   0  0  0  0  0  0  0  0  0  0  0  0
    5.1108    7.2934   30.4297 H   0  0  0  0  0  0  0  0  0  0  0  0
    6.2470    9.1100   29.6960 H   0  0  0  0  0  0  0  0  0  0  0  0
    4.7958    9.0229   26.4906 H   0  0  0  0  0  0  0  0  0  0  0  0
    2.7073    7.7244   26.0861 H   0  0  0  0  0  0  0  0  0  0  0  0
  1  2  1  0
  2  3  1  0
  3  4  2  0
  4  5  1  0
  5  6  1  0
  5  7  2  0
  7  8  1  0
  8  9  2  0
  9 10  1  0
 10 11  2  0
 11 12  1  0
 12 13  1  0
 13 14  1  0
 14 15  2  0
 15 16  1  0
 16 17  2  0
 17 18  1  0
 17 19  1  0
 19 20  2  0
 12 21  2  0
  7 22  1  0
 22  3  1  0
 21  8  1  0
 20 14  1  0
  1 23  1  0
  1 24  1  0
  1 25  1  0
  2 26  1  0
  6 27  1  0
  6 28  1  0
  6 29  1  0
  9 30  1  0
 10 31  1  0
 13 32  1  0
 15 33  1  0
 16 34  1  0
 18 35  1  0
 19 36  1  0
 20 37  1  0
M  END
>  <meeko>  (9) 
{"is_sidechain": [false], "free_energy": -7.64, "intermolecular_energy": -9.811, "internal_energy": 0.303}

$$$$
