2wtv_ligand
     RDKit          3D

 48 52  0  0  0  0  0  0  0  0999 V2000
    9.2140   -2.7010    0.1090 O   0  0  0  0  0  0  0  0  0  0  0  0
    8.9360   -3.9430    0.0890 C   0  0  0  0  0  0  0  0  0  0  0  0
    9.7690   -4.8920    0.2420 O   0  0  0  0  0  0  0  0  0  0  0  0
    7.4850   -4.3210   -0.1390 C   0  0  0  0  0  0  0  0  0  0  0  0
    6.4600   -3.7300    0.6090 C   0  0  0  0  0  0  0  0  0  0  0  0
    5.1210   -4.0830    0.3990 C   0  0  0  0  0  0  0  0  0  0  0  0
    4.7570   -5.0380   -0.5650 C   0  0  0  0  0  0  0  0  0  0  0  0
    3.4000   -5.3470   -0.7140 N   0  0  0  0  0  0  0  0  0  0  0  0
    2.6600   -6.0460   -1.6610 C   0  0  0  0  0  0  0  0  0  0  0  0
    1.3340   -5.9110   -1.7760 N   0  0  0  0  0  0  0  0  0  0  0  0
    0.7150   -6.6320   -2.7270 C   0  0  0  0  0  0  0  0  0  0  0  0
    1.3700   -7.4810   -3.5870 C   0  0  0  0  0  0  0  0  0  0  0  0
    2.7330   -7.5740   -3.4010 C   0  0  0  0  0  0  0  0  0  0  0  0
    3.3810   -6.8560   -2.4540 N   0  0  0  0  0  0  0  0  0  0  0  0
    3.5910   -8.4200   -4.2560 C   0  0  0  0  0  0  0  0  0  0  0  0
    4.8790   -7.9550   -4.6070 C   0  0  0  0  0  0  0  0  0  0  0  0
    5.7250   -8.6880   -5.4440 C   0  0  0  0  0  0  0  0  0  0  0  0
    5.2960   -9.9040   -5.9550 C   0  0  0  0  0  0  0  0  0  0  0  0
    6.3250  -10.8050   -7.0000 Cl  0  0  0  0  0  0  0  0  0  0  0  0
    4.0390  -10.3990   -5.6270 C   0  0  0  0  0  0  0  0  0  0  0  0
    3.1910   -9.6740   -4.7690 C   0  0  0  0  0  0  0  0  0  0  0  0
    1.8730  -10.3030   -4.4190 C   0  0  0  0  0  0  0  0  0  0  0  0
    1.8650  -11.7490   -4.0790 C   0  0  0  0  0  0  0  0  0  0  0  0
    1.3050  -12.6770   -4.9550 C   0  0  0  0  0  0  0  0  0  0  0  0
    0.7450  -12.2830   -6.1080 F   0  0  0  0  0  0  0  0  0  0  0  0
    1.3140  -14.0390   -4.6540 C   0  0  0  0  0  0  0  0  0  0  0  0
    1.8940  -14.4830   -3.4660 C   0  0  0  0  0  0  0  0  0  0  0  0
    2.4570  -13.5590   -2.5830 C   0  0  0  0  0  0  0  0  0  0  0  0
    2.4430  -12.2000   -2.8940 C   0  0  0  0  0  0  0  0  0  0  0  0
    2.9550  -11.3390   -2.0030 F   0  0  0  0  0  0  0  0  0  0  0  0
    0.7350   -9.6940   -4.3740 N   0  0  0  0  0  0  0  0  0  0  0  0
    0.6670   -8.2640   -4.6410 C   0  0  0  0  0  0  0  0  0  0  0  0
    5.7820   -5.6250   -1.3100 C   0  0  0  0  0  0  0  0  0  0  0  0
    7.1240   -5.2730   -1.1020 C   0  0  0  0  0  0  0  0  0  0  0  0
    6.7096   -2.9781    1.3721 H   0  0  0  0  0  0  0  0  0  0  0  0
    4.3370   -3.6019    1.0022 H   0  0  0  0  0  0  0  0  0  0  0  0
    2.7820   -4.9920   -0.0020 H   0  0  0  0  0  0  0  0  0  0  0  0
   -0.3768   -6.5372   -2.8222 H   0  0  0  0  0  0  0  0  0  0  0  0
    5.2251   -6.9892   -4.2103 H   0  0  0  0  0  0  0  0  0  0  0  0
    6.7242   -8.3031   -5.6958 H   0  0  0  0  0  0  0  0  0  0  0  0
    3.7054  -11.3623   -6.0402 H   0  0  0  0  0  0  0  0  0  0  0  0
    0.8648  -14.7610   -5.3519 H   0  0  0  0  0  0  0  0  0  0  0  0
    1.9080  -15.5563   -3.2255 H   0  0  0  0  0  0  0  0  0  0  0  0
    2.9114  -13.9034   -1.6423 H   0  0  0  0  0  0  0  0  0  0  0  0
    1.1380   -8.0586   -5.6136 H   0  0  0  0  0  0  0  0  0  0  0  0
   -0.3910   -7.9629   -4.6486 H   0  0  0  0  0  0  0  0  0  0  0  0
    5.5327   -6.3767   -2.0734 H   0  0  0  0  0  0  0  0  0  0  0  0
    7.9077   -5.7533   -1.7062 H   0  0  0  0  0  0  0  0  0  0  0  0
  1  2  2  0
  2  3  1  0
  2  4  1  0
  4  5  2  0
  5  6  1  0
  6  7  2  0
  7  8  1  0
  8  9  1  0
  9 10  2  0
 10 11  1  0
 11 12  2  0
 12 13  1  0
 13 14  2  0
 13 15  1  0
 15 16  2  0
 16 17  1  0
 17 18  2  0
 18 19  1  0
 18 20  1  0
 20 21  2  0
 21 22  1  0
 22 23  1  0
 23 24  2  0
 24 25  1  0
 24 26  1  0
 26 27  2  0
 27 28  1  0
 28 29  2  0
 29 30  1  0
 22 31  2  0
 31 32  1  0
  7 33  1  0
 33 34  2  0
 34  4  1  0
 14  9  1  0
 21 15  1  0
 29 23  1  0
 32 12  1  0
  5 35  1  0
  6 36  1  0
  8 37  1  0
 11 38  1  0
 16 39  1  0
 17 40  1  0
 20 41  1  0
 26 42  1  0
 27 43  1  0
 28 44  1  0
 32 45  1  0
 32 46  1  0
 33 47  1  0
 34 48  1  0
M  CHG  1   3  -1
M  END
>  <meeko>  (1) 
{"is_sidechain": [false], "free_energy": -11.582, "intermolecular_energy": -14.291, "internal_energy": -0.855}

$$$$
2wtv_ligand
     RDKit          3D

 48 52  0  0  0  0  0  0  0  0999 V2000
    9.3830   -3.3360    0.5810 O   0  0  0  0  0  0  0  0  0  0  0  0
    9.0270   -4.2560   -0.2230 C   0  0  0  0  0  0  0  0  0  0  0  0
    9.8080   -4.9590   -0.9390 O   0  0  0  0  0  0  0  0  0  0  0  0
    7.5410   -4.5390   -0.3330 C   0  0  0  0  0  0  0  0  0  0  0  0
    7.0520   -5.4830   -1.2440 C   0  0  0  0  0  0  0  0  0  0  0  0
    5.6790   -5.7400   -1.3460 C   0  0  0  0  0  0  0  0  0  0  0  0
    4.7450   -5.0650   -0.5430 C   0  0  0  0  0  0  0  0  0  0  0  0
    3.3880   -5.3680   -0.7050 N   0  0  0  0  0  0  0  0  0  0  0  0
    2.6530   -6.0590   -1.6610 C   0  0  0  0  0  0  0  0  0  0  0  0
    1.3270   -5.9270   -1.7800 N   0  0  0  0  0  0  0  0  0  0  0  0
    0.7130   -6.6400   -2.7400 C   0  0  0  0  0  0  0  0  0  0  0  0
    1.3740   -7.4790   -3.6050 C   0  0  0  0  0  0  0  0  0  0  0  0
    2.7360   -7.5710   -3.4160 C   0  0  0  0  0  0  0  0  0  0  0  0
    3.3800   -6.8600   -2.4590 N   0  0  0  0  0  0  0  0  0  0  0  0
    3.6000   -8.4050   -4.2760 C   0  0  0  0  0  0  0  0  0  0  0  0
    4.8880   -7.9340   -4.6180 C   0  0  0  0  0  0  0  0  0  0  0  0
    5.7390   -8.6560   -5.4590 C   0  0  0  0  0  0  0  0  0  0  0  0
    5.3150   -9.8680   -5.9830 C   0  0  0  0  0  0  0  0  0  0  0  0
    6.3490  -10.7560   -7.0340 Cl  0  0  0  0  0  0  0  0  0  0  0  0
    4.0580  -10.3700   -5.6650 C   0  0  0  0  0  0  0  0  0  0  0  0
    3.2050   -9.6560   -4.8020 C   0  0  0  0  0  0  0  0  0  0  0  0
    1.8870  -10.2910   -4.4630 C   0  0  0  0  0  0  0  0  0  0  0  0
    1.8830  -11.7400   -4.1380 C   0  0  0  0  0  0  0  0  0  0  0  0
    2.4380  -12.1990   -2.9440 C   0  0  0  0  0  0  0  0  0  0  0  0
    3.0020  -11.3460   -2.0770 F   0  0  0  0  0  0  0  0  0  0  0  0
    2.4170  -13.5550   -2.6210 C   0  0  0  0  0  0  0  0  0  0  0  0
    1.8310  -14.4680   -3.4980 C   0  0  0  0  0  0  0  0  0  0  0  0
    1.2740  -14.0180   -4.6960 C   0  0  0  0  0  0  0  0  0  0  0  0
    1.2990  -12.6580   -5.0090 C   0  0  0  0  0  0  0  0  0  0  0  0
    0.7920  -12.2690   -6.1870 F   0  0  0  0  0  0  0  0  0  0  0  0
    0.7480   -9.6860   -4.4160 N   0  0  0  0  0  0  0  0  0  0  0  0
    0.6760   -8.2530   -4.6700 C   0  0  0  0  0  0  0  0  0  0  0  0
    5.2370   -4.1250    0.3650 C   0  0  0  0  0  0  0  0  0  0  0  0
    6.6110   -3.8650    0.4700 C   0  0  0  0  0  0  0  0  0  0  0  0
    7.7557   -6.0303   -1.8884 H   0  0  0  0  0  0  0  0  0  0  0  0
    5.3242   -6.4872   -2.0712 H   0  0  0  0  0  0  0  0  0  0  0  0
    2.7650   -5.0130    0.0030 H   0  0  0  0  0  0  0  0  0  0  0  0
   -0.3786   -6.5468   -2.8387 H   0  0  0  0  0  0  0  0  0  0  0  0
    5.2304   -6.9714   -4.2104 H   0  0  0  0  0  0  0  0  0  0  0  0
    6.7380   -8.2658   -5.7036 H   0  0  0  0  0  0  0  0  0  0  0  0
    3.7284  -11.3297   -6.0897 H   0  0  0  0  0  0  0  0  0  0  0  0
    2.8613  -13.9041   -1.6772 H   0  0  0  0  0  0  0  0  0  0  0  0
    1.8080  -15.5386   -3.2463 H   0  0  0  0  0  0  0  0  0  0  0  0
    0.8155  -14.7348   -5.3932 H   0  0  0  0  0  0  0  0  0  0  0  0
    1.1494   -8.0366   -5.6390 H   0  0  0  0  0  0  0  0  0  0  0  0
   -0.3827   -7.9546   -4.6790 H   0  0  0  0  0  0  0  0  0  0  0  0
    4.5335   -3.5782    1.0100 H   0  0  0  0  0  0  0  0  0  0  0  0
    6.9653   -3.1184    1.1959 H   0  0  0  0  0  0  0  0  0  0  0  0
  1  2  2  0
  2  3  1  0
  2  4  1  0
  4  5  2  0
  5  6  1  0
  6  7  2  0
  7  8  1  0
  8  9  1  0
  9 10  2  0
 10 11  1  0
 11 12  2  0
 12 13  1  0
 13 14  2  0
 13 15  1  0
 15 16  2  0
 16 17  1  0
 17 18  2  0
 18 19  1  0
 18 20  1  0
 20 21  2  0
 21 22  1  0
 22 23  1  0
 23 24  2  0
 24 25  1  0
 24 26  1  0
 26 27  2  0
 27 28  1  0
 28 29  2  0
 29 30  1  0
 22 31  2  0
 31 32  1  0
  7 33  1  0
 33 34  2  0
 34  4  1  0
 14  9  1  0
 21 15  1  0
 29 23  1  0
 32 12  1  0
  5 35  1  0
  6 36  1  0
  8 37  1  0
 11 38  1  0
 16 39  1  0
 17 40  1  0
 20 41  1  0
 26 42  1  0
 27 43  1  0
 28 44  1  0
 32 45  1  0
 32 46  1  0
 33 47  1  0
 34 48  1  0
M  CHG  1   3  -1
M  END
>  <meeko>  (2) 
{"is_sidechain": [false], "free_energy": -11.526, "intermolecular_energy": -14.329, "internal_energy": -0.746}

$$$$
