2hb1_ligand
     RDKit          3D

 17 17  0  0  0  0  0  0  0  0999 V2000
   44.6480   17.3590   -1.1360 O   0  0  0  0  0  0  0  0  0  0  0  0
   44.1880   16.4420   -0.3870 C   0  0  0  0  0  0  0  0  0  0  0  0
   43.4760   15.4490   -0.7310 O   0  0  0  0  0  0  0  0  0  0  0  0
   44.4740   16.5990    1.1220 C   0  0  0  0  0  0  0  0  0  0  0  0
   44.0390   15.4380    1.8650 O   0  0  0  0  0  0  0  0  0  0  0  0
   45.0650   14.8430    2.5230 C   0  0  0  0  0  0  0  0  0  0  0  0
   45.5440   13.5380    2.2150 C   0  0  0  0  0  0  0  0  0  0  0  0
   44.8300   12.4520    0.8400 Br  0  0  0  0  0  0  0  0  0  0  0  0
   46.5700   13.1290    3.0280 C   0  0  0  0  0  0  0  0  0  0  0  0
   46.9250   14.2980    4.2190 S   0  0  0  0  0  0  0  0  0  0  0  0
   45.6940   15.3620    3.6430 C   0  0  0  0  0  0  0  0  0  0  0  0
   45.3940   16.7370    4.3850 C   0  0  0  0  0  0  0  0  0  0  0  0
   44.3350   16.8470    5.0760 O   0  0  0  0  0  0  0  0  0  0  0  0
   46.2560   17.6640    4.2190 O   0  0  0  0  0  0  0  0  0  0  0  0
   45.5558   16.7333    1.2691 H   0  0  0  0  0  0  0  0  0  0  0  0
   43.9182   17.4739    1.4904 H   0  0  0  0  0  0  0  0  0  0  0  0
   47.0972   12.1690    2.9253 H   0  0  0  0  0  0  0  0  0  0  0  0
  1  2  2  0
  2  3  1  0
  2  4  1  0
  4  5  1  0
  5  6  1  0
  6  7  1  0
  7  8  1  0
  7  9  2  0
  9 10  1  0
 10 11  1  0
 11 12  1  0
 12 13  2  0
 12 14  1  0
 11  6  2  0
  4 15  1  0
  4 16  1  0
  9 17  1  0
M  CHG  2   3  -1  14  -1
M  END
>  <meeko>  (1) 
{"is_sidechain": [false], "free_energy": -6.265, "intermolecular_energy": -7.73, "internal_energy": -0.262}

$$$$
2hb1_ligand
     RDKit          3D

 17 17  0  0  0  0  0  0  0  0999 V2000
   47.2530   17.7650    4.4480 O   0  0  0  0  0  0  0  0  0  0  0  0
   46.2320   17.0390    4.2420 C   0  0  0  0  0  0  0  0  0  0  0  0
   45.0730   17.1760    4.7410 O   0  0  0  0  0  0  0  0  0  0  0  0
   46.4540   15.8080    3.3360 C   0  0  0  0  0  0  0  0  0  0  0  0
   45.2750   14.9730    3.2830 O   0  0  0  0  0  0  0  0  0  0  0  0
   45.1030   14.4180    2.0580 C   0  0  0  0  0  0  0  0  0  0  0  0
   45.5440   13.1060    1.7210 C   0  0  0  0  0  0  0  0  0  0  0  0
   46.4180   11.9460    2.9340 Br  0  0  0  0  0  0  0  0  0  0  0  0
   45.2890   12.7640    0.4180 C   0  0  0  0  0  0  0  0  0  0  0  0
   44.5690   14.0540   -0.4360 S   0  0  0  0  0  0  0  0  0  0  0  0
   44.5980   15.0810    0.9510 C   0  0  0  0  0  0  0  0  0  0  0  0
   44.0940   16.5880    0.8580 C   0  0  0  0  0  0  0  0  0  0  0  0
   44.7720   17.4250    0.1890 O   0  0  0  0  0  0  0  0  0  0  0  0
   43.0190   16.8600    1.4930 O   0  0  0  0  0  0  0  0  0  0  0  0
   46.6958   16.1509    2.3192 H   0  0  0  0  0  0  0  0  0  0  0  0
   47.2802   15.2145    3.7544 H   0  0  0  0  0  0  0  0  0  0  0  0
   45.5194   11.7822   -0.0213 H   0  0  0  0  0  0  0  0  0  0  0  0
  1  2  2  0
  2  3  1  0
  2  4  1  0
  4  5  1  0
  5  6  1  0
  6  7  1  0
  7  8  1  0
  7  9  2  0
  9 10  1  0
 10 11  1  0
 11 12  1  0
 12 13  2  0
 12 14  1  0
 11  6  2  0
  4 15  1  0
  4 16  1  0
  9 17  1  0
M  CHG  2   3  -1  14  -1
M  END
>  <meeko>  (2) 
{"is_sidechain": [false], "free_energy": -6.084, "intermolecular_energy": -7.452, "internal_energy": -0.317}

$$$$
2hb1_ligand
     RDKit          3D

 17 17  0  0  0  0  0  0  0  0999 V2000
   45.0460   17.2620    4.5760 O   0  0  0  0  0  0  0  0  0  0  0  0
   46.0840   16.5310    4.5550 C   0  0  0  0  0  0  0  0  0  0  0  0
   47.0390   16.5200    5.3910 O   0  0  0  0  0  0  0  0  0  0  0  0
   46.2260   15.6000    3.3310 C   0  0  0  0  0  0  0  0  0  0  0  0
   45.0290   14.8170    3.1220 O   0  0  0  0  0  0  0  0  0  0  0  0
   44.9560   14.3330    1.8570 C   0  0  0  0  0  0  0  0  0  0  0  0
   45.4360   13.0460    1.4800 C   0  0  0  0  0  0  0  0  0  0  0  0
   46.2320   11.8250    2.6860 Br  0  0  0  0  0  0  0  0  0  0  0  0
   45.2840   12.7790    0.1430 C   0  0  0  0  0  0  0  0  0  0  0  0
   44.6140   14.1110   -0.6860 S   0  0  0  0  0  0  0  0  0  0  0  0
   44.5260   15.0560    0.7560 C   0  0  0  0  0  0  0  0  0  0  0  0
   44.0120   16.5610    0.7120 C   0  0  0  0  0  0  0  0  0  0  0  0
   43.0690   16.9130    1.4830 O   0  0  0  0  0  0  0  0  0  0  0  0
   44.5920   17.3280   -0.1280 O   0  0  0  0  0  0  0  0  0  0  0  0
   46.4144   16.2115    2.4362 H   0  0  0  0  0  0  0  0  0  0  0  0
   47.0628   14.9104    3.5159 H   0  0  0  0  0  0  0  0  0  0  0  0
   45.5592   11.8268   -0.3340 H   0  0  0  0  0  0  0  0  0  0  0  0
  1  2  2  0
  2  3  1  0
  2  4  1  0
  4  5  1  0
  5  6  1  0
  6  7  1  0
  7  8  1  0
  7  9  2  0
  9 10  1  0
 10 11  1  0
 11 12  1  0
 12 13  2  0
 12 14  1  0
 11  6  2  0
  4 15  1  0
  4 16  1  0
  9 17  1  0
M  CHG  2   3  -1  14  -1
M  END
>  <meeko>  (3) 
{"is_sidechain": [false], "free_energy": -5.684, "intermolecular_energy": -6.989, "internal_energy": -0.287}

$$$$
2hb1_ligand
     RDKit          3D

 17 17  0  0  0  0  0  0  0  0999 V2000
   46.0930   17.3350    5.1680 O   0  0  0  0  0  0  0  0  0  0  0  0
   47.2160   16.9050    4.7580 C   0  0  0  0  0  0  0  0  0  0  0  0
   48.3690   17.3220    5.0840 O   0  0  0  0  0  0  0  0  0  0  0  0
   47.1590   15.7930    3.6890 C   0  0  0  0  0  0  0  0  0  0  0  0
   45.9070   15.0720    3.7430 O   0  0  0  0  0  0  0  0  0  0  0  0
   45.4790   14.7080    2.5090 C   0  0  0  0  0  0  0  0  0  0  0  0
   44.7010   15.5520    1.6660 C   0  0  0  0  0  0  0  0  0  0  0  0
   44.1640   17.3030    2.1390 Br  0  0  0  0  0  0  0  0  0  0  0  0
   44.3580   14.9650    0.4750 C   0  0  0  0  0  0  0  0  0  0  0  0
   44.9200   13.3570    0.3880 S   0  0  0  0  0  0  0  0  0  0  0  0
   45.6310   13.4450    1.9590 C   0  0  0  0  0  0  0  0  0  0  0  0
   46.3370   12.1740    2.6050 C   0  0  0  0  0  0  0  0  0  0  0  0
   46.8570   12.2770    3.7570 O   0  0  0  0  0  0  0  0  0  0  0  0
   46.3420   11.1130    1.8940 O   0  0  0  0  0  0  0  0  0  0  0  0
   47.2671   16.2480    2.6934 H   0  0  0  0  0  0  0  0  0  0  0  0
   47.9758   15.0828    3.8849 H   0  0  0  0  0  0  0  0  0  0  0  0
   43.7921   15.4676   -0.3232 H   0  0  0  0  0  0  0  0  0  0  0  0
  1  2  2  0
  2  3  1  0
  2  4  1  0
  4  5  1  0
  5  6  1  0
  6  7  1  0
  7  8  1  0
  7  9  2  0
  9 10  1  0
 10 11  1  0
 11 12  1  0
 12 13  2  0
 12 14  1  0
 11  6  2  0
  4 15  1  0
  4 16  1  0
  9 17  1  0
M  CHG  2   3  -1  14  -1
M  END
>  <meeko>  (4) 
{"is_sidechain": [false], "free_energy": -5.313, "intermolecular_energy": -6.666, "internal_energy": -0.152}

$$$$
2hb1_ligand
     RDKit          3D

 17 17  0  0  0  0  0  0  0  0999 V2000
   44.5110   11.4480    1.0320 O   0  0  0  0  0  0  0  0  0  0  0  0
   44.9240   12.1880    0.0860 C   0  0  0  0  0  0  0  0  0  0  0  0
   45.4620   11.8200   -1.0030 O   0  0  0  0  0  0  0  0  0  0  0  0
   44.8220   13.7090    0.3280 C   0  0  0  0  0  0  0  0  0  0  0  0
   44.3840   14.0010    1.6750 O   0  0  0  0  0  0  0  0  0  0  0  0
   45.2440   14.8290    2.3180 C   0  0  0  0  0  0  0  0  0  0  0  0
   46.3380   14.3690    3.1050 C   0  0  0  0  0  0  0  0  0  0  0  0
   46.7570   12.5410    3.3560 Br  0  0  0  0  0  0  0  0  0  0  0  0
   47.0550   15.3830    3.6860 C   0  0  0  0  0  0  0  0  0  0  0  0
   46.3740   16.9070    3.3360 S   0  0  0  0  0  0  0  0  0  0  0  0
   45.1060   16.2060    2.3990 C   0  0  0  0  0  0  0  0  0  0  0  0
   43.9660   17.1150    1.7630 C   0  0  0  0  0  0  0  0  0  0  0  0
   43.6920   18.2290    2.3030 O   0  0  0  0  0  0  0  0  0  0  0  0
   43.3800   16.6400    0.7320 O   0  0  0  0  0  0  0  0  0  0  0  0
   45.8103   14.1641    0.1665 H   0  0  0  0  0  0  0  0  0  0  0  0
   44.0825   14.1223   -0.3736 H   0  0  0  0  0  0  0  0  0  0  0  0
   47.9552   15.2327    4.3000 H   0  0  0  0  0  0  0  0  0  0  0  0
  1  2  2  0
  2  3  1  0
  2  4  1  0
  4  5  1  0
  5  6  1  0
  6  7  1  0
  7  8  1  0
  7  9  2  0
  9 10  1  0
 10 11  1  0
 11 12  1  0
 12 13  2  0
 12 14  1  0
 11  6  2  0
  4 15  1  0
  4 16  1  0
  9 17  1  0
M  CHG  2   3  -1  14  -1
M  END
>  <meeko>  (5) 
{"is_sidechain": [false], "free_energy": -5.136, "intermolecular_energy": -6.548, "internal_energy": -0.052}

$$$$
2hb1_ligand
     RDKit          3D

 17 17  0  0  0  0  0  0  0  0999 V2000
   44.5780   17.2890   -0.8440 O   0  0  0  0  0  0  0  0  0  0  0  0
   44.1200   16.5520    0.0840 C   0  0  0  0  0  0  0  0  0  0  0  0
   43.3330   16.8900    1.0210 O   0  0  0  0  0  0  0  0  0  0  0  0
   44.6410   15.0990    0.1090 C   0  0  0  0  0  0  0  0  0  0  0  0
   44.1010   14.3650    1.2310 O   0  0  0  0  0  0  0  0  0  0  0  0
   45.0560   13.6470    1.8720 C   0  0  0  0  0  0  0  0  0  0  0  0
   45.8840   14.1830    2.9000 C   0  0  0  0  0  0  0  0  0  0  0  0
   45.7640   15.9650    3.5260 Br  0  0  0  0  0  0  0  0  0  0  0  0
   46.7990   13.2850    3.3860 C   0  0  0  0  0  0  0  0  0  0  0  0
   46.7110   11.7960    2.5580 S   0  0  0  0  0  0  0  0  0  0  0  0
   45.4360   12.3570    1.5380 C   0  0  0  0  0  0  0  0  0  0  0  0
   44.8500   11.4320    0.3840 C   0  0  0  0  0  0  0  0  0  0  0  0
   44.7140   11.9130   -0.7820 O   0  0  0  0  0  0  0  0  0  0  0  0
   44.5380   10.2410    0.7230 O   0  0  0  0  0  0  0  0  0  0  0  0
   44.3448   14.5964   -0.8236 H   0  0  0  0  0  0  0  0  0  0  0  0
   45.7363   15.1253    0.2070 H   0  0  0  0  0  0  0  0  0  0  0  0
   47.5009   13.4977    4.2059 H   0  0  0  0  0  0  0  0  0  0  0  0
  1  2  2  0
  2  3  1  0
  2  4  1  0
  4  5  1  0
  5  6  1  0
  6  7  1  0
  7  8  1  0
  7  9  2  0
  9 10  1  0
 10 11  1  0
 11 12  1  0
 12 13  2  0
 12 14  1  0
 11  6  2  0
  4 15  1  0
  4 16  1  0
  9 17  1  0
M  CHG  2   3  -1  14  -1
M  END
>  <meeko>  (6) 
{"is_sidechain": [false], "free_energy": -4.689, "intermolecular_energy": -5.806, "internal_energy": -0.242}

$$$$
2hb1_ligand
     RDKit          3D

 17 17  0  0  0  0  0  0  0  0999 V2000
   53.0190    9.9370    0.6780 O   0  0  0  0  0  0  0  0  0  0  0  0
   52.8340    9.3700    1.8000 C   0  0  0  0  0  0  0  0  0  0  0  0
   53.4530    9.5870    2.8870 O   0  0  0  0  0  0  0  0  0  0  0  0
   51.7810    8.2410    1.8170 C   0  0  0  0  0  0  0  0  0  0  0  0
   50.9920    8.2730    3.0280 O   0  0  0  0  0  0  0  0  0  0  0  0
   50.5550    7.0390    3.3800 C   0  0  0  0  0  0  0  0  0  0  0  0
   49.2590    6.5420    3.0580 C   0  0  0  0  0  0  0  0  0  0  0  0
   47.9690    7.5240    2.0830 Br  0  0  0  0  0  0  0  0  0  0  0  0
   49.0250    5.2800    3.5410 C   0  0  0  0  0  0  0  0  0  0  0  0
   50.3490    4.7040    4.4480 S   0  0  0  0  0  0  0  0  0  0  0  0
   51.2470    6.1560    4.1930 C   0  0  0  0  0  0  0  0  0  0  0  0
   52.6760    6.3570    4.8640 C   0  0  0  0  0  0  0  0  0  0  0  0
   53.4350    5.3510    5.0100 O   0  0  0  0  0  0  0  0  0  0  0  0
   52.9620    7.5470    5.2290 O   0  0  0  0  0  0  0  0  0  0  0  0
   51.1130    8.3617    0.9515 H   0  0  0  0  0  0  0  0  0  0  0  0
   52.3075    7.2762    1.7725 H   0  0  0  0  0  0  0  0  0  0  0  0
   48.1000    4.7112    3.3655 H   0  0  0  0  0  0  0  0  0  0  0  0
  1  2  2  0
  2  3  1  0
  2  4  1  0
  4  5  1  0
  5  6  1  0
  6  7  1  0
  7  8  1  0
  7  9  2  0
  9 10  1  0
 10 11  1  0
 11 12  1  0
 12 13  2  0
 12 14  1  0
 11  6  2  0
  4 15  1  0
  4 16  1  0
  9 17  1  0
M  CHG  2   3  -1  14  -1
M  END
>  <meeko>  (7) 
{"is_sidechain": [false], "free_energy": -4.663, "intermolecular_energy": -5.801, "internal_energy": -0.215}

$$$$
2hb1_ligand
     RDKit          3D

 17 17  0  0  0  0  0  0  0  0999 V2000
   53.3700    5.8750    4.9280 O   0  0  0  0  0  0  0  0  0  0  0  0
   52.2350    5.5230    5.3780 C   0  0  0  0  0  0  0  0  0  0  0  0
   51.9900    4.9090    6.4610 O   0  0  0  0  0  0  0  0  0  0  0  0
   51.0280    5.8190    4.4610 C   0  0  0  0  0  0  0  0  0  0  0  0
   51.4040    5.7850    3.0660 O   0  0  0  0  0  0  0  0  0  0  0  0
   50.6240    6.5980    2.3120 C   0  0  0  0  0  0  0  0  0  0  0  0
   49.3950    6.1840    1.7230 C   0  0  0  0  0  0  0  0  0  0  0  0
   48.6680    4.4480    1.9180 Br  0  0  0  0  0  0  0  0  0  0  0  0
   48.7900    7.1640    0.9790 C   0  0  0  0  0  0  0  0  0  0  0  0
   49.7360    8.5830    0.9300 S   0  0  0  0  0  0  0  0  0  0  0  0
   50.9690    7.8800    1.9140 C   0  0  0  0  0  0  0  0  0  0  0  0
   52.2980    8.6870    2.2530 C   0  0  0  0  0  0  0  0  0  0  0  0
   52.6590    8.8000    3.4630 O   0  0  0  0  0  0  0  0  0  0  0  0
   52.9190    9.1880    1.2560 O   0  0  0  0  0  0  0  0  0  0  0  0
   50.2489    5.0634    4.6401 H   0  0  0  0  0  0  0  0  0  0  0  0
   50.6554    6.8273    4.6943 H   0  0  0  0  0  0  0  0  0  0  0  0
   47.8178    7.0498    0.4772 H   0  0  0  0  0  0  0  0  0  0  0  0
  1  2  2  0
  2  3  1  0
  2  4  1  0
  4  5  1  0
  5  6  1  0
  6  7  1  0
  7  8  1  0
  7  9  2  0
  9 10  1  0
 10 11  1  0
 11 12  1  0
 12 13  2  0
 12 14  1  0
 11  6  2  0
  4 15  1  0
  4 16  1  0
  9 17  1  0
M  CHG  2   3  -1  14  -1
M  END
>  <meeko>  (8) 
{"is_sidechain": [false], "free_energy": -4.418, "intermolecular_energy": -5.36, "internal_energy": -0.354}

$$$$
2hb1_ligand
     RDKit          3D

 17 17  0  0  0  0  0  0  0  0999 V2000
   46.2970   16.1520    3.0110 O   0  0  0  0  0  0  0  0  0  0  0  0
   45.0630   16.0890    2.7200 C   0  0  0  0  0  0  0  0  0  0  0  0
   44.1230   15.6190    3.4330 O   0  0  0  0  0  0  0  0  0  0  0  0
   44.6800   16.5780    1.3060 C   0  0  0  0  0  0  0  0  0  0  0  0
   43.7330   15.6850    0.6770 O   0  0  0  0  0  0  0  0  0  0  0  0
   44.2940   14.9880   -0.3410 C   0  0  0  0  0  0  0  0  0  0  0  0
   44.8600   13.6900   -0.1870 C   0  0  0  0  0  0  0  0  0  0  0  0
   44.8980   12.7470    1.4530 Br  0  0  0  0  0  0  0  0  0  0  0  0
   45.3960   13.1890   -1.3450 C   0  0  0  0  0  0  0  0  0  0  0  0
   45.2790   14.3120   -2.6230 S   0  0  0  0  0  0  0  0  0  0  0  0
   44.5030   15.4820   -1.6190 C   0  0  0  0  0  0  0  0  0  0  0  0
   44.1280   16.9210   -2.1850 C   0  0  0  0  0  0  0  0  0  0  0  0
   43.1980   17.0230   -3.0410 O   0  0  0  0  0  0  0  0  0  0  0  0
   44.8180   17.8980   -1.7370 O   0  0  0  0  0  0  0  0  0  0  0  0
   44.2309   17.5792    1.3831 H   0  0  0  0  0  0  0  0  0  0  0  0
   45.5914   16.6050    0.6906 H   0  0  0  0  0  0  0  0  0  0  0  0
   45.8448   12.1890   -1.4381 H   0  0  0  0  0  0  0  0  0  0  0  0
  1  2  2  0
  2  3  1  0
  2  4  1  0
  4  5  1  0
  5  6  1  0
  6  7  1  0
  7  8  1  0
  7  9  2  0
  9 10  1  0
 10 11  1  0
 11 12  1  0
 12 13  2  0
 12 14  1  0
 11  6  2  0
  4 15  1  0
  4 16  1  0
  9 17  1  0
M  CHG  2   3  -1  14  -1
M  END
>  <meeko>  (9) 
{"is_sidechain": [false], "free_energy": -4.34, "intermolecular_energy": -5.408, "internal_energy": -0.209}

$$$$
