3l7b_ligand
     RDKit          3D

 34 35  0  0  0  0  0  0  0  0999 V2000
   35.7340   25.3120   32.6380 N   0  0  0  0  0  0  0  0  0  0  0  0
   35.1050   24.8260   31.5930 C   0  0  0  0  0  0  0  0  0  0  0  0
   35.9100   24.0070   30.5710 C   0  0  0  0  0  0  0  0  0  0  0  0
   35.2640   23.5010   29.5190 C   0  0  0  0  0  0  0  0  0  0  0  0
   33.9050   23.7000   29.3550 N   0  0  0  0  0  0  0  0  0  0  0  0
   33.2090   23.1700   28.1730 C   0  0  2  0  0  0  0  0  0  0  0  0
   33.8470   21.9430   27.7800 O   0  0  0  0  0  0  0  0  0  0  0  0
   33.5040   21.5700   26.4440 C   0  0  2  0  0  0  0  0  0  0  0  0
   33.9560   20.1280   26.1800 C   0  0  0  0  0  0  0  0  0  0  0  0
   33.5050   19.2740   27.2290 O   0  0  0  0  0  0  0  0  0  0  0  0
   34.1600   22.5370   25.4400 C   0  0  1  0  0  0  0  0  0  0  0  0
   33.4820   22.4860   24.1820 O   0  0  0  0  0  0  0  0  0  0  0  0
   34.1710   23.9740   25.9680 C   0  0  2  0  0  0  0  0  0  0  0  0
   35.3880   24.2310   26.5360 F   0  0  0  0  0  0  0  0  0  0  0  0
   33.0990   24.2210   27.0270 C   0  0  1  0  0  0  0  0  0  0  0  0
   31.7820   24.1590   26.4600 O   0  0  0  0  0  0  0  0  0  0  0  0
   33.1440   24.4640   30.2190 C   0  0  0  0  0  0  0  0  0  0  0  0
   31.9660   24.7510   30.1430 O   0  0  0  0  0  0  0  0  0  0  0  0
   33.8330   24.9890   31.3420 N   0  0  0  0  0  0  0  0  0  0  0  0
   36.3150   26.1390   32.5560 H   0  0  0  0  0  0  0  0  0  0  0  0
   35.6670   24.8860   33.5520 H   0  0  0  0  0  0  0  0  0  0  0  0
   36.9895   23.8426   30.7035 H   0  0  0  0  0  0  0  0  0  0  0  0
   35.8203   22.9170   28.7711 H   0  0  0  0  0  0  0  0  0  0  0  0
   32.1622   22.9459   28.4261 H   0  0  0  0  0  0  0  0  0  0  0  0
   32.4128   21.6282   26.3177 H   0  0  0  0  0  0  0  0  0  0  0  0
   33.5347   19.7838   25.2239 H   0  0  0  0  0  0  0  0  0  0  0  0
   35.0547   20.0969   26.1373 H   0  0  0  0  0  0  0  0  0  0  0  0
   33.6990   18.3580   26.9530 H   0  0  0  0  0  0  0  0  0  0  0  0
   35.2030   22.2154   25.3035 H   0  0  0  0  0  0  0  0  0  0  0  0
   34.0390   21.9270   23.5940 H   0  0  0  0  0  0  0  0  0  0  0  0
   33.9684   24.6340   25.1117 H   0  0  0  0  0  0  0  0  0  0  0  0
   33.2654   25.2299   27.4326 H   0  0  0  0  0  0  0  0  0  0  0  0
   31.1260   24.3860   27.1460 H   0  0  0  0  0  0  0  0  0  0  0  0
   33.2590   25.5270   31.9720 H   0  0  0  0  0  0  0  0  0  0  0  0
  1  2  1  0
  2  3  1  0
  3  4  2  0
  4  5  1  0
  5  6  1  0
  6  7  1  0
  7  8  1  0
  8  9  1  0
  9 10  1  0
  8 11  1  0
 11 12  1  0
 11 13  1  0
 13 14  1  0
 13 15  1  0
 15 16  1  0
  5 17  1  0
 17 18  2  0
 17 19  1  0
 19  2  2  0
 15  6  1  0
  1 20  1  0
  1 21  1  0
  3 22  1  0
  4 23  1  0
  6 24  1  1
  8 25  1  1
  9 26  1  0
  9 27  1  0
 10 28  1  0
 11 29  1  6
 12 30  1  0
 13 31  1  6
 15 32  1  1
 16 33  1  0
 19 34  1  0
M  CHG  1  19   1
M  END
>  <meeko>  (1) 
{"is_sidechain": [false], "free_energy": -8.41, "intermolecular_energy": -10.376, "internal_energy": -0.348}

$$$$
3l7b_ligand
     RDKit          3D

 34 35  0  0  0  0  0  0  0  0999 V2000
   35.2180   25.1020   32.4510 N   0  0  0  0  0  0  0  0  0  0  0  0
   34.8140   24.6500   31.2870 C   0  0  0  0  0  0  0  0  0  0  0  0
   35.8290   23.9200   30.3930 C   0  0  0  0  0  0  0  0  0  0  0  0
   35.4100   23.4470   29.2180 C   0  0  0  0  0  0  0  0  0  0  0  0
   34.0950   23.6010   28.8170 N   0  0  0  0  0  0  0  0  0  0  0  0
   33.6510   23.1090   27.5040 C   0  0  2  0  0  0  0  0  0  0  0  0
   32.2170   23.2000   27.4440 O   0  0  0  0  0  0  0  0  0  0  0  0
   31.6770   22.3970   26.3930 C   0  0  2  0  0  0  0  0  0  0  0  0
   30.2020   22.7570   26.1770 C   0  0  0  0  0  0  0  0  0  0  0  0
   29.3740   21.6410   26.4950 O   0  0  0  0  0  0  0  0  0  0  0  0
   31.8280   20.9030   26.7380 C   0  0  1  0  0  0  0  0  0  0  0  0
   31.7400   20.1060   25.5540 O   0  0  0  0  0  0  0  0  0  0  0  0
   33.1500   20.6230   27.4570 C   0  0  2  0  0  0  0  0  0  0  0  0
   32.9260   20.5920   28.8060 F   0  0  0  0  0  0  0  0  0  0  0  0
   34.2080   21.6880   27.1830 C   0  0  1  0  0  0  0  0  0  0  0  0
   34.6410   21.6540   25.8150 O   0  0  0  0  0  0  0  0  0  0  0  0
   33.1540   24.2860   29.5610 C   0  0  0  0  0  0  0  0  0  0  0  0
   31.9960   24.5300   29.2840 O   0  0  0  0  0  0  0  0  0  0  0  0
   33.6020   24.7760   30.8150 N   0  0  0  0  0  0  0  0  0  0  0  0
   34.7640   25.8980   32.8850 H   0  0  0  0  0  0  0  0  0  0  0  0
   35.9900   24.6830   32.9530 H   0  0  0  0  0  0  0  0  0  0  0  0
   36.8733   23.7909   30.7135 H   0  0  0  0  0  0  0  0  0  0  0  0
   36.1204   22.9270   28.5585 H   0  0  0  0  0  0  0  0  0  0  0  0
   34.0684   23.7426   26.7076 H   0  0  0  0  0  0  0  0  0  0  0  0
   32.2293   22.5935   25.4622 H   0  0  0  0  0  0  0  0  0  0  0  0
   29.9355   23.6044   26.8258 H   0  0  0  0  0  0  0  0  0  0  0  0
   30.0487   23.0304   25.1226 H   0  0  0  0  0  0  0  0  0  0  0  0
   29.7670   20.8620   26.0580 H   0  0  0  0  0  0  0  0  0  0  0  0
   31.0058   20.6351   27.4179 H   0  0  0  0  0  0  0  0  0  0  0  0
   31.2990   19.2680   25.8200 H   0  0  0  0  0  0  0  0  0  0  0  0
   33.5248   19.6604   27.0790 H   0  0  0  0  0  0  0  0  0  0  0  0
   35.0672   21.4705   27.8345 H   0  0  0  0  0  0  0  0  0  0  0  0
   34.1480   22.3230   25.3040 H   0  0  0  0  0  0  0  0  0  0  0  0
   32.8970   25.2550   31.3530 H   0  0  0  0  0  0  0  0  0  0  0  0
  1  2  1  0
  2  3  1  0
  3  4  2  0
  4  5  1  0
  5  6  1  0
  6  7  1  0
  7  8  1  0
  8  9  1  0
  9 10  1  0
  8 11  1  0
 11 12  1  0
 11 13  1  0
 13 14  1  0
 13 15  1  0
 15 16  1  0
  5 17  1  0
 17 18  2  0
 17 19  1  0
 19  2  2  0
 15  6  1  0
  1 20  1  0
  1 21  1  0
  3 22  1  0
  4 23  1  0
  6 24  1  6
  8 25  1  6
  9 26  1  0
  9 27  1  0
 10 28  1  0
 11 29  1  1
 12 30  1  0
 13 31  1  6
 15 32  1  1
 16 33  1  0
 19 34  1  0
M  CHG  1  19   1
M  END
>  <meeko>  (2) 
{"is_sidechain": [false], "free_energy": -7.59, "intermolecular_energy": -10.056, "internal_energy": 0.344}

$$$$
3l7b_ligand
     RDKit          3D

 34 35  0  0  0  0  0  0  0  0999 V2000
   37.6310   24.7850   31.4900 N   0  0  0  0  0  0  0  0  0  0  0  0
   36.4760   24.5160   30.9260 C   0  0  0  0  0  0  0  0  0  0  0  0
   36.4760   23.7920   29.5710 C   0  0  0  0  0  0  0  0  0  0  0  0
   35.3000   23.5050   29.0090 C   0  0  0  0  0  0  0  0  0  0  0  0
   34.1120   23.8440   29.6320 N   0  0  0  0  0  0  0  0  0  0  0  0
   32.8220   23.5570   28.9880 C   0  0  2  0  0  0  0  0  0  0  0  0
   32.9250   22.3010   28.2960 O   0  0  0  0  0  0  0  0  0  0  0  0
   31.8800   22.1350   27.3360 C   0  0  2  0  0  0  0  0  0  0  0  0
   31.8560   20.6800   26.8500 C   0  0  0  0  0  0  0  0  0  0  0  0
   31.8580   20.6400   25.4250 O   0  0  0  0  0  0  0  0  0  0  0  0
   32.0880   23.1010   26.1540 C   0  0  1  0  0  0  0  0  0  0  0  0
   30.8620   23.2910   25.4440 O   0  0  0  0  0  0  0  0  0  0  0  0
   32.6340   24.4520   26.6220 C   0  0  2  0  0  0  0  0  0  0  0  0
   33.9930   24.4620   26.4650 F   0  0  0  0  0  0  0  0  0  0  0  0
   32.3310   24.7340   28.0910 C   0  0  1  0  0  0  0  0  0  0  0  0
   30.9250   24.9310   28.3050 O   0  0  0  0  0  0  0  0  0  0  0  0
   34.0560   24.5330   30.8280 C   0  0  0  0  0  0  0  0  0  0  0  0
   33.0790   24.9280   31.4330 O   0  0  0  0  0  0  0  0  0  0  0  0
   35.3090   24.8230   31.4270 N   0  0  0  0  0  0  0  0  0  0  0  0
   38.3290   25.3370   31.0050 H   0  0  0  0  0  0  0  0  0  0  0  0
   37.8670   24.4550   32.4170 H   0  0  0  0  0  0  0  0  0  0  0  0
   37.4199   23.5175   29.0773 H   0  0  0  0  0  0  0  0  0  0  0  0
   35.2748   22.9916   28.0365 H   0  0  0  0  0  0  0  0  0  0  0  0
   32.0374   23.4624   29.7532 H   0  0  0  0  0  0  0  0  0  0  0  0
   30.9125   22.3683   27.8046 H   0  0  0  0  0  0  0  0  0  0  0  0
   32.7446   20.1546   27.2301 H   0  0  0  0  0  0  0  0  0  0  0  0
   30.9442   20.1906   27.2229 H   0  0  0  0  0  0  0  0  0  0  0  0
   32.6560   21.1160   25.1290 H   0  0  0  0  0  0  0  0  0  0  0  0
   32.8305   22.6472   25.4811 H   0  0  0  0  0  0  0  0  0  0  0  0
   31.0890   23.2450   24.4880 H   0  0  0  0  0  0  0  0  0  0  0  0
   32.1428   25.2263   26.0144 H   0  0  0  0  0  0  0  0  0  0  0  0
   32.8659   25.6555   28.3645 H   0  0  0  0  0  0  0  0  0  0  0  0
   30.6930   24.6360   29.2060 H   0  0  0  0  0  0  0  0  0  0  0  0
   35.2500   25.3090   32.3090 H   0  0  0  0  0  0  0  0  0  0  0  0
  1  2  1  0
  2  3  1  0
  3  4  2  0
  4  5  1  0
  5  6  1  0
  6  7  1  0
  7  8  1  0
  8  9  1  0
  9 10  1  0
  8 11  1  0
 11 12  1  0
 11 13  1  0
 13 14  1  0
 13 15  1  0
 15 16  1  0
  5 17  1  0
 17 18  2  0
 17 19  1  0
 19  2  2  0
 15  6  1  0
  1 20  1  0
  1 21  1  0
  3 22  1  0
  4 23  1  0
  6 24  1  1
  8 25  1  1
  9 26  1  0
  9 27  1  0
 10 28  1  0
 11 29  1  6
 12 30  1  0
 13 31  1  6
 15 32  1  1
 16 33  1  0
 19 34  1  0
M  CHG  1  19   1
M  END
>  <meeko>  (3) 
{"is_sidechain": [false], "free_energy": -7.138, "intermolecular_energy": -8.628, "internal_energy": -0.527}

$$$$
3l7b_ligand
     RDKit          3D

 34 35  0  0  0  0  0  0  0  0999 V2000
   36.1820   24.6540   33.3160 N   0  0  0  0  0  0  0  0  0  0  0  0
   35.7170   24.4990   32.0980 C   0  0  0  0  0  0  0  0  0  0  0  0
   34.2140   24.7130   31.8570 C   0  0  0  0  0  0  0  0  0  0  0  0
   33.7470   24.5710   30.6160 C   0  0  0  0  0  0  0  0  0  0  0  0
   34.5930   24.2470   29.5700 N   0  0  0  0  0  0  0  0  0  0  0  0
   34.0650   24.0570   28.2120 C   0  0  2  0  0  0  0  0  0  0  0  0
   32.6280   24.1030   28.2690 O   0  0  0  0  0  0  0  0  0  0  0  0
   32.0310   23.5460   27.0980 C   0  0  2  0  0  0  0  0  0  0  0  0
   30.5360   23.8880   27.0710 C   0  0  0  0  0  0  0  0  0  0  0  0
   30.3210   25.1870   27.6150 O   0  0  0  0  0  0  0  0  0  0  0  0
   32.2400   22.0190   27.0720 C   0  0  1  0  0  0  0  0  0  0  0  0
   32.0830   21.5170   25.7420 O   0  0  0  0  0  0  0  0  0  0  0  0
   33.6170   21.6320   27.6160 C   0  0  2  0  0  0  0  0  0  0  0  0
   33.4930   21.2800   28.9320 F   0  0  0  0  0  0  0  0  0  0  0  0
   34.6270   22.7720   27.5300 C   0  0  1  0  0  0  0  0  0  0  0  0
   34.9600   23.0730   26.1660 O   0  0  0  0  0  0  0  0  0  0  0  0
   35.9420   24.0020   29.7390 C   0  0  0  0  0  0  0  0  0  0  0  0
   36.7620   23.6590   28.9100 O   0  0  0  0  0  0  0  0  0  0  0  0
   36.4360   24.1670   31.0590 N   0  0  0  0  0  0  0  0  0  0  0  0
   35.6870   24.2720   34.1140 H   0  0  0  0  0  0  0  0  0  0  0  0
   37.0410   25.1550   33.5040 H   0  0  0  0  0  0  0  0  0  0  0  0
   33.5413   24.9764   32.6865 H   0  0  0  0  0  0  0  0  0  0  0  0
   32.6738   24.7135   30.4210 H   0  0  0  0  0  0  0  0  0  0  0  0
   34.4094   24.8750   27.5621 H   0  0  0  0  0  0  0  0  0  0  0  0
   32.5092   23.9749   26.2051 H   0  0  0  0  0  0  0  0  0  0  0  0
   30.1762   23.8647   26.0318 H   0  0  0  0  0  0  0  0  0  0  0  0
   29.9869   23.1498   27.6739 H   0  0  0  0  0  0  0  0  0  0  0  0
   30.9090   25.2720   28.3900 H   0  0  0  0  0  0  0  0  0  0  0  0
   31.4764   21.5677   27.7226 H   0  0  0  0  0  0  0  0  0  0  0  0
   31.3810   22.0660   25.3240 H   0  0  0  0  0  0  0  0  0  0  0  0
   33.9852   20.7990   26.9991 H   0  0  0  0  0  0  0  0  0  0  0  0
   35.5361   22.4428   28.0546 H   0  0  0  0  0  0  0  0  0  0  0  0
   35.6830   22.4870   25.8750 H   0  0  0  0  0  0  0  0  0  0  0  0
   37.4250   24.0040   31.1600 H   0  0  0  0  0  0  0  0  0  0  0  0
  1  2  1  0
  2  3  1  0
  3  4  2  0
  4  5  1  0
  5  6  1  0
  6  7  1  0
  7  8  1  0
  8  9  1  0
  9 10  1  0
  8 11  1  0
 11 12  1  0
 11 13  1  0
 13 14  1  0
 13 15  1  0
 15 16  1  0
  5 17  1  0
 17 18  2  0
 17 19  1  0
 19  2  2  0
 15  6  1  0
  1 20  1  0
  1 21  1  0
  3 22  1  0
  4 23  1  0
  6 24  1  6
  8 25  1  6
  9 26  1  0
  9 27  1  0
 10 28  1  0
 11 29  1  1
 12 30  1  0
 13 31  1  6
 15 32  1  1
 16 33  1  0
 19 34  1  0
M  CHG  1  19   1
M  END
>  <meeko>  (4) 
{"is_sidechain": [false], "free_energy": -5.593, "intermolecular_energy": -7.38, "internal_energy": 0.132}

$$$$
