4j3l_ligand
     RDKit          3D

 45 47  0  0  0  0  0  0  0  0999 V2000
    3.5470   -6.4650   -2.5430 C   0  0  0  0  0  0  0  0  0  0  0  0
    4.0400   -7.7970   -2.6280 O   0  0  0  0  0  0  0  0  0  0  0  0
    3.3890   -8.6840   -1.7160 C   0  0  0  0  0  0  0  0  0  0  0  0
    2.1670   -9.3530   -2.3500 C   0  0  0  0  0  0  0  0  0  0  0  0
    2.3440   -9.6420   -3.7610 N   0  0  0  0  0  0  0  0  0  0  0  0
    2.4060  -10.9430   -4.2130 C   0  0  0  0  0  0  0  0  0  0  0  0
    2.2930  -11.9170   -3.4790 O   0  0  0  0  0  0  0  0  0  0  0  0
    2.6670  -11.1310   -5.6660 C   0  0  0  0  0  0  0  0  0  0  0  0
    3.3770  -10.1920   -6.4210 C   0  0  0  0  0  0  0  0  0  0  0  0
    3.5900  -10.4100   -7.7860 C   0  0  0  0  0  0  0  0  0  0  0  0
    3.0960  -11.5610   -8.4260 C   0  0  0  0  0  0  0  0  0  0  0  0
    3.3510  -11.7410   -9.8620 C   0  0  0  0  0  0  0  0  0  0  0  0
    4.6580  -11.8930  -10.3460 C   0  0  0  0  0  0  0  0  0  0  0  0
    4.9060  -12.0550  -11.7150 C   0  0  0  0  0  0  0  0  0  0  0  0
    3.8530  -12.0660  -12.6360 C   0  0  0  0  0  0  0  0  0  0  0  0
    4.0540  -12.2340  -14.0940 C   0  0  0  0  0  0  0  0  0  0  0  0
    5.4390  -12.4060  -14.6450 C   0  0  0  0  0  0  0  0  0  0  0  0
    2.9800  -12.2310  -14.9010 C   0  0  0  0  0  0  0  0  0  0  0  0
    1.6010  -12.0660  -14.3880 C   0  0  0  0  0  0  0  0  0  0  0  0
    0.6420  -12.0650  -15.1510 O   0  0  0  0  0  0  0  0  0  0  0  0
    1.4650  -11.9170  -13.0380 N   0  0  0  0  0  0  0  0  0  0  0  0
    2.5450  -11.9110  -12.1470 C   0  0  0  0  0  0  0  0  0  0  0  0
    2.2930  -11.7500  -10.7810 C   0  0  0  0  0  0  0  0  0  0  0  0
    2.3670  -12.4860   -7.6550 C   0  0  0  0  0  0  0  0  0  0  0  0
    1.6950  -13.9220   -8.3520 Cl  0  0  0  0  0  0  0  0  0  0  0  0
    2.1510  -12.2720   -6.2900 C   0  0  0  0  0  0  0  0  0  0  0  0
    3.4415   -6.1799   -1.4859 H   0  0  0  0  0  0  0  0  0  0  0  0
    4.2515   -5.7809   -3.0387 H   0  0  0  0  0  0  0  0  0  0  0  0
    2.5669   -6.4044   -3.0387 H   0  0  0  0  0  0  0  0  0  0  0  0
    4.1014   -9.4631   -1.4069 H   0  0  0  0  0  0  0  0  0  0  0  0
    3.0474   -8.0960   -0.8514 H   0  0  0  0  0  0  0  0  0  0  0  0
    1.9712  -10.2974   -1.8211 H   0  0  0  0  0  0  0  0  0  0  0  0
    1.3258   -8.6497   -2.2624 H   0  0  0  0  0  0  0  0  0  0  0  0
    2.6530   -8.8870   -4.3570 H   0  0  0  0  0  0  0  0  0  0  0  0
    3.7677   -9.2824   -5.9415 H   0  0  0  0  0  0  0  0  0  0  0  0
    4.1542   -9.6677   -8.3697 H   0  0  0  0  0  0  0  0  0  0  0  0
    5.5015  -11.8849   -9.6399 H   0  0  0  0  0  0  0  0  0  0  0  0
    5.9402  -12.1749  -12.0699 H   0  0  0  0  0  0  0  0  0  0  0  0
    6.1554  -12.4950  -13.8150 H   0  0  0  0  0  0  0  0  0  0  0  0
    5.4778  -13.3159  -15.2620 H   0  0  0  0  0  0  0  0  0  0  0  0
    5.6992  -11.5333  -15.2620 H   0  0  0  0  0  0  0  0  0  0  0  0
    3.1308  -12.3558  -15.9834 H   0  0  0  0  0  0  0  0  0  0  0  0
    0.5180  -11.8120  -12.7010 H   0  0  0  0  0  0  0  0  0  0  0  0
    1.2589  -11.6298  -10.4259 H   0  0  0  0  0  0  0  0  0  0  0  0
    1.5736  -13.0031   -5.7051 H   0  0  0  0  0  0  0  0  0  0  0  0
  1  2  1  0
  2  3  1  0
  3  4  1  0
  4  5  1  0
  5  6  1  0
  6  7  2  0
  6  8  1  0
  8  9  2  0
  9 10  1  0
 10 11  2  0
 11 12  1  0
 12 13  2  0
 13 14  1  0
 14 15  2  0
 15 16  1  0
 16 17  1  0
 16 18  2  0
 18 19  1  0
 19 20  2  0
 19 21  1  0
 21 22  1  0
 22 23  2  0
 11 24  1  0
 24 25  1  0
 24 26  2  0
 26  8  1  0
 23 12  1  0
 22 15  1  0
  1 27  1  0
  1 28  1  0
  1 29  1  0
  3 30  1  0
  3 31  1  0
  4 32  1  0
  4 33  1  0
  5 34  1  0
  9 35  1  0
 10 36  1  0
 13 37  1  0
 14 38  1  0
 17 39  1  0
 17 40  1  0
 17 41  1  0
 18 42  1  0
 21 43  1  0
 23 44  1  0
 26 45  1  0
M  END
>  <meeko>  (1) 
{"is_sidechain": [false], "free_energy": -11.401, "intermolecular_energy": -14.733, "internal_energy": -0.618}

$$$$
4j3l_ligand
     RDKit          3D

 45 47  0  0  0  0  0  0  0  0999 V2000
    0.4450  -15.0330   -2.7380 C   0  0  0  0  0  0  0  0  0  0  0  0
    1.6040  -14.3410   -2.2860 O   0  0  0  0  0  0  0  0  0  0  0  0
    1.2860  -13.1510   -1.5630 C   0  0  0  0  0  0  0  0  0  0  0  0
    2.0930  -11.9500   -2.0640 C   0  0  0  0  0  0  0  0  0  0  0  0
    2.4050  -12.0250   -3.4800 N   0  0  0  0  0  0  0  0  0  0  0  0
    2.4160  -10.8890   -4.2610 C   0  0  0  0  0  0  0  0  0  0  0  0
    2.1950   -9.7670   -3.8210 O   0  0  0  0  0  0  0  0  0  0  0  0
    2.6710  -11.0840   -5.7140 C   0  0  0  0  0  0  0  0  0  0  0  0
    3.3930  -10.1560   -6.4720 C   0  0  0  0  0  0  0  0  0  0  0  0
    3.6010  -10.3800   -7.8370 C   0  0  0  0  0  0  0  0  0  0  0  0
    3.0900  -11.5260   -8.4730 C   0  0  0  0  0  0  0  0  0  0  0  0
    3.3410  -11.7120   -9.9100 C   0  0  0  0  0  0  0  0  0  0  0  0
    4.6440  -11.8930  -10.3940 C   0  0  0  0  0  0  0  0  0  0  0  0
    4.8880  -12.0610  -11.7630 C   0  0  0  0  0  0  0  0  0  0  0  0
    3.8340  -12.0510  -12.6840 C   0  0  0  0  0  0  0  0  0  0  0  0
    4.0310  -12.2240  -14.1410 C   0  0  0  0  0  0  0  0  0  0  0  0
    5.4110  -12.4260  -14.6940 C   0  0  0  0  0  0  0  0  0  0  0  0
    2.9570  -12.1980  -14.9480 C   0  0  0  0  0  0  0  0  0  0  0  0
    1.5820  -12.0040  -14.4340 C   0  0  0  0  0  0  0  0  0  0  0  0
    0.6230  -11.9830  -15.1970 O   0  0  0  0  0  0  0  0  0  0  0  0
    1.4500  -11.8500  -13.0850 N   0  0  0  0  0  0  0  0  0  0  0  0
    2.5300  -11.8680  -12.1940 C   0  0  0  0  0  0  0  0  0  0  0  0
    2.2830  -11.7000  -10.8280 C   0  0  0  0  0  0  0  0  0  0  0  0
    2.3510  -12.4400   -7.6990 C   0  0  0  0  0  0  0  0  0  0  0  0
    1.6590  -13.8680   -8.3920 Cl  0  0  0  0  0  0  0  0  0  0  0  0
    2.1400  -12.2190   -6.3340 C   0  0  0  0  0  0  0  0  0  0  0  0
   -0.1363  -15.3801   -1.8710 H   0  0  0  0  0  0  0  0  0  0  0  0
   -0.1726  -14.3557   -3.3461 H   0  0  0  0  0  0  0  0  0  0  0  0
    0.7483  -15.8980   -3.3461 H   0  0  0  0  0  0  0  0  0  0  0  0
    0.2141  -12.9358   -1.6848 H   0  0  0  0  0  0  0  0  0  0  0  0
    1.5379  -13.3155   -0.5049 H   0  0  0  0  0  0  0  0  0  0  0  0
    1.5095  -11.0355   -1.8819 H   0  0  0  0  0  0  0  0  0  0  0  0
    3.0475  -11.9448   -1.5173 H   0  0  0  0  0  0  0  0  0  0  0  0
    2.3790  -12.9360   -3.9170 H   0  0  0  0  0  0  0  0  0  0  0  0
    3.7968   -9.2508   -5.9950 H   0  0  0  0  0  0  0  0  0  0  0  0
    4.1743   -9.6470   -8.4235 H   0  0  0  0  0  0  0  0  0  0  0  0
    5.4876  -11.9033   -9.6881 H   0  0  0  0  0  0  0  0  0  0  0  0
    5.9194  -12.2024  -12.1183 H   0  0  0  0  0  0  0  0  0  0  0  0
    6.1265  -12.5307  -13.8651 H   0  0  0  0  0  0  0  0  0  0  0  0
    5.4291  -13.3364  -15.3112 H   0  0  0  0  0  0  0  0  0  0  0  0
    5.6892  -11.5590  -15.3112 H   0  0  0  0  0  0  0  0  0  0  0  0
    3.1047  -12.3256  -16.0306 H   0  0  0  0  0  0  0  0  0  0  0  0
    0.5050  -11.7250  -12.7470 H   0  0  0  0  0  0  0  0  0  0  0  0
    1.2519  -11.5576  -10.4722 H   0  0  0  0  0  0  0  0  0  0  0  0
    1.5541  -12.9409   -5.7462 H   0  0  0  0  0  0  0  0  0  0  0  0
  1  2  1  0
  2  3  1  0
  3  4  1  0
  4  5  1  0
  5  6  1  0
  6  7  2  0
  6  8  1  0
  8  9  2  0
  9 10  1  0
 10 11  2  0
 11 12  1  0
 12 13  2  0
 13 14  1  0
 14 15  2  0
 15 16  1  0
 16 17  1  0
 16 18  2  0
 18 19  1  0
 19 20  2  0
 19 21  1  0
 21 22  1  0
 22 23  2  0
 11 24  1  0
 24 25  1  0
 24 26  2  0
 26  8  1  0
 23 12  1  0
 22 15  1  0
  1 27  1  0
  1 28  1  0
  1 29  1  0
  3 30  1  0
  3 31  1  0
  4 32  1  0
  4 33  1  0
  5 34  1  0
  9 35  1  0
 10 36  1  0
 13 37  1  0
 14 38  1  0
 17 39  1  0
 17 40  1  0
 17 41  1  0
 18 42  1  0
 21 43  1  0
 23 44  1  0
 26 45  1  0
M  END
>  <meeko>  (2) 
{"is_sidechain": [false], "free_energy": -11.001, "intermolecular_energy": -14.218, "internal_energy": -0.617}

$$$$
4j3l_ligand
     RDKit          3D

 45 47  0  0  0  0  0  0  0  0999 V2000
    4.8540  -10.0430   -1.5580 C   0  0  0  0  0  0  0  0  0  0  0  0
    3.7780  -10.6490   -0.8500 O   0  0  0  0  0  0  0  0  0  0  0  0
    3.4800  -11.9640   -1.3220 C   0  0  0  0  0  0  0  0  0  0  0  0
    2.1980  -11.9900   -2.1600 C   0  0  0  0  0  0  0  0  0  0  0  0
    2.4530  -12.0550   -3.5870 N   0  0  0  0  0  0  0  0  0  0  0  0
    2.4470  -10.9120   -4.3580 C   0  0  0  0  0  0  0  0  0  0  0  0
    2.2570   -9.7920   -3.9000 O   0  0  0  0  0  0  0  0  0  0  0  0
    2.6420  -11.0960   -5.8220 C   0  0  0  0  0  0  0  0  0  0  0  0
    3.3800  -10.1920   -6.5920 C   0  0  0  0  0  0  0  0  0  0  0  0
    3.5290  -10.4050   -7.9670 C   0  0  0  0  0  0  0  0  0  0  0  0
    2.9420  -11.5150   -8.6000 C   0  0  0  0  0  0  0  0  0  0  0  0
    3.1330  -11.6910  -10.0470 C   0  0  0  0  0  0  0  0  0  0  0  0
    2.0370  -11.6830  -10.9220 C   0  0  0  0  0  0  0  0  0  0  0  0
    2.2130  -11.8600  -12.3000 C   0  0  0  0  0  0  0  0  0  0  0  0
    3.4900  -12.0520  -12.8390 C   0  0  0  0  0  0  0  0  0  0  0  0
    3.7380  -12.2440  -14.2860 C   0  0  0  0  0  0  0  0  0  0  0  0
    2.5890  -12.2340  -15.2520 C   0  0  0  0  0  0  0  0  0  0  0  0
    5.0000  -12.4230  -14.7100 C   0  0  0  0  0  0  0  0  0  0  0  0
    6.1550  -12.4350  -13.7830 C   0  0  0  0  0  0  0  0  0  0  0  0
    7.2940  -12.6030  -14.2010 O   0  0  0  0  0  0  0  0  0  0  0  0
    5.8780  -12.2520  -12.4600 N   0  0  0  0  0  0  0  0  0  0  0  0
    4.5850  -12.0610  -11.9580 C   0  0  0  0  0  0  0  0  0  0  0  0
    4.4130  -11.8840  -10.5820 C   0  0  0  0  0  0  0  0  0  0  0  0
    2.1870  -12.4040   -7.8130 C   0  0  0  0  0  0  0  0  0  0  0  0
    1.4030  -13.7870   -8.5000 Cl  0  0  0  0  0  0  0  0  0  0  0  0
    2.0340  -12.1950   -6.4380 C   0  0  0  0  0  0  0  0  0  0  0  0
    5.5806   -9.6338   -0.8407 H   0  0  0  0  0  0  0  0  0  0  0  0
    5.3472  -10.7960   -2.1902 H   0  0  0  0  0  0  0  0  0  0  0  0
    4.4657   -9.2309   -2.1902 H   0  0  0  0  0  0  0  0  0  0  0  0
    4.3174  -12.3185   -1.9410 H   0  0  0  0  0  0  0  0  0  0  0  0
    3.3310  -12.6156   -0.4483 H   0  0  0  0  0  0  0  0  0  0  0  0
    1.6073  -12.8712   -1.8693 H   0  0  0  0  0  0  0  0  0  0  0  0
    1.6592  -11.0510   -1.9651 H   0  0  0  0  0  0  0  0  0  0  0  0
    2.3980  -12.9610   -4.0310 H   0  0  0  0  0  0  0  0  0  0  0  0
    3.8430   -9.3143   -6.1175 H   0  0  0  0  0  0  0  0  0  0  0  0
    4.1160   -9.6911   -8.5635 H   0  0  0  0  0  0  0  0  0  0  0  0
    1.0238  -11.5355  -10.5198 H   0  0  0  0  0  0  0  0  0  0  0  0
    1.3377  -11.8480  -12.9661 H   0  0  0  0  0  0  0  0  0  0  0  0
    1.6410  -12.2257  -14.6941 H   0  0  0  0  0  0  0  0  0  0  0  0
    2.6498  -11.3364  -15.8849 H   0  0  0  0  0  0  0  0  0  0  0  0
    2.6342  -13.1326  -15.8849 H   0  0  0  0  0  0  0  0  0  0  0  0
    5.1823  -12.5659  -15.7853 H   0  0  0  0  0  0  0  0  0  0  0  0
    6.6760  -12.2560  -11.8400 H   0  0  0  0  0  0  0  0  0  0  0  0
    5.2880  -11.8964   -9.9155 H   0  0  0  0  0  0  0  0  0  0  0  0
    1.4341  -12.8967   -5.8399 H   0  0  0  0  0  0  0  0  0  0  0  0
  1  2  1  0
  2  3  1  0
  3  4  1  0
  4  5  1  0
  5  6  1  0
  6  7  2  0
  6  8  1  0
  8  9  2  0
  9 10  1  0
 10 11  2  0
 11 12  1  0
 12 13  2  0
 13 14  1  0
 14 15  2  0
 15 16  1  0
 16 17  1  0
 16 18  2  0
 18 19  1  0
 19 20  2  0
 19 21  1  0
 21 22  1  0
 22 23  2  0
 11 24  1  0
 24 25  1  0
 24 26  2  0
 26  8  1  0
 23 12  1  0
 22 15  1  0
  1 27  1  0
  1 28  1  0
  1 29  1  0
  3 30  1  0
  3 31  1  0
  4 32  1  0
  4 33  1  0
  5 34  1  0
  9 35  1  0
 10 36  1  0
 13 37  1  0
 14 38  1  0
 17 39  1  0
 17 40  1  0
 17 41  1  0
 18 42  1  0
 21 43  1  0
 23 44  1  0
 26 45  1  0
M  END
>  <meeko>  (3) 
{"is_sidechain": [false], "free_energy": -9.984, "intermolecular_energy": -12.809, "internal_energy": -0.711}

$$$$
4j3l_ligand
     RDKit          3D

 45 47  0  0  0  0  0  0  0  0999 V2000
    3.9360  -12.4930  -15.8500 C   0  0  0  0  0  0  0  0  0  0  0  0
    2.8060  -13.3570  -15.8110 O   0  0  0  0  0  0  0  0  0  0  0  0
    2.0560  -13.2260  -14.6030 C   0  0  0  0  0  0  0  0  0  0  0  0
    1.9030  -11.7610  -14.1850 C   0  0  0  0  0  0  0  0  0  0  0  0
    1.9270  -11.5740  -12.7460 N   0  0  0  0  0  0  0  0  0  0  0  0
    3.0890  -11.7660  -12.0290 C   0  0  0  0  0  0  0  0  0  0  0  0
    4.1570  -12.0740  -12.5460 O   0  0  0  0  0  0  0  0  0  0  0  0
    2.9900  -11.6250  -10.5510 C   0  0  0  0  0  0  0  0  0  0  0  0
    3.8960  -10.8540   -9.8160 C   0  0  0  0  0  0  0  0  0  0  0  0
    3.7650  -10.7570   -8.4270 C   0  0  0  0  0  0  0  0  0  0  0  0
    2.7370  -11.4310   -7.7440 C   0  0  0  0  0  0  0  0  0  0  0  0
    2.6450  -11.2930   -6.2830 C   0  0  0  0  0  0  0  0  0  0  0  0
    2.4590  -12.4160   -5.4660 C   0  0  0  0  0  0  0  0  0  0  0  0
    2.3600  -12.2890   -4.0750 C   0  0  0  0  0  0  0  0  0  0  0  0
    2.4430  -11.0320   -3.4650 C   0  0  0  0  0  0  0  0  0  0  0  0
    2.3470  -10.8360   -2.0000 C   0  0  0  0  0  0  0  0  0  0  0  0
    2.1550  -12.0170   -1.0950 C   0  0  0  0  0  0  0  0  0  0  0  0
    2.4360   -9.5890   -1.5060 C   0  0  0  0  0  0  0  0  0  0  0  0
    2.6280   -8.4040   -2.3720 C   0  0  0  0  0  0  0  0  0  0  0  0
    2.7030   -7.2790   -1.8900 O   0  0  0  0  0  0  0  0  0  0  0  0
    2.7130   -8.6340   -3.7140 N   0  0  0  0  0  0  0  0  0  0  0  0
    2.6270   -9.9080   -4.2870 C   0  0  0  0  0  0  0  0  0  0  0  0
    2.7260  -10.0320   -5.6770 C   0  0  0  0  0  0  0  0  0  0  0  0
    1.8450  -12.2170   -8.4970 C   0  0  0  0  0  0  0  0  0  0  0  0
    0.5600  -13.1050   -7.7490 Cl  0  0  0  0  0  0  0  0  0  0  0  0
    1.9720  -12.3170   -9.8860 C   0  0  0  0  0  0  0  0  0  0  0  0
    4.2497  -12.2531  -14.8233 H   0  0  0  0  0  0  0  0  0  0  0  0
    4.7614  -12.9925  -16.3784 H   0  0  0  0  0  0  0  0  0  0  0  0
    3.6703  -11.5655  -16.3784 H   0  0  0  0  0  0  0  0  0  0  0  0
    1.0564  -13.6590  -14.7557 H   0  0  0  0  0  0  0  0  0  0  0  0
    2.5980  -13.7545  -13.8049 H   0  0  0  0  0  0  0  0  0  0  0  0
    2.7279  -11.1829  -14.6269 H   0  0  0  0  0  0  0  0  0  0  0  0
    0.9213  -11.4183  -14.5439 H   0  0  0  0  0  0  0  0  0  0  0  0
    1.0400  -11.5350  -12.2650 H   0  0  0  0  0  0  0  0  0  0  0  0
    4.7114  -10.3240  -10.3301 H   0  0  0  0  0  0  0  0  0  0  0  0
    4.4788  -10.1426   -7.8587 H   0  0  0  0  0  0  0  0  0  0  0  0
    2.3896  -13.4134   -5.9247 H   0  0  0  0  0  0  0  0  0  0  0  0
    2.2155  -13.1863   -3.4554 H   0  0  0  0  0  0  0  0  0  0  0  0
    2.2085  -11.6881   -0.0467 H   0  0  0  0  0  0  0  0  0  0  0  0
    1.1714  -12.4703   -1.2874 H   0  0  0  0  0  0  0  0  0  0  0  0
    2.9444  -12.7585   -1.2874 H   0  0  0  0  0  0  0  0  0  0  0  0
    2.3635   -9.4438   -0.4180 H   0  0  0  0  0  0  0  0  0  0  0  0
    2.8510   -7.8160   -4.2920 H   0  0  0  0  0  0  0  0  0  0  0  0
    2.8682   -9.1349   -6.2975 H   0  0  0  0  0  0  0  0  0  0  0  0
    1.2695  -12.9415  -10.4574 H   0  0  0  0  0  0  0  0  0  0  0  0
  1  2  1  0
  2  3  1  0
  3  4  1  0
  4  5  1  0
  5  6  1  0
  6  7  2  0
  6  8  1  0
  8  9  2  0
  9 10  1  0
 10 11  2  0
 11 12  1  0
 12 13  2  0
 13 14  1  0
 14 15  2  0
 15 16  1  0
 16 17  1  0
 16 18  2  0
 18 19  1  0
 19 20  2  0
 19 21  1  0
 21 22  1  0
 22 23  2  0
 11 24  1  0
 24 25  1  0
 24 26  2  0
 26  8  1  0
 23 12  1  0
 22 15  1  0
  1 27  1  0
  1 28  1  0
  1 29  1  0
  3 30  1  0
  3 31  1  0
  4 32  1  0
  4 33  1  0
  5 34  1  0
  9 35  1  0
 10 36  1  0
 13 37  1  0
 14 38  1  0
 17 39  1  0
 17 40  1  0
 17 41  1  0
 18 42  1  0
 21 43  1  0
 23 44  1  0
 26 45  1  0
M  END
>  <meeko>  (4) 
{"is_sidechain": [false], "free_energy": -9.3, "intermolecular_energy": -12.411, "internal_energy": -0.226}

$$$$
4j3l_ligand
     RDKit          3D

 45 47  0  0  0  0  0  0  0  0999 V2000
    3.7910  -12.0790  -15.9650 C   0  0  0  0  0  0  0  0  0  0  0  0
    2.3900  -12.0410  -16.2140 O   0  0  0  0  0  0  0  0  0  0  0  0
    1.6330  -11.7100  -15.0480 C   0  0  0  0  0  0  0  0  0  0  0  0
    1.6520  -12.8440  -14.0190 C   0  0  0  0  0  0  0  0  0  0  0  0
    1.7750  -12.3690  -12.6530 N   0  0  0  0  0  0  0  0  0  0  0  0
    3.0080  -12.0490  -12.1250 C   0  0  0  0  0  0  0  0  0  0  0  0
    4.0510  -12.1160  -12.7640 O   0  0  0  0  0  0  0  0  0  0  0  0
    3.0340  -11.6460  -10.6930 C   0  0  0  0  0  0  0  0  0  0  0  0
    3.6570  -10.4700  -10.2630 C   0  0  0  0  0  0  0  0  0  0  0  0
    3.6620  -10.1380   -8.9050 C   0  0  0  0  0  0  0  0  0  0  0  0
    3.0530  -10.9710   -7.9490 C   0  0  0  0  0  0  0  0  0  0  0  0
    3.0850  -10.5730   -6.5350 C   0  0  0  0  0  0  0  0  0  0  0  0
    2.0590   -9.7920   -5.9840 C   0  0  0  0  0  0  0  0  0  0  0  0
    2.0900   -9.4020   -4.6400 C   0  0  0  0  0  0  0  0  0  0  0  0
    3.1510   -9.7810   -3.8100 C   0  0  0  0  0  0  0  0  0  0  0  0
    3.2380   -9.3990   -2.3820 C   0  0  0  0  0  0  0  0  0  0  0  0
    2.1540   -8.5700   -1.7590 C   0  0  0  0  0  0  0  0  0  0  0  0
    4.2980   -9.8090   -1.6650 C   0  0  0  0  0  0  0  0  0  0  0  0
    5.3830  -10.6310   -2.2490 C   0  0  0  0  0  0  0  0  0  0  0  0
    6.3370  -10.9870   -1.5680 O   0  0  0  0  0  0  0  0  0  0  0  0
    5.2580  -10.9590   -3.5670 N   0  0  0  0  0  0  0  0  0  0  0  0
    4.1790  -10.5620   -4.3660 C   0  0  0  0  0  0  0  0  0  0  0  0
    4.1510  -10.9530   -5.7080 C   0  0  0  0  0  0  0  0  0  0  0  0
    2.4460  -12.1600   -8.3970 C   0  0  0  0  0  0  0  0  0  0  0  0
    1.6920  -13.2660   -7.2990 Cl  0  0  0  0  0  0  0  0  0  0  0  0
    2.4400  -12.4970   -9.7540 C   0  0  0  0  0  0  0  0  0  0  0  0
    3.9705  -12.0839  -14.8798 H   0  0  0  0  0  0  0  0  0  0  0  0
    4.2182  -12.9891  -16.4114 H   0  0  0  0  0  0  0  0  0  0  0  0
    4.2669  -11.1934  -16.4114 H   0  0  0  0  0  0  0  0  0  0  0  0
    2.0609  -10.8060  -14.5901 H   0  0  0  0  0  0  0  0  0  0  0  0
    0.5897  -11.5416  -15.3531 H   0  0  0  0  0  0  0  0  0  0  0  0
    0.7157  -13.4143  -14.1087 H   0  0  0  0  0  0  0  0  0  0  0  0
    2.5340  -13.4660  -14.2315 H   0  0  0  0  0  0  0  0  0  0  0  0
    0.9850  -12.5040  -12.0380 H   0  0  0  0  0  0  0  0  0  0  0  0
    4.1430   -9.8063  -10.9933 H   0  0  0  0  0  0  0  0  0  0  0  0
    4.1510   -9.2085   -8.5781 H   0  0  0  0  0  0  0  0  0  0  0  0
    1.2160   -9.4807   -6.6183 H   0  0  0  0  0  0  0  0  0  0  0  0
    1.2714   -8.7910   -4.2318 H   0  0  0  0  0  0  0  0  0  0  0  0
    2.2312   -8.6290   -0.6633 H   0  0  0  0  0  0  0  0  0  0  0  0
    2.2636   -7.5231   -2.0784 H   0  0  0  0  0  0  0  0  0  0  0  0
    1.1724   -8.9500   -2.0784 H   0  0  0  0  0  0  0  0  0  0  0  0
    4.3623   -9.5235   -0.6047 H   0  0  0  0  0  0  0  0  0  0  0  0
    6.0020  -11.5260   -3.9510 H   0  0  0  0  0  0  0  0  0  0  0  0
    4.9703  -11.5624   -6.1172 H   0  0  0  0  0  0  0  0  0  0  0  0
    1.9671  -13.4336  -10.0845 H   0  0  0  0  0  0  0  0  0  0  0  0
  1  2  1  0
  2  3  1  0
  3  4  1  0
  4  5  1  0
  5  6  1  0
  6  7  2  0
  6  8  1  0
  8  9  2  0
  9 10  1  0
 10 11  2  0
 11 12  1  0
 12 13  2  0
 13 14  1  0
 14 15  2  0
 15 16  1  0
 16 17  1  0
 16 18  2  0
 18 19  1  0
 19 20  2  0
 19 21  1  0
 21 22  1  0
 22 23  2  0
 11 24  1  0
 24 25  1  0
 24 26  2  0
 26  8  1  0
 23 12  1  0
 22 15  1  0
  1 27  1  0
  1 28  1  0
  1 29  1  0
  3 30  1  0
  3 31  1  0
  4 32  1  0
  4 33  1  0
  5 34  1  0
  9 35  1  0
 10 36  1  0
 13 37  1  0
 14 38  1  0
 17 39  1  0
 17 40  1  0
 17 41  1  0
 18 42  1  0
 21 43  1  0
 23 44  1  0
 26 45  1  0
M  END
>  <meeko>  (5) 
{"is_sidechain": [false], "free_energy": -9.226, "intermolecular_energy": -11.898, "internal_energy": -0.642}

$$$$
4j3l_ligand
     RDKit          3D

 45 47  0  0  0  0  0  0  0  0999 V2000
    8.0650  -12.7070  -13.5050 C   0  0  0  0  0  0  0  0  0  0  0  0
    6.7090  -12.4150  -13.1880 O   0  0  0  0  0  0  0  0  0  0  0  0
    5.8570  -12.4490  -14.3340 C   0  0  0  0  0  0  0  0  0  0  0  0
    4.3770  -12.3860  -13.9430 C   0  0  0  0  0  0  0  0  0  0  0  0
    4.1720  -12.2680  -12.5110 N   0  0  0  0  0  0  0  0  0  0  0  0
    2.9840  -11.7810  -12.0070 C   0  0  0  0  0  0  0  0  0  0  0  0
    2.0400  -11.4480  -12.7120 O   0  0  0  0  0  0  0  0  0  0  0  0
    2.9030  -11.6270  -10.5290 C   0  0  0  0  0  0  0  0  0  0  0  0
    3.6150  -10.6360   -9.8450 C   0  0  0  0  0  0  0  0  0  0  0  0
    3.5100  -10.5370   -8.4540 C   0  0  0  0  0  0  0  0  0  0  0  0
    2.7030  -11.4230   -7.7180 C   0  0  0  0  0  0  0  0  0  0  0  0
    2.6290  -11.2710   -6.2580 C   0  0  0  0  0  0  0  0  0  0  0  0
    2.4550  -12.3870   -5.4280 C   0  0  0  0  0  0  0  0  0  0  0  0
    2.3730  -12.2470   -4.0370 C   0  0  0  0  0  0  0  0  0  0  0  0
    2.4620  -10.9840   -3.4400 C   0  0  0  0  0  0  0  0  0  0  0  0
    2.3830  -10.7740   -1.9760 C   0  0  0  0  0  0  0  0  0  0  0  0
    2.2040  -11.9470   -1.0570 C   0  0  0  0  0  0  0  0  0  0  0  0
    2.4760   -9.5230   -1.4950 C   0  0  0  0  0  0  0  0  0  0  0  0
    2.6560   -8.3450   -2.3740 C   0  0  0  0  0  0  0  0  0  0  0  0
    2.7350   -7.2160   -1.9040 O   0  0  0  0  0  0  0  0  0  0  0  0
    2.7250   -8.5880   -3.7150 N   0  0  0  0  0  0  0  0  0  0  0  0
    2.6340   -9.8680   -4.2750 C   0  0  0  0  0  0  0  0  0  0  0  0
    2.7160  -10.0050   -5.6650 C   0  0  0  0  0  0  0  0  0  0  0  0
    2.0080  -12.4250   -8.4210 C   0  0  0  0  0  0  0  0  0  0  0  0
    1.0090  -13.5810   -7.6070 Cl  0  0  0  0  0  0  0  0  0  0  0  0
    2.1100  -12.5290   -9.8120 C   0  0  0  0  0  0  0  0  0  0  0  0
    8.6403  -12.8309  -12.5757 H   0  0  0  0  0  0  0  0  0  0  0  0
    8.1124  -13.6359  -14.0922 H   0  0  0  0  0  0  0  0  0  0  0  0
    8.4906  -11.8799  -14.0922 H   0  0  0  0  0  0  0  0  0  0  0  0
    6.0922  -11.5892  -14.9785 H   0  0  0  0  0  0  0  0  0  0  0  0
    6.0315  -13.3978  -14.8625 H   0  0  0  0  0  0  0  0  0  0  0  0
    3.9215  -11.5140  -14.4351 H   0  0  0  0  0  0  0  0  0  0  0  0
    3.9118  -13.3294  -14.2648 H   0  0  0  0  0  0  0  0  0  0  0  0
    4.9860  -12.3240  -11.9160 H   0  0  0  0  0  0  0  0  0  0  0  0
    4.2564   -9.9358  -10.4003 H   0  0  0  0  0  0  0  0  0  0  0  0
    4.0693   -9.7511   -7.9254 H   0  0  0  0  0  0  0  0  0  0  0  0
    2.3817  -13.3888   -5.8764 H   0  0  0  0  0  0  0  0  0  0  0  0
    2.2373  -13.1386   -3.4072 H   0  0  0  0  0  0  0  0  0  0  0  0
    2.2561  -11.6058   -0.0126 H   0  0  0  0  0  0  0  0  0  0  0  0
    1.2245  -12.4120   -1.2424 H   0  0  0  0  0  0  0  0  0  0  0  0
    3.0002  -12.6829   -1.2424 H   0  0  0  0  0  0  0  0  0  0  0  0
    2.4162   -9.3680   -0.4076 H   0  0  0  0  0  0  0  0  0  0  0  0
    2.8540   -7.7760   -4.3020 H   0  0  0  0  0  0  0  0  0  0  0  0
    2.8495   -9.1136   -6.2956 H   0  0  0  0  0  0  0  0  0  0  0  0
    1.5649  -13.3227  -10.3439 H   0  0  0  0  0  0  0  0  0  0  0  0
  1  2  1  0
  2  3  1  0
  3  4  1  0
  4  5  1  0
  5  6  1  0
  6  7  2  0
  6  8  1  0
  8  9  2  0
  9 10  1  0
 10 11  2  0
 11 12  1  0
 12 13  2  0
 13 14  1  0
 14 15  2  0
 15 16  1  0
 16 17  1  0
 16 18  2  0
 18 19  1  0
 19 20  2  0
 19 21  1  0
 21 22  1  0
 22 23  2  0
 11 24  1  0
 24 25  1  0
 24 26  2  0
 26  8  1  0
 23 12  1  0
 22 15  1  0
  1 27  1  0
  1 28  1  0
  1 29  1  0
  3 30  1  0
  3 31  1  0
  4 32  1  0
  4 33  1  0
  5 34  1  0
  9 35  1  0
 10 36  1  0
 13 37  1  0
 14 38  1  0
 17 39  1  0
 17 40  1  0
 17 41  1  0
 18 42  1  0
 21 43  1  0
 23 44  1  0
 26 45  1  0
M  END
>  <meeko>  (6) 
{"is_sidechain": [false], "free_energy": -8.758, "intermolecular_energy": -11.799, "internal_energy": -0.137}

$$$$
4j3l_ligand
     RDKit          3D

 45 47  0  0  0  0  0  0  0  0999 V2000
    3.6440  -12.4160  -15.9650 C   0  0  0  0  0  0  0  0  0  0  0  0
    3.1030  -13.5540  -15.3030 O   0  0  0  0  0  0  0  0  0  0  0  0
    1.9250  -13.2480  -14.5560 C   0  0  0  0  0  0  0  0  0  0  0  0
    1.8620  -11.7650  -14.1770 C   0  0  0  0  0  0  0  0  0  0  0  0
    1.8800  -11.5430  -12.7420 N   0  0  0  0  0  0  0  0  0  0  0  0
    3.0250  -11.7680  -12.0080 C   0  0  0  0  0  0  0  0  0  0  0  0
    4.0830  -12.1350  -12.5050 O   0  0  0  0  0  0  0  0  0  0  0  0
    2.9160  -11.5850  -10.5350 C   0  0  0  0  0  0  0  0  0  0  0  0
    3.6390  -10.6010   -9.8540 C   0  0  0  0  0  0  0  0  0  0  0  0
    3.5090  -10.4730   -8.4670 C   0  0  0  0  0  0  0  0  0  0  0  0
    2.6640  -11.3250   -7.7330 C   0  0  0  0  0  0  0  0  0  0  0  0
    2.5630  -11.1440   -6.2770 C   0  0  0  0  0  0  0  0  0  0  0  0
    2.4560   -9.8630   -5.7180 C   0  0  0  0  0  0  0  0  0  0  0  0
    2.3700   -9.6860   -4.3310 C   0  0  0  0  0  0  0  0  0  0  0  0
    2.3900  -10.7870   -3.4680 C   0  0  0  0  0  0  0  0  0  0  0  0
    2.3020  -10.6620   -1.9950 C   0  0  0  0  0  0  0  0  0  0  0  0
    2.1800   -9.3060   -1.3620 C   0  0  0  0  0  0  0  0  0  0  0  0
    2.3320  -11.7770   -1.2460 C   0  0  0  0  0  0  0  0  0  0  0  0
    2.4490  -13.1290   -1.8390 C   0  0  0  0  0  0  0  0  0  0  0  0
    2.4750  -14.1270   -1.1290 O   0  0  0  0  0  0  0  0  0  0  0  0
    2.5250  -13.1950   -3.2000 N   0  0  0  0  0  0  0  0  0  0  0  0
    2.5000  -12.0690   -4.0320 C   0  0  0  0  0  0  0  0  0  0  0  0
    2.5860  -12.2490   -5.4160 C   0  0  0  0  0  0  0  0  0  0  0  0
    1.9590  -12.3220   -8.4320 C   0  0  0  0  0  0  0  0  0  0  0  0
    0.9130  -13.4370   -7.6190 Cl  0  0  0  0  0  0  0  0  0  0  0  0
    2.0860  -12.4540   -9.8180 C   0  0  0  0  0  0  0  0  0  0  0  0
    3.9905  -11.6872  -15.2174 H   0  0  0  0  0  0  0  0  0  0  0  0
    4.4910  -12.7263  -16.5946 H   0  0  0  0  0  0  0  0  0  0  0  0
    2.8687  -11.9550  -16.5946 H   0  0  0  0  0  0  0  0  0  0  0  0
    1.0429  -13.4982  -15.1636 H   0  0  0  0  0  0  0  0  0  0  0  0
    1.9454  -13.8380  -13.6278 H   0  0  0  0  0  0  0  0  0  0  0  0
    2.7281  -11.2529  -14.6215 H   0  0  0  0  0  0  0  0  0  0  0  0
    0.9093  -11.3689  -14.5585 H   0  0  0  0  0  0  0  0  0  0  0  0
    0.9900  -11.4540  -12.2730 H   0  0  0  0  0  0  0  0  0  0  0  0
    4.3096   -9.9280  -10.4084 H   0  0  0  0  0  0  0  0  0  0  0  0
    4.0778   -9.6921   -7.9410 H   0  0  0  0  0  0  0  0  0  0  0  0
    2.4393   -8.9835   -6.3784 H   0  0  0  0  0  0  0  0  0  0  0  0
    2.2859   -8.6707   -3.9161 H   0  0  0  0  0  0  0  0  0  0  0  0
    2.1894   -9.4103   -0.2670 H   0  0  0  0  0  0  0  0  0  0  0  0
    3.0251   -8.6766   -1.6776 H   0  0  0  0  0  0  0  0  0  0  0  0
    1.2361   -8.8376   -1.6776 H   0  0  0  0  0  0  0  0  0  0  0  0
    2.2673  -11.6822   -0.1520 H   0  0  0  0  0  0  0  0  0  0  0  0
    2.5980  -14.1240   -3.5910 H   0  0  0  0  0  0  0  0  0  0  0  0
    2.6722  -13.2640   -5.8311 H   0  0  0  0  0  0  0  0  0  0  0  0
    1.5317  -13.2435  -10.3466 H   0  0  0  0  0  0  0  0  0  0  0  0
  1  2  1  0
  2  3  1  0
  3  4  1  0
  4  5  1  0
  5  6  1  0
  6  7  2  0
  6  8  1  0
  8  9  2  0
  9 10  1  0
 10 11  2  0
 11 12  1  0
 12 13  2  0
 13 14  1  0
 14 15  2  0
 15 16  1  0
 16 17  1  0
 16 18  2  0
 18 19  1  0
 19 20  2  0
 19 21  1  0
 21 22  1  0
 22 23  2  0
 11 24  1  0
 24 25  1  0
 24 26  2  0
 26  8  1  0
 23 12  1  0
 22 15  1  0
  1 27  1  0
  1 28  1  0
  1 29  1  0
  3 30  1  0
  3 31  1  0
  4 32  1  0
  4 33  1  0
  5 34  1  0
  9 35  1  0
 10 36  1  0
 13 37  1  0
 14 38  1  0
 17 39  1  0
 17 40  1  0
 17 41  1  0
 18 42  1  0
 21 43  1  0
 23 44  1  0
 26 45  1  0
M  END
>  <meeko>  (7) 
{"is_sidechain": [false], "free_energy": -8.575, "intermolecular_energy": -11.451, "internal_energy": -0.248}

$$$$
4j3l_ligand
     RDKit          3D

 45 47  0  0  0  0  0  0  0  0999 V2000
    3.6770  -12.4430  -15.4690 C   0  0  0  0  0  0  0  0  0  0  0  0
    2.4210  -13.1110  -15.4800 O   0  0  0  0  0  0  0  0  0  0  0  0
    1.6850  -12.9180  -14.2710 C   0  0  0  0  0  0  0  0  0  0  0  0
    2.3110  -11.8300  -13.3930 C   0  0  0  0  0  0  0  0  0  0  0  0
    2.1520  -12.0850  -11.9730 N   0  0  0  0  0  0  0  0  0  0  0  0
    2.4810  -11.1210  -11.0430 C   0  0  0  0  0  0  0  0  0  0  0  0
    2.8940  -10.0080  -11.3440 O   0  0  0  0  0  0  0  0  0  0  0  0
    2.3550  -11.5080   -9.6120 C   0  0  0  0  0  0  0  0  0  0  0  0
    1.3550  -12.3770   -9.1620 C   0  0  0  0  0  0  0  0  0  0  0  0
    1.2730  -12.7050   -7.8050 C   0  0  0  0  0  0  0  0  0  0  0  0
    2.1780  -12.1700   -6.8700 C   0  0  0  0  0  0  0  0  0  0  0  0
    2.0480  -12.5510   -5.4570 C   0  0  0  0  0  0  0  0  0  0  0  0
    2.5120  -11.7050   -4.4390 C   0  0  0  0  0  0  0  0  0  0  0  0
    2.3990  -12.0680   -3.0910 C   0  0  0  0  0  0  0  0  0  0  0  0
    1.8190  -13.2880   -2.7260 C   0  0  0  0  0  0  0  0  0  0  0  0
    1.6720  -13.7240   -1.3180 C   0  0  0  0  0  0  0  0  0  0  0  0
    2.1520  -12.8410   -0.2040 C   0  0  0  0  0  0  0  0  0  0  0  0
    1.1030  -14.9150   -1.0650 C   0  0  0  0  0  0  0  0  0  0  0  0
    0.6170  -15.8080   -2.1410 C   0  0  0  0  0  0  0  0  0  0  0  0
    0.1040  -16.8890   -1.8770 O   0  0  0  0  0  0  0  0  0  0  0  0
    0.7720  -15.3630   -3.4220 N   0  0  0  0  0  0  0  0  0  0  0  0
    1.3570  -14.1330   -3.7480 C   0  0  0  0  0  0  0  0  0  0  0  0
    1.4680  -13.7740   -5.0950 C   0  0  0  0  0  0  0  0  0  0  0  0
    3.1670  -11.2830   -7.3370 C   0  0  0  0  0  0  0  0  0  0  0  0
    4.3130  -10.5520   -6.2650 Cl  0  0  0  0  0  0  0  0  0  0  0  0
    3.2520  -10.9520   -8.6930 C   0  0  0  0  0  0  0  0  0  0  0  0
    3.9936  -12.2746  -14.4291 H   0  0  0  0  0  0  0  0  0  0  0  0
    4.4260  -13.0619  -15.9847 H   0  0  0  0  0  0  0  0  0  0  0  0
    3.5825  -11.4760  -15.9847 H   0  0  0  0  0  0  0  0  0  0  0  0
    0.6557  -12.6235  -14.5236 H   0  0  0  0  0  0  0  0  0  0  0  0
    1.6983  -13.8626  -13.7075 H   0  0  0  0  0  0  0  0  0  0  0  0
    3.3857  -11.7716  -13.6203 H   0  0  0  0  0  0  0  0  0  0  0  0
    1.7915  -10.8868  -13.6178 H   0  0  0  0  0  0  0  0  0  0  0  0
    2.0260  -13.0430  -11.6810 H   0  0  0  0  0  0  0  0  0  0  0  0
    0.6336  -12.8021   -9.8753 H   0  0  0  0  0  0  0  0  0  0  0  0
    0.4867  -13.3938   -7.4624 H   0  0  0  0  0  0  0  0  0  0  0  0
    2.9718  -10.7414   -4.7035 H   0  0  0  0  0  0  0  0  0  0  0  0
    2.7701  -11.3869   -2.3110 H   0  0  0  0  0  0  0  0  0  0  0  0
    1.9015  -13.3017    0.7629 H   0  0  0  0  0  0  0  0  0  0  0  0
    3.2423  -12.7159   -0.2791 H   0  0  0  0  0  0  0  0  0  0  0  0
    1.6641  -11.8580   -0.2791 H   0  0  0  0  0  0  0  0  0  0  0  0
    0.9944  -15.2383   -0.0192 H   0  0  0  0  0  0  0  0  0  0  0  0
    0.4290  -15.9790   -4.1460 H   0  0  0  0  0  0  0  0  0  0  0  0
    1.0978  -14.4557   -5.8749 H   0  0  0  0  0  0  0  0  0  0  0  0
    4.0269  -10.2519   -9.0386 H   0  0  0  0  0  0  0  0  0  0  0  0
  1  2  1  0
  2  3  1  0
  3  4  1  0
  4  5  1  0
  5  6  1  0
  6  7  2  0
  6  8  1  0
  8  9  2  0
  9 10  1  0
 10 11  2  0
 11 12  1  0
 12 13  2  0
 13 14  1  0
 14 15  2  0
 15 16  1  0
 16 17  1  0
 16 18  2  0
 18 19  1  0
 19 20  2  0
 19 21  1  0
 21 22  1  0
 22 23  2  0
 11 24  1  0
 24 25  1  0
 24 26  2  0
 26  8  1  0
 23 12  1  0
 22 15  1  0
  1 27  1  0
  1 28  1  0
  1 29  1  0
  3 30  1  0
  3 31  1  0
  4 32  1  0
  4 33  1  0
  5 34  1  0
  9 35  1  0
 10 36  1  0
 13 37  1  0
 14 38  1  0
 17 39  1  0
 17 40  1  0
 17 41  1  0
 18 42  1  0
 21 43  1  0
 23 44  1  0
 26 45  1  0
M  END
>  <meeko>  (8) 
{"is_sidechain": [false], "free_energy": -8.51, "intermolecular_energy": -11.589, "internal_energy": -0.027}

$$$$
