1o0h_ligand
     RDKit          3D

 39 41  0  0  0  0  0  0  0  0999 V2000
   34.3350   -5.6110   10.8410 N   0  0  0  0  0  0  0  0  0  0  0  0
   35.2720   -4.9560   11.6520 C   0  0  0  0  0  0  0  0  0  0  0  0
   35.9820   -5.7100   12.5230 N   0  0  0  0  0  0  0  0  0  0  0  0
   36.9360   -5.0990   13.2800 C   0  0  0  0  0  0  0  0  0  0  0  0
   37.2510   -3.7970   13.2660 N   0  0  0  0  0  0  0  0  0  0  0  0
   36.5450   -3.1030   12.3800 C   0  0  0  0  0  0  0  0  0  0  0  0
   35.5530   -3.5830   11.5490 C   0  0  0  0  0  0  0  0  0  0  0  0
   35.0520   -2.5670   10.7460 N   0  0  0  0  0  0  0  0  0  0  0  0
   35.7450   -1.5010   11.1070 C   0  0  0  0  0  0  0  0  0  0  0  0
   36.6650   -1.7800   12.0890 N   0  0  0  0  0  0  0  0  0  0  0  0
   37.6190   -0.8480   12.6490 C   0  0  2  0  0  0  0  0  0  0  0  0
   36.9310    0.0530   13.5520 O   0  0  0  0  0  0  0  0  0  0  0  0
   37.5050    1.3790   13.3440 C   0  0  2  0  0  0  0  0  0  0  0  0
   36.5360    2.3330   12.6350 C   0  0  0  0  0  0  0  0  0  0  0  0
   35.9470    3.1590   13.6280 O   0  0  0  0  0  0  0  0  0  0  0  0
   36.0990    4.7710   13.4470 P   0  0  1  0  0  5  0  0  0  0  0  0
   34.7180    5.2370   12.9890 O   0  0  0  0  0  0  0  0  0  0  0  0
   36.5520    5.3410   14.7840 O   0  0  0  0  0  0  0  0  0  0  0  0
   37.1490    4.9350   12.2590 O   0  0  0  0  0  0  0  0  0  0  0  0
   38.5610    5.6680   11.9950 P   0  0  0  0  0  0  0  0  0  0  0  0
   39.4140    5.2940   13.2100 O   0  0  0  0  0  0  0  0  0  0  0  0
   38.2730    7.1640   11.9320 O   0  0  0  0  0  0  0  0  0  0  0  0
   39.1310    5.1050   10.6970 O   0  0  0  0  0  0  0  0  0  0  0  0
   38.8070    1.1510   12.5720 C   0  0  1  0  0  0  0  0  0  0  0  0
   39.8410    0.7270   13.5020 O   0  0  0  0  0  0  0  0  0  0  0  0
   38.4160   -0.0020   11.6580 C   0  0  1  0  0  0  0  0  0  0  0  0
   39.5510   -0.6800   11.1020 O   0  0  0  0  0  0  0  0  0  0  0  0
   34.7710   -6.4070   10.3940 H   0  0  0  0  0  0  0  0  0  0  0  0
   33.5260   -5.7960   11.4240 H   0  0  0  0  0  0  0  0  0  0  0  0
   37.5041   -5.7385   13.9715 H   0  0  0  0  0  0  0  0  0  0  0  0
   35.6013   -0.5018   10.6701 H   0  0  0  0  0  0  0  0  0  0  0  0
   38.3595   -1.4903   13.1482 H   0  0  0  0  0  0  0  0  0  0  0  0
   37.7074    1.8839   14.3001 H   0  0  0  0  0  0  0  0  0  0  0  0
   37.0826    2.9515   11.9079 H   0  0  0  0  0  0  0  0  0  0  0  0
   35.7634    1.7680   12.0930 H   0  0  0  0  0  0  0  0  0  0  0  0
   39.1949    2.0321   12.0398 H   0  0  0  0  0  0  0  0  0  0  0  0
   40.5170    1.4240   13.4170 H   0  0  0  0  0  0  0  0  0  0  0  0
   37.8618    0.2814   10.7510 H   0  0  0  0  0  0  0  0  0  0  0  0
   39.1360   -1.4090   10.5990 H   0  0  0  0  0  0  0  0  0  0  0  0
  1  2  1  0
  2  3  2  0
  3  4  1  0
  4  5  2  0
  5  6  1  0
  6  7  2  0
  7  8  1  0
  8  9  2  0
  9 10  1  0
 10 11  1  0
 11 12  1  0
 12 13  1  0
 13 14  1  0
 14 15  1  0
 15 16  1  0
 16 17  2  0
 16 18  1  1
 16 19  1  0
 19 20  1  0
 20 21  2  0
 20 22  1  0
 20 23  1  0
 13 24  1  0
 24 25  1  0
 24 26  1  0
 26 27  1  0
  7  2  1  0
 26 11  1  0
 10  6  1  0
  1 28  1  0
  1 29  1  0
  4 30  1  0
  9 31  1  0
 11 32  1  1
 13 33  1  1
 14 34  1  0
 14 35  1  0
 24 36  1  6
 25 37  1  0
 26 38  1  6
 27 39  1  0
M  CHG  3  18  -1  22  -1  23  -1
M  END
>  <meeko>  (1) 
{"is_sidechain": [false], "free_energy": -6.875, "intermolecular_energy": -9.889, "internal_energy": -0.847}

$$$$
1o0h_ligand
     RDKit          3D

 39 41  0  0  0  0  0  0  0  0999 V2000
   32.3820   -6.3270   11.4030 N   0  0  0  0  0  0  0  0  0  0  0  0
   33.4280   -6.2660   12.3340 C   0  0  0  0  0  0  0  0  0  0  0  0
   33.6070   -7.3330   13.1470 N   0  0  0  0  0  0  0  0  0  0  0  0
   34.6510   -7.3150   14.0210 C   0  0  0  0  0  0  0  0  0  0  0  0
   35.5400   -6.3250   14.1780 N   0  0  0  0  0  0  0  0  0  0  0  0
   35.3390   -5.3100   13.3440 C   0  0  0  0  0  0  0  0  0  0  0  0
   34.3300   -5.1900   12.4110 C   0  0  0  0  0  0  0  0  0  0  0  0
   34.4500   -3.9990   11.7090 N   0  0  0  0  0  0  0  0  0  0  0  0
   35.5200   -3.4260   12.2300 C   0  0  0  0  0  0  0  0  0  0  0  0
   36.0950   -4.1870   13.2200 N   0  0  0  0  0  0  0  0  0  0  0  0
   37.3110   -3.8710   13.9370 C   0  0  2  0  0  0  0  0  0  0  0  0
   37.2710   -2.4840   14.3560 O   0  0  0  0  0  0  0  0  0  0  0  0
   38.6140   -1.9470   14.1650 C   0  0  2  0  0  0  0  0  0  0  0  0
   38.6880   -0.9530   12.9990 C   0  0  0  0  0  0  0  0  0  0  0  0
   38.2750    0.3120   13.4900 O   0  0  0  0  0  0  0  0  0  0  0  0
   39.1750    1.6060   13.0780 P   0  0  1  0  0  5  0  0  0  0  0  0
   39.7200    2.1320   14.4050 O   0  0  0  0  0  0  0  0  0  0  0  0
   40.2370    1.1320   12.0960 O   0  0  0  0  0  0  0  0  0  0  0  0
   38.1200    2.6410   12.4770 O   0  0  0  0  0  0  0  0  0  0  0  0
   36.8350    3.4750   12.9780 P   0  0  0  0  0  0  0  0  0  0  0  0
   36.4050    4.2820   11.7500 O   0  0  0  0  0  0  0  0  0  0  0  0
   37.3100    4.3700   14.1180 O   0  0  0  0  0  0  0  0  0  0  0  0
   35.7740    2.4650   13.4030 O   0  0  0  0  0  0  0  0  0  0  0  0
   39.5260   -3.1630   13.9860 C   0  0  1  0  0  0  0  0  0  0  0  0
   39.8180   -3.7320   15.2920 O   0  0  0  0  0  0  0  0  0  0  0  0
   38.6260   -4.1000   13.1940 C   0  0  1  0  0  0  0  0  0  0  0  0
   39.0760   -5.4610   13.2230 O   0  0  0  0  0  0  0  0  0  0  0  0
   32.5990   -7.0180   10.6950 H   0  0  0  0  0  0  0  0  0  0  0  0
   31.5290   -6.4630   11.9330 H   0  0  0  0  0  0  0  0  0  0  0  0
   34.7769   -8.2006   14.6613 H   0  0  0  0  0  0  0  0  0  0  0  0
   35.9079   -2.4485   11.9075 H   0  0  0  0  0  0  0  0  0  0  0  0
   37.3200   -4.5831   14.7754 H   0  0  0  0  0  0  0  0  0  0  0  0
   38.9349   -1.3496   15.0312 H   0  0  0  0  0  0  0  0  0  0  0  0
   39.7199   -0.8913   12.6231 H   0  0  0  0  0  0  0  0  0  0  0  0
   38.0400   -1.2777   12.1715 H   0  0  0  0  0  0  0  0  0  0  0  0
   40.4916   -2.9549   13.5020 H   0  0  0  0  0  0  0  0  0  0  0  0
   38.9400   -3.7840   15.7140 H   0  0  0  0  0  0  0  0  0  0  0  0
   38.5791   -3.9067   12.1121 H   0  0  0  0  0  0  0  0  0  0  0  0
   38.6150   -5.8200   14.0060 H   0  0  0  0  0  0  0  0  0  0  0  0
  1  2  1  0
  2  3  2  0
  3  4  1  0
  4  5  2  0
  5  6  1  0
  6  7  2  0
  7  8  1  0
  8  9  2  0
  9 10  1  0
 10 11  1  0
 11 12  1  0
 12 13  1  0
 13 14  1  0
 14 15  1  0
 15 16  1  0
 16 17  2  0
 16 18  1  6
 16 19  1  0
 19 20  1  0
 20 21  2  0
 20 22  1  0
 20 23  1  0
 13 24  1  0
 24 25  1  0
 24 26  1  0
 26 27  1  0
  7  2  1  0
 26 11  1  0
 10  6  1  0
  1 28  1  0
  1 29  1  0
  4 30  1  0
  9 31  1  0
 11 32  1  1
 13 33  1  1
 14 34  1  0
 14 35  1  0
 24 36  1  6
 25 37  1  0
 26 38  1  6
 27 39  1  0
M  CHG  3  18  -1  22  -1  23  -1
M  END
>  <meeko>  (2) 
{"is_sidechain": [false], "free_energy": -6.704, "intermolecular_energy": -9.697, "internal_energy": -0.794}

$$$$
1o0h_ligand
     RDKit          3D

 39 41  0  0  0  0  0  0  0  0999 V2000
   35.1820   -7.3060   14.4260 N   0  0  0  0  0  0  0  0  0  0  0  0
   35.1040   -6.3400   13.4130 C   0  0  0  0  0  0  0  0  0  0  0  0
   34.1300   -6.4850   12.4840 N   0  0  0  0  0  0  0  0  0  0  0  0
   34.0050   -5.5270   11.5230 C   0  0  0  0  0  0  0  0  0  0  0  0
   34.7650   -4.4330   11.3850 N   0  0  0  0  0  0  0  0  0  0  0  0
   35.6910   -4.3230   12.3320 C   0  0  0  0  0  0  0  0  0  0  0  0
   35.9350   -5.2080   13.3620 C   0  0  0  0  0  0  0  0  0  0  0  0
   36.9700   -4.7510   14.1660 N   0  0  0  0  0  0  0  0  0  0  0  0
   37.3300   -3.6090   13.6090 C   0  0  0  0  0  0  0  0  0  0  0  0
   36.5780   -3.3060   12.4990 N   0  0  0  0  0  0  0  0  0  0  0  0
   36.6790   -2.0990   11.7070 C   0  0  2  0  0  0  0  0  0  0  0  0
   37.9230   -1.4250   12.0210 O   0  0  0  0  0  0  0  0  0  0  0  0
   37.6310    0.0040   12.0600 C   0  0  2  0  0  0  0  0  0  0  0  0
   37.6750    0.5750   13.4820 C   0  0  0  0  0  0  0  0  0  0  0  0
   37.0110    1.8280   13.4600 O   0  0  0  0  0  0  0  0  0  0  0  0
   37.9380    3.1670   13.3920 P   0  0  1  0  0  5  0  0  0  0  0  0
   38.6830    3.1850   14.7260 O   0  0  0  0  0  0  0  0  0  0  0  0
   38.8320    3.0430   12.1650 O   0  0  0  0  0  0  0  0  0  0  0  0
   36.8900    4.3670   13.3390 O   0  0  0  0  0  0  0  0  0  0  0  0
   36.8160    5.9190   13.7720 P   0  0  0  0  0  0  0  0  0  0  0  0
   36.6360    5.8790   15.2920 O   0  0  0  0  0  0  0  0  0  0  0  0
   35.6030    6.5140   13.0630 O   0  0  0  0  0  0  0  0  0  0  0  0
   38.1340    6.5680   13.3650 O   0  0  0  0  0  0  0  0  0  0  0  0
   36.2680    0.1670   11.3810 C   0  0  1  0  0  0  0  0  0  0  0  0
   36.4500    0.1280    9.9390 O   0  0  0  0  0  0  0  0  0  0  0  0
   35.5460   -1.0850   11.8540 C   0  0  1  0  0  0  0  0  0  0  0  0
   34.3900   -1.3930   11.0620 O   0  0  0  0  0  0  0  0  0  0  0  0
   35.9890   -7.8960   14.2690 H   0  0  0  0  0  0  0  0  0  0  0  0
   35.1410   -6.8060   15.3080 H   0  0  0  0  0  0  0  0  0  0  0  0
   33.1994   -5.6662   10.7871 H   0  0  0  0  0  0  0  0  0  0  0  0
   38.1411   -2.9715   13.9907 H   0  0  0  0  0  0  0  0  0  0  0  0
   36.6224   -2.4552   10.6678 H   0  0  0  0  0  0  0  0  0  0  0  0
   38.3989    0.5853   11.5286 H   0  0  0  0  0  0  0  0  0  0  0  0
   37.1646   -0.1082   14.1768 H   0  0  0  0  0  0  0  0  0  0  0  0
   38.7152    0.6941   13.8192 H   0  0  0  0  0  0  0  0  0  0  0  0
   35.7392    1.1031   11.6133 H   0  0  0  0  0  0  0  0  0  0  0  0
   36.8550    0.9930    9.7410 H   0  0  0  0  0  0  0  0  0  0  0  0
   35.1136   -1.0269   12.8638 H   0  0  0  0  0  0  0  0  0  0  0  0
   34.4580   -0.7500   10.3290 H   0  0  0  0  0  0  0  0  0  0  0  0
  1  2  1  0
  2  3  2  0
  3  4  1  0
  4  5  2  0
  5  6  1  0
  6  7  2  0
  7  8  1  0
  8  9  2  0
  9 10  1  0
 10 11  1  0
 11 12  1  0
 12 13  1  0
 13 14  1  0
 14 15  1  0
 15 16  1  0
 16 17  2  0
 16 18  1  6
 16 19  1  0
 19 20  1  0
 20 21  2  0
 20 22  1  0
 20 23  1  0
 13 24  1  0
 24 25  1  0
 24 26  1  0
 26 27  1  0
  7  2  1  0
 26 11  1  0
 10  6  1  0
  1 28  1  0
  1 29  1  0
  4 30  1  0
  9 31  1  0
 11 32  1  6
 13 33  1  6
 14 34  1  0
 14 35  1  0
 24 36  1  6
 25 37  1  0
 26 38  1  1
 27 39  1  0
M  CHG  3  18  -1  22  -1  23  -1
M  END
>  <meeko>  (3) 
{"is_sidechain": [false], "free_energy": -6.629, "intermolecular_energy": -9.488, "internal_energy": -0.894}

$$$$
1o0h_ligand
     RDKit          3D

 39 41  0  0  0  0  0  0  0  0999 V2000
   38.7890   12.6700    6.0830 N   0  0  0  0  0  0  0  0  0  0  0  0
   39.6170   11.6910    5.5150 C   0  0  0  0  0  0  0  0  0  0  0  0
   40.5570   12.1020    4.6310 N   0  0  0  0  0  0  0  0  0  0  0  0
   41.4060   11.1730    4.1110 C   0  0  0  0  0  0  0  0  0  0  0  0
   41.4090    9.8590    4.3750 N   0  0  0  0  0  0  0  0  0  0  0  0
   40.4860    9.5080    5.2630 C   0  0  0  0  0  0  0  0  0  0  0  0
   39.5620   10.3330    5.8720 C   0  0  0  0  0  0  0  0  0  0  0  0
   38.7700    9.6140    6.7570 N   0  0  0  0  0  0  0  0  0  0  0  0
   39.2270    8.3780    6.6640 C   0  0  0  0  0  0  0  0  0  0  0  0
   40.2690    8.2670    5.7760 N   0  0  0  0  0  0  0  0  0  0  0  0
   41.0270    7.0660    5.5000 C   0  0  2  0  0  0  0  0  0  0  0  0
   40.3720    5.9350    6.1260 O   0  0  0  0  0  0  0  0  0  0  0  0
   41.4270    5.0870    6.6730 C   0  0  2  0  0  0  0  0  0  0  0  0
   41.4740    5.1250    8.2050 C   0  0  0  0  0  0  0  0  0  0  0  0
   40.1690    5.4390    8.6650 O   0  0  0  0  0  0  0  0  0  0  0  0
   40.0330    6.0770   10.1580 P   0  0  1  0  0  5  0  0  0  0  0  0
   41.3000    5.6280   10.8840 O   0  0  0  0  0  0  0  0  0  0  0  0
   39.8910    7.5850   10.0000 O   0  0  0  0  0  0  0  0  0  0  0  0
   38.7610    5.3460   10.7820 O   0  0  0  0  0  0  0  0  0  0  0  0
   38.0400    5.2050   12.2180 P   0  0  0  0  0  0  0  0  0  0  0  0
   36.8920    4.2240   11.9700 O   0  0  0  0  0  0  0  0  0  0  0  0
   37.5400    6.5950   12.5960 O   0  0  0  0  0  0  0  0  0  0  0  0
   39.0730    4.6470   13.1920 O   0  0  0  0  0  0  0  0  0  0  0  0
   42.7240    5.5610    6.0130 C   0  0  1  0  0  0  0  0  0  0  0  0
   42.8090    4.9960    4.6760 O   0  0  0  0  0  0  0  0  0  0  0  0
   42.4910    7.0630    5.9350 C   0  0  1  0  0  0  0  0  0  0  0  0
   43.3710    7.7150    5.0100 O   0  0  0  0  0  0  0  0  0  0  0  0
   37.8740   12.2760    6.2600 H   0  0  0  0  0  0  0  0  0  0  0  0
   39.2900   13.0490    6.8790 H   0  0  0  0  0  0  0  0  0  0  0  0
   42.1653   11.5375    3.4035 H   0  0  0  0  0  0  0  0  0  0  0  0
   38.8182    7.5312    7.2347 H   0  0  0  0  0  0  0  0  0  0  0  0
   41.0480    7.0083    4.4017 H   0  0  0  0  0  0  0  0  0  0  0  0
   41.2467    4.0253    6.4488 H   0  0  0  0  0  0  0  0  0  0  0  0
   41.7839    4.1444    8.5955 H   0  0  0  0  0  0  0  0  0  0  0  0
   42.1979    5.8773    8.5514 H   0  0  0  0  0  0  0  0  0  0  0  0
   43.6465    5.2784    6.5414 H   0  0  0  0  0  0  0  0  0  0  0  0
   42.5540    5.7410    4.1020 H   0  0  0  0  0  0  0  0  0  0  0  0
   42.6929    7.6215    6.8609 H   0  0  0  0  0  0  0  0  0  0  0  0
   43.9110    6.9730    4.6730 H   0  0  0  0  0  0  0  0  0  0  0  0
  1  2  1  0
  2  3  2  0
  3  4  1  0
  4  5  2  0
  5  6  1  0
  6  7  2  0
  7  8  1  0
  8  9  2  0
  9 10  1  0
 10 11  1  0
 11 12  1  0
 12 13  1  0
 13 14  1  0
 14 15  1  0
 15 16  1  0
 16 17  2  0
 16 18  1  6
 16 19  1  0
 19 20  1  0
 20 21  2  0
 20 22  1  0
 20 23  1  0
 13 24  1  0
 24 25  1  0
 24 26  1  0
 26 27  1  0
  7  2  1  0
 26 11  1  0
 10  6  1  0
  1 28  1  0
  1 29  1  0
  4 30  1  0
  9 31  1  0
 11 32  1  6
 13 33  1  1
 14 34  1  0
 14 35  1  0
 24 36  1  1
 25 37  1  0
 26 38  1  1
 27 39  1  0
M  CHG  3  18  -1  22  -1  23  -1
M  END
>  <meeko>  (4) 
{"is_sidechain": [false], "free_energy": -6.622, "intermolecular_energy": -9.284, "internal_energy": -1.089}

$$$$
1o0h_ligand
     RDKit          3D

 39 41  0  0  0  0  0  0  0  0999 V2000
   41.3600    9.7350    3.9260 N   0  0  0  0  0  0  0  0  0  0  0  0
   41.6340    8.4900    4.5090 C   0  0  0  0  0  0  0  0  0  0  0  0
   42.5570    7.7050    3.9060 N   0  0  0  0  0  0  0  0  0  0  0  0
   42.8760    6.5150    4.4890 C   0  0  0  0  0  0  0  0  0  0  0  0
   42.3560    6.0170    5.6180 N   0  0  0  0  0  0  0  0  0  0  0  0
   41.4730    6.8320    6.1850 C   0  0  0  0  0  0  0  0  0  0  0  0
   41.0540    8.0600    5.7150 C   0  0  0  0  0  0  0  0  0  0  0  0
   40.1340    8.6300    6.5840 N   0  0  0  0  0  0  0  0  0  0  0  0
   40.0170    7.7420    7.5550 C   0  0  0  0  0  0  0  0  0  0  0  0
   40.8130    6.6400    7.3590 N   0  0  0  0  0  0  0  0  0  0  0  0
   40.9620    5.5250    8.2700 C   0  0  2  0  0  0  0  0  0  0  0  0
   39.7340    5.3550    9.0200 O   0  0  0  0  0  0  0  0  0  0  0  0
   40.1180    5.0310   10.3900 C   0  0  2  0  0  0  0  0  0  0  0  0
   39.8340    6.1790   11.3660 C   0  0  0  0  0  0  0  0  0  0  0  0
   38.4250    6.3020   11.4830 O   0  0  0  0  0  0  0  0  0  0  0  0
   37.7160    5.6020   12.7720 P   0  0  1  0  0  5  0  0  0  0  0  0
   38.8170    5.5390   13.8290 O   0  0  0  0  0  0  0  0  0  0  0  0
   36.5140    6.4560   13.1530 O   0  0  0  0  0  0  0  0  0  0  0  0
   37.3600    4.1300   12.2710 O   0  0  0  0  0  0  0  0  0  0  0  0
   36.8710    2.7300   12.9050 P   0  0  0  0  0  0  0  0  0  0  0  0
   35.5710    3.0790   13.6350 O   0  0  0  0  0  0  0  0  0  0  0  0
   37.9670    2.2770   13.8640 O   0  0  0  0  0  0  0  0  0  0  0  0
   36.6400    1.7630   11.7490 O   0  0  0  0  0  0  0  0  0  0  0  0
   41.5960    4.6400   10.3250 C   0  0  1  0  0  0  0  0  0  0  0  0
   41.7030    3.2690    9.8510 O   0  0  0  0  0  0  0  0  0  0  0  0
   42.1160    5.6030    9.2680 C   0  0  1  0  0  0  0  0  0  0  0  0
   43.3800    5.2020    8.7220 O   0  0  0  0  0  0  0  0  0  0  0  0
   41.7650   10.4700    4.4910 H   0  0  0  0  0  0  0  0  0  0  0  0
   41.6640    9.6760    2.9600 H   0  0  0  0  0  0  0  0  0  0  0  0
   43.6362    5.9029    3.9816 H   0  0  0  0  0  0  0  0  0  0  0  0
   39.3553    7.8709    8.4243 H   0  0  0  0  0  0  0  0  0  0  0  0
   41.1980    4.6734    7.6149 H   0  0  0  0  0  0  0  0  0  0  0  0
   39.5174    4.2009   10.7902 H   0  0  0  0  0  0  0  0  0  0  0  0
   40.2740    5.9538   12.3487 H   0  0  0  0  0  0  0  0  0  0  0  0
   40.2752    7.1173   10.9987 H   0  0  0  0  0  0  0  0  0  0  0  0
   42.1349    4.6930   11.2825 H   0  0  0  0  0  0  0  0  0  0  0  0
   41.3290    3.3140    8.9520 H   0  0  0  0  0  0  0  0  0  0  0  0
   42.3433    6.6182    9.6255 H   0  0  0  0  0  0  0  0  0  0  0  0
   43.4260    4.2560    8.9680 H   0  0  0  0  0  0  0  0  0  0  0  0
  1  2  1  0
  2  3  2  0
  3  4  1  0
  4  5  2  0
  5  6  1  0
  6  7  2  0
  7  8  1  0
  8  9  2  0
  9 10  1  0
 10 11  1  0
 11 12  1  0
 12 13  1  0
 13 14  1  0
 14 15  1  0
 15 16  1  0
 16 17  2  0
 16 18  1  1
 16 19  1  0
 19 20  1  0
 20 21  2  0
 20 22  1  0
 20 23  1  0
 13 24  1  0
 24 25  1  0
 24 26  1  0
 26 27  1  0
  7  2  1  0
 26 11  1  0
 10  6  1  0
  1 28  1  0
  1 29  1  0
  4 30  1  0
  9 31  1  0
 11 32  1  6
 13 33  1  1
 14 34  1  0
 14 35  1  0
 24 36  1  1
 25 37  1  0
 26 38  1  1
 27 39  1  0
M  CHG  3  18  -1  22  -1  23  -1
M  END
>  <meeko>  (5) 
{"is_sidechain": [false], "free_energy": -6.554, "intermolecular_energy": -9.312, "internal_energy": -0.962}

$$$$
1o0h_ligand
     RDKit          3D

 39 41  0  0  0  0  0  0  0  0999 V2000
   40.2740    2.9240   14.8930 N   0  0  0  0  0  0  0  0  0  0  0  0
   39.1350    2.5490   14.1670 C   0  0  0  0  0  0  0  0  0  0  0  0
   38.5030    3.5100   13.4540 N   0  0  0  0  0  0  0  0  0  0  0  0
   37.4260    3.1540   12.6990 C   0  0  0  0  0  0  0  0  0  0  0  0
   36.9010    1.9260   12.5900 N   0  0  0  0  0  0  0  0  0  0  0  0
   37.5680    1.0140   13.2890 C   0  0  0  0  0  0  0  0  0  0  0  0
   38.6700    1.2250   14.0930 C   0  0  0  0  0  0  0  0  0  0  0  0
   39.1060    0.0310   14.6500 N   0  0  0  0  0  0  0  0  0  0  0  0
   38.2650   -0.8710   14.1760 C   0  0  0  0  0  0  0  0  0  0  0  0
   37.3210   -0.3220   13.3430 N   0  0  0  0  0  0  0  0  0  0  0  0
   36.3030   -1.0500   12.6160 C   0  0  2  0  0  0  0  0  0  0  0  0
   35.9650   -2.2550   13.3460 O   0  0  0  0  0  0  0  0  0  0  0  0
   35.7920   -3.3140   12.3560 C   0  0  2  0  0  0  0  0  0  0  0  0
   36.9270   -4.3440   12.3950 C   0  0  0  0  0  0  0  0  0  0  0  0
   36.5590   -5.3500   13.3250 O   0  0  0  0  0  0  0  0  0  0  0  0
   36.7700   -6.9020   12.8730 P   0  0  1  0  0  5  0  0  0  0  0  0
   37.6310   -6.8210   11.6140 O   0  0  0  0  0  0  0  0  0  0  0  0
   37.4170   -7.6350   14.0410 O   0  0  0  0  0  0  0  0  0  0  0  0
   35.3040   -7.4030   12.4980 O   0  0  0  0  0  0  0  0  0  0  0  0
   34.0210   -6.8630   11.6820 P   0  0  0  0  0  0  0  0  0  0  0  0
   33.2750   -8.1340   11.2670 O   0  0  0  0  0  0  0  0  0  0  0  0
   34.5580   -6.0910   10.4820 O   0  0  0  0  0  0  0  0  0  0  0  0
   33.2030   -6.0030   12.6390 O   0  0  0  0  0  0  0  0  0  0  0  0
   35.6620   -2.6020   11.0070 C   0  0  1  0  0  0  0  0  0  0  0  0
   34.3060   -2.0960   10.8680 O   0  0  0  0  0  0  0  0  0  0  0  0
   36.6380   -1.4490   11.1800 C   0  0  1  0  0  0  0  0  0  0  0  0
   36.4330   -0.3980   10.2260 O   0  0  0  0  0  0  0  0  0  0  0  0
   39.9970    3.2770   15.8000 H   0  0  0  0  0  0  0  0  0  0  0  0
   40.9020    2.1270   14.8800 H   0  0  0  0  0  0  0  0  0  0  0  0
   36.9393    3.9540   12.1218 H   0  0  0  0  0  0  0  0  0  0  0  0
   38.3152   -1.9422   14.4211 H   0  0  0  0  0  0  0  0  0  0  0  0
   35.4694   -0.3367   12.5361 H   0  0  0  0  0  0  0  0  0  0  0  0
   34.8944   -3.9156   12.5621 H   0  0  0  0  0  0  0  0  0  0  0  0
   37.0662   -4.7872   11.3979 H   0  0  0  0  0  0  0  0  0  0  0  0
   37.8722   -3.8674   12.6941 H   0  0  0  0  0  0  0  0  0  0  0  0
   35.8635   -3.2298   10.1265 H   0  0  0  0  0  0  0  0  0  0  0  0
   34.4400   -1.1710   10.5910 H   0  0  0  0  0  0  0  0  0  0  0  0
   37.6961   -1.6974   11.0103 H   0  0  0  0  0  0  0  0  0  0  0  0
   35.5940    0.0020   10.5290 H   0  0  0  0  0  0  0  0  0  0  0  0
  1  2  1  0
  2  3  2  0
  3  4  1  0
  4  5  2  0
  5  6  1  0
  6  7  2  0
  7  8  1  0
  8  9  2  0
  9 10  1  0
 10 11  1  0
 11 12  1  0
 12 13  1  0
 13 14  1  0
 14 15  1  0
 15 16  1  0
 16 17  2  0
 16 18  1  1
 16 19  1  0
 19 20  1  0
 20 21  2  0
 20 22  1  0
 20 23  1  0
 13 24  1  0
 24 25  1  0
 24 26  1  0
 26 27  1  0
  7  2  1  0
 26 11  1  0
 10  6  1  0
  1 28  1  0
  1 29  1  0
  4 30  1  0
  9 31  1  0
 11 32  1  6
 13 33  1  1
 14 34  1  0
 14 35  1  0
 24 36  1  6
 25 37  1  0
 26 38  1  1
 27 39  1  0
M  CHG  3  18  -1  22  -1  23  -1
M  END
>  <meeko>  (6) 
{"is_sidechain": [false], "free_energy": -6.538, "intermolecular_energy": -9.084, "internal_energy": -1.167}

$$$$
1o0h_ligand
     RDKit          3D

 39 41  0  0  0  0  0  0  0  0999 V2000
   35.0570   -3.2960   10.5130 N   0  0  0  0  0  0  0  0  0  0  0  0
   35.9610   -2.9720   11.5350 C   0  0  0  0  0  0  0  0  0  0  0  0
   36.4640   -3.9900   12.2720 N   0  0  0  0  0  0  0  0  0  0  0  0
   37.3850   -3.7000   13.2330 C   0  0  0  0  0  0  0  0  0  0  0  0
   37.8530   -2.4850   13.5460 N   0  0  0  0  0  0  0  0  0  0  0  0
   37.3490   -1.5230   12.7820 C   0  0  0  0  0  0  0  0  0  0  0  0
   36.4150   -1.6640   11.7750 C   0  0  0  0  0  0  0  0  0  0  0  0
   36.1410   -0.4390   11.1850 N   0  0  0  0  0  0  0  0  0  0  0  0
   36.9080    0.4130   11.8420 C   0  0  0  0  0  0  0  0  0  0  0  0
   37.6610   -0.1990   12.8140 N   0  0  0  0  0  0  0  0  0  0  0  0
   38.6450    0.4430   13.6580 C   0  0  2  0  0  0  0  0  0  0  0  0
   38.3350    1.8550   13.7620 O   0  0  0  0  0  0  0  0  0  0  0  0
   39.6060    2.5710   13.7100 C   0  0  2  0  0  0  0  0  0  0  0  0
   39.7950    3.3360   12.3950 C   0  0  0  0  0  0  0  0  0  0  0  0
   39.5860    4.7130   12.6680 O   0  0  0  0  0  0  0  0  0  0  0  0
   38.4080    5.4720   11.8380 P   0  0  1  0  0  5  0  0  0  0  0  0
   38.3670    6.8800   12.4300 O   0  0  0  0  0  0  0  0  0  0  0  0
   38.7760    5.4130   10.3610 O   0  0  0  0  0  0  0  0  0  0  0  0
   37.0800    4.6800   12.2290 O   0  0  0  0  0  0  0  0  0  0  0  0
   35.9530    4.7180   13.3820 P   0  0  0  0  0  0  0  0  0  0  0  0
   35.4780    3.2670   13.4950 O   0  0  0  0  0  0  0  0  0  0  0  0
   34.8510    5.6490   12.8860 O   0  0  0  0  0  0  0  0  0  0  0  0
   36.6270    5.2040   14.6610 O   0  0  0  0  0  0  0  0  0  0  0  0
   40.6870    1.5160   13.9600 C   0  0  1  0  0  0  0  0  0  0  0  0
   40.7670    1.2500   15.3870 O   0  0  0  0  0  0  0  0  0  0  0  0
   40.1060    0.3130   13.2320 C   0  0  1  0  0  0  0  0  0  0  0  0
   40.7150   -0.9240   13.6280 O   0  0  0  0  0  0  0  0  0  0  0  0
   35.1790   -2.6570    9.7380 H   0  0  0  0  0  0  0  0  0  0  0  0
   35.1790   -4.2840   10.3190 H   0  0  0  0  0  0  0  0  0  0  0  0
   37.7838   -4.5480   13.8090 H   0  0  0  0  0  0  0  0  0  0  0  0
   36.9399    1.4926   11.6336 H   0  0  0  0  0  0  0  0  0  0  0  0
   38.5695   -0.0956   14.6141 H   0  0  0  0  0  0  0  0  0  0  0  0
   39.6540    3.3606   14.4744 H   0  0  0  0  0  0  0  0  0  0  0  0
   40.8145    3.1795   12.0128 H   0  0  0  0  0  0  0  0  0  0  0  0
   39.0846    2.9799   11.6344 H   0  0  0  0  0  0  0  0  0  0  0  0
   41.6979    1.7945   13.6275 H   0  0  0  0  0  0  0  0  0  0  0  0
   40.2100    1.9490   15.7760 H   0  0  0  0  0  0  0  0  0  0  0  0
   40.2641    0.2988   12.1435 H   0  0  0  0  0  0  0  0  0  0  0  0
   40.7610   -1.4160   12.7850 H   0  0  0  0  0  0  0  0  0  0  0  0
  1  2  1  0
  2  3  2  0
  3  4  1  0
  4  5  2  0
  5  6  1  0
  6  7  2  0
  7  8  1  0
  8  9  2  0
  9 10  1  0
 10 11  1  0
 11 12  1  0
 12 13  1  0
 13 14  1  0
 14 15  1  0
 15 16  1  0
 16 17  2  0
 16 18  1  6
 16 19  1  0
 19 20  1  0
 20 21  2  0
 20 22  1  0
 20 23  1  0
 13 24  1  0
 24 25  1  0
 24 26  1  0
 26 27  1  0
  7  2  1  0
 26 11  1  0
 10  6  1  0
  1 28  1  0
  1 29  1  0
  4 30  1  0
  9 31  1  0
 11 32  1  1
 13 33  1  1
 14 34  1  0
 14 35  1  0
 24 36  1  6
 25 37  1  0
 26 38  1  6
 27 39  1  0
M  CHG  3  18  -1  22  -1  23  -1
M  END
>  <meeko>  (7) 
{"is_sidechain": [false], "free_energy": -6.481, "intermolecular_energy": -8.862, "internal_energy": -1.308}

$$$$
1o0h_ligand
     RDKit          3D

 39 41  0  0  0  0  0  0  0  0999 V2000
   41.0320   10.8530    3.8770 N   0  0  0  0  0  0  0  0  0  0  0  0
   41.0400   10.0470    5.0240 C   0  0  0  0  0  0  0  0  0  0  0  0
   40.4410   10.5330    6.1360 N   0  0  0  0  0  0  0  0  0  0  0  0
   40.3910    9.7410    7.2440 C   0  0  0  0  0  0  0  0  0  0  0  0
   40.8930    8.5050    7.3620 N   0  0  0  0  0  0  0  0  0  0  0  0
   41.4500    8.0630    6.2400 C   0  0  0  0  0  0  0  0  0  0  0  0
   41.5720    8.7460    5.0470 C   0  0  0  0  0  0  0  0  0  0  0  0
   42.1950    7.9570    4.0910 N   0  0  0  0  0  0  0  0  0  0  0  0
   42.4370    6.8200    4.7200 C   0  0  0  0  0  0  0  0  0  0  0  0
   41.9970    6.8370    6.0220 N   0  0  0  0  0  0  0  0  0  0  0  0
   42.0520    5.7300    6.9520 C   0  0  2  0  0  0  0  0  0  0  0  0
   40.7020    5.3330    7.3010 O   0  0  0  0  0  0  0  0  0  0  0  0
   40.7080    5.0270    8.7280 C   0  0  2  0  0  0  0  0  0  0  0  0
   39.9580    6.0770    9.5560 C   0  0  0  0  0  0  0  0  0  0  0  0
   38.8490    5.4300   10.1610 O   0  0  0  0  0  0  0  0  0  0  0  0
   38.5200    5.8010   11.7130 P   0  0  1  0  0  5  0  0  0  0  0  0
   39.7940    5.4340   12.4740 O   0  0  0  0  0  0  0  0  0  0  0  0
   38.1520    7.2780   11.7640 O   0  0  0  0  0  0  0  0  0  0  0  0
   37.3420    4.8030   12.1130 O   0  0  0  0  0  0  0  0  0  0  0  0
   36.2410    4.6500   13.2810 P   0  0  0  0  0  0  0  0  0  0  0  0
   35.9310    3.1520   13.3150 O   0  0  0  0  0  0  0  0  0  0  0  0
   35.0330    5.4790   12.8550 O   0  0  0  0  0  0  0  0  0  0  0  0
   36.8810    5.1350   14.5770 O   0  0  0  0  0  0  0  0  0  0  0  0
   42.1820    4.8870    9.1160 C   0  0  1  0  0  0  0  0  0  0  0  0
   42.6530    3.5700    8.7170 O   0  0  0  0  0  0  0  0  0  0  0  0
   42.8250    5.9600    8.2490 C   0  0  1  0  0  0  0  0  0  0  0  0
   44.2420    5.7920    8.1150 O   0  0  0  0  0  0  0  0  0  0  0  0
   41.5920   11.6800    4.0410 H   0  0  0  0  0  0  0  0  0  0  0  0
   41.3030   10.2590    3.1020 H   0  0  0  0  0  0  0  0  0  0  0  0
   39.8885   10.1583    8.1291 H   0  0  0  0  0  0  0  0  0  0  0  0
   42.9347    5.9569    4.2537 H   0  0  0  0  0  0  0  0  0  0  0  0
   42.6123    4.9533    6.4109 H   0  0  0  0  0  0  0  0  0  0  0  0
   40.1632    4.0956    8.9417 H   0  0  0  0  0  0  0  0  0  0  0  0
   40.6215    6.4884   10.3309 H   0  0  0  0  0  0  0  0  0  0  0  0
   39.6214    6.9066    8.9169 H   0  0  0  0  0  0  0  0  0  0  0  0
   42.3941    4.9937   10.1901 H   0  0  0  0  0  0  0  0  0  0  0  0
   42.8500    3.6810    7.7690 H   0  0  0  0  0  0  0  0  0  0  0  0
   42.7617    6.9854    8.6422 H   0  0  0  0  0  0  0  0  0  0  0  0
   44.5560    6.7120    8.0150 H   0  0  0  0  0  0  0  0  0  0  0  0
  1  2  1  0
  2  3  2  0
  3  4  1  0
  4  5  2  0
  5  6  1  0
  6  7  2  0
  7  8  1  0
  8  9  2  0
  9 10  1  0
 10 11  1  0
 11 12  1  0
 12 13  1  0
 13 14  1  0
 14 15  1  0
 15 16  1  0
 16 17  2  0
 16 18  1  6
 16 19  1  0
 19 20  1  0
 20 21  2  0
 20 22  1  0
 20 23  1  0
 13 24  1  0
 24 25  1  0
 24 26  1  0
 26 27  1  0
  7  2  1  0
 26 11  1  0
 10  6  1  0
  1 28  1  0
  1 29  1  0
  4 30  1  0
  9 31  1  0
 11 32  1  6
 13 33  1  6
 14 34  1  0
 14 35  1  0
 24 36  1  1
 25 37  1  0
 26 38  1  1
 27 39  1  0
M  CHG  3  18  -1  22  -1  23  -1
M  END
>  <meeko>  (8) 
{"is_sidechain": [false], "free_energy": -6.448, "intermolecular_energy": -9.54, "internal_energy": -0.582}

$$$$
1o0h_ligand
     RDKit          3D

 39 41  0  0  0  0  0  0  0  0999 V2000
   37.4140    4.7130   13.3530 N   0  0  0  0  0  0  0  0  0  0  0  0
   37.9980    3.4770   13.6660 C   0  0  0  0  0  0  0  0  0  0  0  0
   38.9970    3.4710   14.5790 N   0  0  0  0  0  0  0  0  0  0  0  0
   39.5390    2.2730   14.9360 C   0  0  0  0  0  0  0  0  0  0  0  0
   39.1920    1.0680   14.4640 N   0  0  0  0  0  0  0  0  0  0  0  0
   38.1930    1.1240   13.5900 C   0  0  0  0  0  0  0  0  0  0  0  0
   37.5490    2.2560   13.1350 C   0  0  0  0  0  0  0  0  0  0  0  0
   36.5430    1.9220   12.2380 N   0  0  0  0  0  0  0  0  0  0  0  0
   36.6000    0.6040   12.1680 C   0  0  0  0  0  0  0  0  0  0  0  0
   37.5810    0.0770   12.9740 N   0  0  0  0  0  0  0  0  0  0  0  0
   37.8530   -1.3300   13.1720 C   0  0  2  0  0  0  0  0  0  0  0  0
   37.3110   -2.0820   12.0580 O   0  0  0  0  0  0  0  0  0  0  0  0
   36.7310   -3.3000   12.6140 C   0  0  2  0  0  0  0  0  0  0  0  0
   35.1980   -3.2970   12.5630 C   0  0  0  0  0  0  0  0  0  0  0  0
   34.7480   -4.4940   13.1780 O   0  0  0  0  0  0  0  0  0  0  0  0
   34.4680   -5.7750   12.2100 P   0  0  1  0  0  5  0  0  0  0  0  0
   33.0540   -6.2270   12.5720 O   0  0  0  0  0  0  0  0  0  0  0  0
   34.6390   -5.3080   10.7710 O   0  0  0  0  0  0  0  0  0  0  0  0
   35.5270   -6.8670   12.6910 O   0  0  0  0  0  0  0  0  0  0  0  0
   36.9520   -7.4510   12.2120 P   0  0  0  0  0  0  0  0  0  0  0  0
   36.6510   -8.1310   10.8740 O   0  0  0  0  0  0  0  0  0  0  0  0
   37.3970   -8.4470   13.2780 O   0  0  0  0  0  0  0  0  0  0  0  0
   37.9000   -6.2670   12.0560 O   0  0  0  0  0  0  0  0  0  0  0  0
   37.2910   -3.4160   14.0340 C   0  0  1  0  0  0  0  0  0  0  0  0
   38.6400   -3.9550   13.9680 O   0  0  0  0  0  0  0  0  0  0  0  0
   37.3280   -1.9570   14.4620 C   0  0  1  0  0  0  0  0  0  0  0  0
   38.1730   -1.7320   15.5990 O   0  0  0  0  0  0  0  0  0  0  0  0
   37.3670    4.8200   12.3470 H   0  0  0  0  0  0  0  0  0  0  0  0
   36.5390    4.7590   13.8630 H   0  0  0  0  0  0  0  0  0  0  0  0
   40.3422    2.2976   15.6872 H   0  0  0  0  0  0  0  0  0  0  0  0
   35.9365   -0.0039   11.5354 H   0  0  0  0  0  0  0  0  0  0  0  0
   38.9493   -1.3823   13.2458 H   0  0  0  0  0  0  0  0  0  0  0  0
   37.0051   -4.1832   12.0182 H   0  0  0  0  0  0  0  0  0  0  0  0
   34.8059   -2.4250   13.1070 H   0  0  0  0  0  0  0  0  0  0  0  0
   34.8453   -3.2399   11.5227 H   0  0  0  0  0  0  0  0  0  0  0  0
   36.7173   -4.0662   14.7108 H   0  0  0  0  0  0  0  0  0  0  0  0
   39.1740   -3.1870   13.6930 H   0  0  0  0  0  0  0  0  0  0  0  0
   36.3708   -1.5441   14.8132 H   0  0  0  0  0  0  0  0  0  0  0  0
   38.8220   -1.0870   15.2560 H   0  0  0  0  0  0  0  0  0  0  0  0
  1  2  1  0
  2  3  2  0
  3  4  1  0
  4  5  2  0
  5  6  1  0
  6  7  2  0
  7  8  1  0
  8  9  2  0
  9 10  1  0
 10 11  1  0
 11 12  1  0
 12 13  1  0
 13 14  1  0
 14 15  1  0
 15 16  1  0
 16 17  2  0
 16 18  1  6
 16 19  1  0
 19 20  1  0
 20 21  2  0
 20 22  1  0
 20 23  1  0
 13 24  1  0
 24 25  1  0
 24 26  1  0
 26 27  1  0
  7  2  1  0
 26 11  1  0
 10  6  1  0
  1 28  1  0
  1 29  1  0
  4 30  1  0
  9 31  1  0
 11 32  1  1
 13 33  1  6
 14 34  1  0
 14 35  1  0
 24 36  1  1
 25 37  1  0
 26 38  1  1
 27 39  1  0
M  CHG  3  18  -1  22  -1  23  -1
M  END
>  <meeko>  (9) 
{"is_sidechain": [false], "free_energy": -4.045, "intermolecular_energy": -5.392, "internal_energy": -1.274}

$$$$
