2p15_ligand
     RDKit          3D

 61 65  0  0  0  0  0  0  0  0999 V2000
  -36.3880    1.9540   21.2310 C   0  0  0  0  0  0  0  0  0  0  0  0
  -36.3190    3.4850   20.9520 C   0  0  2  0  0  0  0  0  0  0  0  0
  -35.9390    3.6850   19.4730 C   0  0  0  0  0  0  0  0  0  0  0  0
  -34.4940    3.2380   19.1760 C   0  0  0  0  0  0  0  0  0  0  0  0
  -33.4450    3.8690   20.1280 C   0  0  2  0  0  0  0  0  0  0  0  0
  -32.0040    3.4210   19.8910 C   0  0  0  0  0  0  0  0  0  0  0  0
  -31.5430    3.1130   18.5980 C   0  0  0  0  0  0  0  0  0  0  0  0
  -30.2160    2.7430   18.3700 C   0  0  0  0  0  0  0  0  0  0  0  0
  -29.3270    2.6900   19.4300 C   0  0  0  0  0  0  0  0  0  0  0  0
  -28.0410    2.3200   19.1680 O   0  0  0  0  0  0  0  0  0  0  0  0
  -29.7430    3.0100   20.7160 C   0  0  0  0  0  0  0  0  0  0  0  0
  -31.0750    3.3920   20.9560 C   0  0  0  0  0  0  0  0  0  0  0  0
  -31.4720    3.7110   22.3780 C   0  0  0  0  0  0  0  0  0  0  0  0
  -32.8300    4.3930   22.5070 C   0  0  0  0  0  0  0  0  0  0  0  0
  -33.8550    3.6820   21.6200 C   0  0  1  0  0  0  0  0  0  0  0  0
  -35.2720    4.2240   21.8170 C   0  0  2  0  0  0  0  0  0  0  0  0
  -35.8770    4.2060   23.2210 C   0  0  0  0  0  0  0  0  0  0  0  0
  -37.4020    4.1940   22.9980 C   0  0  0  0  0  0  0  0  0  0  0  0
  -37.6300    4.1780   21.4620 C   0  0  2  0  0  0  0  0  0  0  0  0
  -38.7880    3.3940   21.1910 O   0  0  0  0  0  0  0  0  0  0  0  0
  -37.8990    5.5340   20.8340 C   0  0  0  0  0  0  0  0  0  0  0  0
  -37.4010    6.7270   21.1970 C   0  0  0  0  0  0  0  0  0  0  0  0
  -37.7280    7.9470   20.4540 C   0  0  0  0  0  0  0  0  0  0  0  0
  -38.8100    7.9160   19.5610 C   0  0  0  0  0  0  0  0  0  0  0  0
  -39.1570    9.0500   18.8270 C   0  0  0  0  0  0  0  0  0  0  0  0
  -38.4250   10.2240   18.9750 C   0  0  0  0  0  0  0  0  0  0  0  0
  -37.3460   10.2650   19.8580 C   0  0  0  0  0  0  0  0  0  0  0  0
  -36.9830    9.1310   20.6110 C   0  0  0  0  0  0  0  0  0  0  0  0
  -35.7990    9.2010   21.5450 C   0  0  0  0  0  0  0  0  0  0  0  0
  -35.1010    8.0290   21.6190 F   0  0  0  0  0  0  0  0  0  0  0  0
  -36.1520    9.4920   22.8290 F   0  0  0  0  0  0  0  0  0  0  0  0
  -34.8810   10.1410   21.1820 F   0  0  0  0  0  0  0  0  0  0  0  0
  -36.3959    1.7792   22.3170 H   0  0  0  0  0  0  0  0  0  0  0  0
  -37.3057    1.5413   20.7865 H   0  0  0  0  0  0  0  0  0  0  0  0
  -35.5112    1.4604   20.7865 H   0  0  0  0  0  0  0  0  0  0  0  0
  -36.6270    3.0967   18.8481 H   0  0  0  0  0  0  0  0  0  0  0  0
  -36.0124    4.7593   19.2484 H   0  0  0  0  0  0  0  0  0  0  0  0
  -34.4405    2.1437   19.2747 H   0  0  0  0  0  0  0  0  0  0  0  0
  -34.2527    3.5765   18.1576 H   0  0  0  0  0  0  0  0  0  0  0  0
  -33.4500    4.9411   19.8819 H   0  0  0  0  0  0  0  0  0  0  0  0
  -32.2417    3.1647   17.7499 H   0  0  0  0  0  0  0  0  0  0  0  0
  -29.8785    2.4948   17.3529 H   0  0  0  0  0  0  0  0  0  0  0  0
  -27.4880    2.5760   19.9230 H   0  0  0  0  0  0  0  0  0  0  0  0
  -29.0275    2.9644   21.5503 H   0  0  0  0  0  0  0  0  0  0  0  0
  -31.5023    2.7704   22.9475 H   0  0  0  0  0  0  0  0  0  0  0  0
  -30.7237    4.4181   22.7653 H   0  0  0  0  0  0  0  0  0  0  0  0
  -33.1619    4.3500   23.5548 H   0  0  0  0  0  0  0  0  0  0  0  0
  -32.7407    5.4421   22.1887 H   0  0  0  0  0  0  0  0  0  0  0  0
  -33.8623    2.6188   21.9020 H   0  0  0  0  0  0  0  0  0  0  0  0
  -35.0901    5.2707   21.5317 H   0  0  0  0  0  0  0  0  0  0  0  0
  -35.5591    3.3058   23.7675 H   0  0  0  0  0  0  0  0  0  0  0  0
  -35.5539    5.0693   23.8212 H   0  0  0  0  0  0  0  0  0  0  0  0
  -37.8448    3.2973   23.4560 H   0  0  0  0  0  0  0  0  0  0  0  0
  -37.8754    5.0737   23.4584 H   0  0  0  0  0  0  0  0  0  0  0  0
  -39.3980    3.5020   21.9400 H   0  0  0  0  0  0  0  0  0  0  0  0
  -38.5868    5.5398   19.9756 H   0  0  0  0  0  0  0  0  0  0  0  0
  -36.7342    6.7898   22.0696 H   0  0  0  0  0  0  0  0  0  0  0  0
  -39.3896    6.9891   19.4388 H   0  0  0  0  0  0  0  0  0  0  0  0
  -40.0087    9.0163   18.1317 H   0  0  0  0  0  0  0  0  0  0  0  0
  -38.6970   11.1190   18.3962 H   0  0  0  0  0  0  0  0  0  0  0  0
  -36.7704   11.1959   19.9680 H   0  0  0  0  0  0  0  0  0  0  0  0
  2  1  1  1
  2  3  1  0
  3  4  1  0
  4  5  1  0
  5  6  1  0
  6  7  2  0
  7  8  1  0
  8  9  2  0
  9 10  1  0
  9 11  1  0
 11 12  2  0
 12 13  1  0
 13 14  1  0
 14 15  1  0
 15 16  1  0
 16 17  1  0
 17 18  1  0
 18 19  1  0
 19 20  1  1
 19 21  1  0
 21 22  2  0
 22 23  1  0
 23 24  2  0
 24 25  1  0
 25 26  2  0
 26 27  1  0
 27 28  2  0
 28 29  1  0
 29 30  1  0
 29 31  1  0
 29 32  1  0
 16  2  1  0
 28 23  1  0
 19  2  1  0
 15  5  1  0
 12  6  1  0
  1 33  1  0
  1 34  1  0
  1 35  1  0
  3 36  1  0
  3 37  1  0
  4 38  1  0
  4 39  1  0
  5 40  1  6
  7 41  1  0
  8 42  1  0
 10 43  1  0
 11 44  1  0
 13 45  1  0
 13 46  1  0
 14 47  1  0
 14 48  1  0
 15 49  1  1
 16 50  1  6
 17 51  1  0
 17 52  1  0
 18 53  1  0
 18 54  1  0
 20 55  1  0
 21 56  1  0
 22 57  1  0
 24 58  1  0
 25 59  1  0
 26 60  1  0
 27 61  1  0
M  END
>  <meeko>  (1) 
{"is_sidechain": [false], "free_energy": -12.53, "intermolecular_energy": -15.459, "internal_energy": -0.815}

$$$$
2p15_ligand
     RDKit          3D

 61 65  0  0  0  0  0  0  0  0999 V2000
  -37.8370    6.6800   23.6320 C   0  0  0  0  0  0  0  0  0  0  0  0
  -36.6690    6.2460   22.6980 C   0  0  2  0  0  0  0  0  0  0  0  0
  -35.6090    7.3640   22.7060 C   0  0  0  0  0  0  0  0  0  0  0  0
  -36.1110    8.6490   22.0190 C   0  0  0  0  0  0  0  0  0  0  0  0
  -36.6780    8.4070   20.5950 C   0  0  2  0  0  0  0  0  0  0  0  0
  -37.2200    9.6510   19.8950 C   0  0  0  0  0  0  0  0  0  0  0  0
  -36.6450   10.9170   20.1120 C   0  0  0  0  0  0  0  0  0  0  0  0
  -37.1110   12.0500   19.4430 C   0  0  0  0  0  0  0  0  0  0  0  0
  -38.1510   11.9320   18.5360 C   0  0  0  0  0  0  0  0  0  0  0  0
  -38.5800   13.0620   17.9070 O   0  0  0  0  0  0  0  0  0  0  0  0
  -38.7270   10.6950   18.2810 C   0  0  0  0  0  0  0  0  0  0  0  0
  -38.2590    9.5440   18.9430 C   0  0  0  0  0  0  0  0  0  0  0  0
  -38.9380    8.2300   18.6360 C   0  0  0  0  0  0  0  0  0  0  0  0
  -38.1920    7.0080   19.1600 C   0  0  0  0  0  0  0  0  0  0  0  0
  -37.7290    7.2570   20.5970 C   0  0  1  0  0  0  0  0  0  0  0  0
  -37.1040    6.0140   21.2320 C   0  0  2  0  0  0  0  0  0  0  0  0
  -37.9270    4.7270   21.2940 C   0  0  0  0  0  0  0  0  0  0  0  0
  -37.3340    3.9290   22.4720 C   0  0  0  0  0  0  0  0  0  0  0  0
  -36.1960    4.7990   23.0740 C   0  0  2  0  0  0  0  0  0  0  0  0
  -36.1760    4.5940   24.4830 O   0  0  0  0  0  0  0  0  0  0  0  0
  -34.7980    4.4580   22.5920 C   0  0  0  0  0  0  0  0  0  0  0  0
  -34.4350    3.9300   21.4120 C   0  0  0  0  0  0  0  0  0  0  0  0
  -33.0260    3.7000   21.0800 C   0  0  0  0  0  0  0  0  0  0  0  0
  -32.0940    3.6410   22.1280 C   0  0  0  0  0  0  0  0  0  0  0  0
  -30.7420    3.4300   21.8630 C   0  0  0  0  0  0  0  0  0  0  0  0
  -30.3060    3.2790   20.5500 C   0  0  0  0  0  0  0  0  0  0  0  0
  -31.2240    3.3380   19.5010 C   0  0  0  0  0  0  0  0  0  0  0  0
  -32.5950    3.5470   19.7490 C   0  0  0  0  0  0  0  0  0  0  0  0
  -33.5620    3.6240   18.5920 C   0  0  0  0  0  0  0  0  0  0  0  0
  -32.9450    3.7850   17.3840 F   0  0  0  0  0  0  0  0  0  0  0  0
  -34.4320    4.6680   18.6950 F   0  0  0  0  0  0  0  0  0  0  0  0
  -34.3290    2.5050   18.4550 F   0  0  0  0  0  0  0  0  0  0  0  0
  -37.5289    6.5655   24.6818 H   0  0  0  0  0  0  0  0  0  0  0  0
  -38.0907    7.7324   23.4370 H   0  0  0  0  0  0  0  0  0  0  0  0
  -38.7164    6.0486   23.4370 H   0  0  0  0  0  0  0  0  0  0  0  0
  -35.3496    7.5984   23.7490 H   0  0  0  0  0  0  0  0  0  0  0  0
  -34.7336    7.0026   22.1465 H   0  0  0  0  0  0  0  0  0  0  0  0
  -36.9052    9.0887   22.6402 H   0  0  0  0  0  0  0  0  0  0  0  0
  -35.2454    9.3195   21.9136 H   0  0  0  0  0  0  0  0  0  0  0  0
  -35.8093    8.1029   19.9927 H   0  0  0  0  0  0  0  0  0  0  0  0
  -35.8116   11.0157   20.8231 H   0  0  0  0  0  0  0  0  0  0  0  0
  -36.6543   13.0321   19.6353 H   0  0  0  0  0  0  0  0  0  0  0  0
  -39.4760   12.9040   17.5690 H   0  0  0  0  0  0  0  0  0  0  0  0
  -39.5526   10.6137   17.5586 H   0  0  0  0  0  0  0  0  0  0  0  0
  -39.9399    8.2443   19.0899 H   0  0  0  0  0  0  0  0  0  0  0  0
  -38.9700    8.1372   17.5404 H   0  0  0  0  0  0  0  0  0  0  0  0
  -38.8612    6.1352   19.1385 H   0  0  0  0  0  0  0  0  0  0  0  0
  -37.3143    6.8194   18.5243 H   0  0  0  0  0  0  0  0  0  0  0  0
  -38.6140    7.5260   21.1923 H   0  0  0  0  0  0  0  0  0  0  0  0
  -36.2782    5.8639   20.5210 H   0  0  0  0  0  0  0  0  0  0  0  0
  -38.9875    4.9549   21.4767 H   0  0  0  0  0  0  0  0  0  0  0  0
  -37.8834    4.1635   20.3503 H   0  0  0  0  0  0  0  0  0  0  0  0
  -38.1085    3.7407   23.2301 H   0  0  0  0  0  0  0  0  0  0  0  0
  -36.9507    2.9542   22.1360 H   0  0  0  0  0  0  0  0  0  0  0  0
  -35.3180    4.9110   24.8130 H   0  0  0  0  0  0  0  0  0  0  0  0
  -33.9805    4.6697   23.2969 H   0  0  0  0  0  0  0  0  0  0  0  0
  -35.2112    3.6645   20.6792 H   0  0  0  0  0  0  0  0  0  0  0  0
  -32.4336    3.7623   23.1672 H   0  0  0  0  0  0  0  0  0  0  0  0
  -30.0198    3.3828   22.6914 H   0  0  0  0  0  0  0  0  0  0  0  0
  -29.2391    3.1134   20.3395 H   0  0  0  0  0  0  0  0  0  0  0  0
  -30.8723    3.2196   18.4655 H   0  0  0  0  0  0  0  0  0  0  0  0
  2  1  1  1
  2  3  1  0
  3  4  1  0
  4  5  1  0
  5  6  1  0
  6  7  2  0
  7  8  1  0
  8  9  2  0
  9 10  1  0
  9 11  1  0
 11 12  2  0
 12 13  1  0
 13 14  1  0
 14 15  1  0
 15 16  1  0
 16 17  1  0
 17 18  1  0
 18 19  1  0
 19 20  1  1
 19 21  1  0
 21 22  2  0
 22 23  1  0
 23 24  2  0
 24 25  1  0
 25 26  2  0
 26 27  1  0
 27 28  2  0
 28 29  1  0
 29 30  1  0
 29 31  1  0
 29 32  1  0
 16  2  1  0
 28 23  1  0
 19  2  1  0
 15  5  1  0
 12  6  1  0
  1 33  1  0
  1 34  1  0
  1 35  1  0
  3 36  1  0
  3 37  1  0
  4 38  1  0
  4 39  1  0
  5 40  1  6
  7 41  1  0
  8 42  1  0
 10 43  1  0
 11 44  1  0
 13 45  1  0
 13 46  1  0
 14 47  1  0
 14 48  1  0
 15 49  1  1
 16 50  1  6
 17 51  1  0
 17 52  1  0
 18 53  1  0
 18 54  1  0
 20 55  1  0
 21 56  1  0
 22 57  1  0
 24 58  1  0
 25 59  1  0
 26 60  1  0
 27 61  1  0
M  END
>  <meeko>  (2) 
{"is_sidechain": [false], "free_energy": -10.903, "intermolecular_energy": -13.323, "internal_energy": -0.944}

$$$$
