1nvq_ligand
     RDKit          3D

 63 70  0  0  0  0  0  0  0  0999 V2000
    2.7960    3.6190   12.1400 C   0  0  0  0  0  0  0  0  0  0  0  0
    2.5970    4.3880   13.3950 N   0  0  0  0  0  0  0  0  0  0  0  0
    3.3960    3.9260   14.6120 C   0  0  2  0  0  0  0  0  0  0  0  0
    2.6180    4.3990   15.8390 C   0  0  0  0  0  0  0  0  0  0  0  0
    3.4760    4.4260   17.1050 C   0  0  1  0  0  0  0  0  0  0  0  0
    4.7120    3.7430   16.9540 O   0  0  0  0  0  0  0  0  0  0  0  0
    5.5790    4.0900   15.8490 C   0  0  1  0  0  0  0  0  0  0  0  0
    6.1930    2.7020   15.5560 C   0  0  0  0  0  0  0  0  0  0  0  0
    4.7960    4.5600   14.5680 C   0  0  2  0  0  0  0  0  0  0  0  0
    4.5190    5.9730   14.4620 O   0  0  0  0  0  0  0  0  0  0  0  0
    5.3440    6.6610   13.5210 C   0  0  0  0  0  0  0  0  0  0  0  0
    6.5530    5.0820   16.3190 N   0  0  0  0  0  0  0  0  0  0  0  0
    7.8980    5.2320   15.9770 C   0  0  0  0  0  0  0  0  0  0  0  0
    8.7860    4.4640   15.1970 C   0  0  0  0  0  0  0  0  0  0  0  0
   10.1050    4.8990   15.0260 C   0  0  0  0  0  0  0  0  0  0  0  0
   10.5490    6.0770   15.6020 C   0  0  0  0  0  0  0  0  0  0  0  0
    9.6780    6.8500   16.3690 C   0  0  0  0  0  0  0  0  0  0  0  0
    8.3430    6.4340   16.5680 C   0  0  0  0  0  0  0  0  0  0  0  0
    7.2480    7.0150   17.2620 C   0  0  0  0  0  0  0  0  0  0  0  0
    7.0080    8.1810   18.0050 C   0  0  0  0  0  0  0  0  0  0  0  0
    5.7220    8.4710   18.5530 C   0  0  0  0  0  0  0  0  0  0  0  0
    4.5900    7.6510   18.4290 C   0  0  0  0  0  0  0  0  0  0  0  0
    3.2190    7.6410   18.8270 C   0  0  0  0  0  0  0  0  0  0  0  0
    2.3930    8.5300   19.5470 C   0  0  0  0  0  0  0  0  0  0  0  0
    1.0540    8.2090   19.7890 C   0  0  0  0  0  0  0  0  0  0  0  0
    0.5210    7.0120   19.3280 C   0  0  0  0  0  0  0  0  0  0  0  0
    1.3080    6.1090   18.6100 C   0  0  0  0  0  0  0  0  0  0  0  0
    2.6520    6.4420   18.3610 C   0  0  0  0  0  0  0  0  0  0  0  0
    3.6500    5.7510   17.6890 N   0  0  0  0  0  0  0  0  0  0  0  0
    4.7960    6.4810   17.7170 C   0  0  0  0  0  0  0  0  0  0  0  0
    6.1850    6.1520   17.0960 C   0  0  0  0  0  0  0  0  0  0  0  0
    5.8420    9.7490   19.2660 C   0  0  0  0  0  0  0  0  0  0  0  0
    5.0010   10.3000   19.9450 O   0  0  0  0  0  0  0  0  0  0  0  0
    7.1200   10.2270   19.0630 N   0  0  0  0  0  0  0  0  0  0  0  0
    7.9440    9.2940   18.3760 C   0  0  2  0  0  0  0  0  0  0  0  0
    8.4260    9.9540   17.2370 O   0  0  0  0  0  0  0  0  0  0  0  0
    3.0647    2.5808   12.3848 H   0  0  0  0  0  0  0  0  0  0  0  0
    1.8659    3.6283   11.5529 H   0  0  0  0  0  0  0  0  0  0  0  0
    3.6049    4.0783   11.5529 H   0  0  0  0  0  0  0  0  0  0  0  0
    2.8620    5.3790   13.2390 H   0  0  0  0  0  0  0  0  0  0  0  0
    1.5920    4.4080   13.6120 H   0  0  0  0  0  0  0  0  0  0  0  0
    3.5258    2.8339   14.6358 H   0  0  0  0  0  0  0  0  0  0  0  0
    2.2410    5.4144   15.6472 H   0  0  0  0  0  0  0  0  0  0  0  0
    1.7971    3.6866   16.0080 H   0  0  0  0  0  0  0  0  0  0  0  0
    2.8850    3.8608   17.8407 H   0  0  0  0  0  0  0  0  0  0  0  0
    6.4182    2.1930   16.5048 H   0  0  0  0  0  0  0  0  0  0  0  0
    5.4775    2.0993   14.9774 H   0  0  0  0  0  0  0  0  0  0  0  0
    7.1203    2.8260   14.9774 H   0  0  0  0  0  0  0  0  0  0  0  0
    5.4516    4.2699   13.7337 H   0  0  0  0  0  0  0  0  0  0  0  0
    6.0806    7.2753   14.0595 H   0  0  0  0  0  0  0  0  0  0  0  0
    5.8686    5.9290   12.8893 H   0  0  0  0  0  0  0  0  0  0  0  0
    4.7182    7.3086   12.8893 H   0  0  0  0  0  0  0  0  0  0  0  0
    8.4449    3.5301   14.7264 H   0  0  0  0  0  0  0  0  0  0  0  0
   10.8002    4.2952   14.4242 H   0  0  0  0  0  0  0  0  0  0  0  0
   11.5891    6.4033   15.4546 H   0  0  0  0  0  0  0  0  0  0  0  0
   10.0323    7.7881   16.8212 H   0  0  0  0  0  0  0  0  0  0  0  0
    2.8044    9.4797   19.9195 H   0  0  0  0  0  0  0  0  0  0  0  0
    0.4175    8.9099   20.3489 H   0  0  0  0  0  0  0  0  0  0  0  0
   -0.5333    6.7725   19.5308 H   0  0  0  0  0  0  0  0  0  0  0  0
    0.8869    5.1596   18.2476 H   0  0  0  0  0  0  0  0  0  0  0  0
    7.4660   10.9580   19.6690 H   0  0  0  0  0  0  0  0  0  0  0  0
    8.8001    8.9101   18.9502 H   0  0  0  0  0  0  0  0  0  0  0  0
    7.7580   10.6360   17.0580 H   0  0  0  0  0  0  0  0  0  0  0  0
  1  2  1  0
  2  3  1  0
  3  4  1  0
  4  5  1  0
  5  6  1  0
  6  7  1  0
  7  8  1  6
  7  9  1  0
  9 10  1  0
 10 11  1  0
  7 12  1  0
 12 13  1  0
 13 14  2  0
 14 15  1  0
 15 16  2  0
 16 17  1  0
 17 18  2  0
 18 19  1  0
 19 20  2  0
 20 21  1  0
 21 22  2  0
 22 23  1  0
 23 24  2  0
 24 25  1  0
 25 26  2  0
 26 27  1  0
 27 28  2  0
 28 29  1  0
 29 30  1  0
 30 31  2  0
 21 32  1  0
 32 33  2  0
 32 34  1  0
 34 35  1  0
 35 36  1  0
  9  3  1  0
 31 12  1  0
 29  5  1  0
 18 13  1  0
 31 19  1  0
 35 20  1  0
 30 22  1  0
 28 23  1  0
  1 37  1  0
  1 38  1  0
  1 39  1  0
  2 40  1  0
  2 41  1  0
  3 42  1  1
  4 43  1  0
  4 44  1  0
  5 45  1  1
  8 46  1  0
  8 47  1  0
  8 48  1  0
  9 49  1  6
 11 50  1  0
 11 51  1  0
 11 52  1  0
 14 53  1  0
 15 54  1  0
 16 55  1  0
 17 56  1  0
 24 57  1  0
 25 58  1  0
 26 59  1  0
 27 60  1  0
 34 61  1  0
 35 62  1  1
 36 63  1  0
M  CHG  1   2   1
M  END
>  <meeko>  (1) 
{"is_sidechain": [false], "free_energy": -13.997, "intermolecular_energy": -16.043, "internal_energy": -0.338}

$$$$
1nvq_ligand
     RDKit          3D

 63 70  0  0  0  0  0  0  0  0999 V2000
    3.0230    3.5890   11.9020 C   0  0  0  0  0  0  0  0  0  0  0  0
    2.6930    4.2730   13.1780 N   0  0  0  0  0  0  0  0  0  0  0  0
    3.4730    3.8250   14.4130 C   0  0  2  0  0  0  0  0  0  0  0  0
    2.6020    4.1730   15.6190 C   0  0  0  0  0  0  0  0  0  0  0  0
    3.3950    4.2170   16.9260 C   0  0  1  0  0  0  0  0  0  0  0  0
    4.6910    3.6490   16.8080 O   0  0  0  0  0  0  0  0  0  0  0  0
    5.5740    4.1190   15.7630 C   0  0  1  0  0  0  0  0  0  0  0  0
    6.3200    2.8030   15.4430 C   0  0  0  0  0  0  0  0  0  0  0  0
    4.8130    4.5790   14.4650 C   0  0  2  0  0  0  0  0  0  0  0  0
    4.4190    5.9660   14.4040 O   0  0  0  0  0  0  0  0  0  0  0  0
    5.2310    6.7660   13.5460 C   0  0  0  0  0  0  0  0  0  0  0  0
    6.4350    5.1680   16.3210 N   0  0  0  0  0  0  0  0  0  0  0  0
    7.7760    5.4480   16.0530 C   0  0  0  0  0  0  0  0  0  0  0  0
    8.7630    4.7950   15.2860 C   0  0  0  0  0  0  0  0  0  0  0  0
   10.0450    5.3480   15.1990 C   0  0  0  0  0  0  0  0  0  0  0  0
   10.3580    6.5330   15.8450 C   0  0  0  0  0  0  0  0  0  0  0  0
    9.3880    7.1920   16.5990 C   0  0  0  0  0  0  0  0  0  0  0  0
    8.0870    6.6550   16.7130 C   0  0  0  0  0  0  0  0  0  0  0  0
    6.9150    7.1080   17.3760 C   0  0  0  0  0  0  0  0  0  0  0  0
    6.5400    8.2150   18.1540 C   0  0  0  0  0  0  0  0  0  0  0  0
    5.2100    8.3680   18.6500 C   0  0  0  0  0  0  0  0  0  0  0  0
    4.1610    7.4610   18.4360 C   0  0  0  0  0  0  0  0  0  0  0  0
    2.7790    7.3150   18.7650 C   0  0  0  0  0  0  0  0  0  0  0  0
    1.8460    8.0970   19.4800 C   0  0  0  0  0  0  0  0  0  0  0  0
    0.5310    7.6510   19.6410 C   0  0  0  0  0  0  0  0  0  0  0  0
    0.1270    6.4360   19.1050 C   0  0  0  0  0  0  0  0  0  0  0  0
    1.0210    5.6370   18.3910 C   0  0  0  0  0  0  0  0  0  0  0  0
    2.3420    6.0950   18.2220 C   0  0  0  0  0  0  0  0  0  0  0  0
    3.4260    5.5230   17.5720 N   0  0  0  0  0  0  0  0  0  0  0  0
    4.5000    6.3460   17.6870 C   0  0  0  0  0  0  0  0  0  0  0  0
    5.9410    6.1660   17.1230 C   0  0  0  0  0  0  0  0  0  0  0  0
    5.1850    9.6180   19.4200 C   0  0  0  0  0  0  0  0  0  0  0  0
    4.2680   10.0640   20.0790 O   0  0  0  0  0  0  0  0  0  0  0  0
    6.4240   10.2120   19.3000 N   0  0  0  0  0  0  0  0  0  0  0  0
    7.3570    9.3850   18.6170 C   0  0  2  0  0  0  0  0  0  0  0  0
    7.8310   10.1350   17.5320 O   0  0  0  0  0  0  0  0  0  0  0  0
    3.4917    2.6174   12.1173 H   0  0  0  0  0  0  0  0  0  0  0  0
    2.1019    3.4312   11.3217 H   0  0  0  0  0  0  0  0  0  0  0  0
    3.7198    4.2117   11.3217 H   0  0  0  0  0  0  0  0  0  0  0  0
    2.8710    5.2900   13.0820 H   0  0  0  0  0  0  0  0  0  0  0  0
    1.6810    4.1890   13.3430 H   0  0  0  0  0  0  0  0  0  0  0  0
    3.6963    2.7480   14.3972 H   0  0  0  0  0  0  0  0  0  0  0  0
    2.1457    5.1597   15.4507 H   0  0  0  0  0  0  0  0  0  0  0  0
    1.8411    3.3848   15.7181 H   0  0  0  0  0  0  0  0  0  0  0  0
    2.8217    3.5721   17.6082 H   0  0  0  0  0  0  0  0  0  0  0  0
    6.6027    2.3042   16.3818 H   0  0  0  0  0  0  0  0  0  0  0  0
    5.6626    2.1414   14.8598 H   0  0  0  0  0  0  0  0  0  0  0  0
    7.2253    3.0272   14.8598 H   0  0  0  0  0  0  0  0  0  0  0  0
    5.5291    4.3853   13.6528 H   0  0  0  0  0  0  0  0  0  0  0  0
    5.8840    7.4093   14.1541 H   0  0  0  0  0  0  0  0  0  0  0  0
    5.8479    6.1129   12.9112 H   0  0  0  0  0  0  0  0  0  0  0  0
    4.5872    7.3925   12.9112 H   0  0  0  0  0  0  0  0  0  0  0  0
    8.5266    3.8581   14.7603 H   0  0  0  0  0  0  0  0  0  0  0  0
   10.8172    4.8336   14.6081 H   0  0  0  0  0  0  0  0  0  0  0  0
   11.3711    6.9536   15.7630 H   0  0  0  0  0  0  0  0  0  0  0  0
    9.6374    8.1349   17.1076 H   0  0  0  0  0  0  0  0  0  0  0  0
    2.1549    9.0604   19.9118 H   0  0  0  0  0  0  0  0  0  0  0  0
   -0.1898    8.2682   20.1973 H   0  0  0  0  0  0  0  0  0  0  0  0
   -0.9107    6.0988   19.2448 H   0  0  0  0  0  0  0  0  0  0  0  0
    0.7014    4.6722   17.9701 H   0  0  0  0  0  0  0  0  0  0  0  0
    6.6760   10.9410   19.9530 H   0  0  0  0  0  0  0  0  0  0  0  0
    8.2160    9.0495   19.2167 H   0  0  0  0  0  0  0  0  0  0  0  0
    7.3960    9.7370   16.7600 H   0  0  0  0  0  0  0  0  0  0  0  0
  1  2  1  0
  2  3  1  0
  3  4  1  0
  4  5  1  0
  5  6  1  0
  6  7  1  0
  7  8  1  6
  7  9  1  0
  9 10  1  0
 10 11  1  0
  7 12  1  0
 12 13  1  0
 13 14  2  0
 14 15  1  0
 15 16  2  0
 16 17  1  0
 17 18  2  0
 18 19  1  0
 19 20  2  0
 20 21  1  0
 21 22  2  0
 22 23  1  0
 23 24  2  0
 24 25  1  0
 25 26  2  0
 26 27  1  0
 27 28  2  0
 28 29  1  0
 29 30  1  0
 30 31  2  0
 21 32  1  0
 32 33  2  0
 32 34  1  0
 34 35  1  0
 35 36  1  0
  9  3  1  0
 31 12  1  0
 29  5  1  0
 18 13  1  0
 31 19  1  0
 35 20  1  0
 30 22  1  0
 28 23  1  0
  1 37  1  0
  1 38  1  0
  1 39  1  0
  2 40  1  0
  2 41  1  0
  3 42  1  6
  4 43  1  0
  4 44  1  0
  5 45  1  1
  8 46  1  0
  8 47  1  0
  8 48  1  0
  9 49  1  6
 11 50  1  0
 11 51  1  0
 11 52  1  0
 14 53  1  0
 15 54  1  0
 16 55  1  0
 17 56  1  0
 24 57  1  0
 25 58  1  0
 26 59  1  0
 27 60  1  0
 34 61  1  0
 35 62  1  1
 36 63  1  0
M  CHG  1   2   1
M  END
>  <meeko>  (2) 
{"is_sidechain": [false], "free_energy": -13.573, "intermolecular_energy": -15.561, "internal_energy": -0.333}

$$$$
1nvq_ligand
     RDKit          3D

 63 70  0  0  0  0  0  0  0  0999 V2000
    3.3100    3.2720   11.3380 C   0  0  0  0  0  0  0  0  0  0  0  0
    3.7080    4.3330   12.2980 N   0  0  0  0  0  0  0  0  0  0  0  0
    4.1770    3.8650   13.6750 C   0  0  2  0  0  0  0  0  0  0  0  0
    2.9130    3.5930   14.4880 C   0  0  0  0  0  0  0  0  0  0  0  0
    3.1770    3.5590   15.9940 C   0  0  1  0  0  0  0  0  0  0  0  0
    4.5580    3.4940   16.3150 O   0  0  0  0  0  0  0  0  0  0  0  0
    5.4600    4.4750   15.7500 C   0  0  1  0  0  0  0  0  0  0  0  0
    6.7240    3.6000   15.5860 C   0  0  0  0  0  0  0  0  0  0  0  0
    5.0220    4.9750   14.3240 C   0  0  2  0  0  0  0  0  0  0  0  0
    4.1510    6.1250   14.2810 O   0  0  0  0  0  0  0  0  0  0  0  0
    4.7640    7.3020   13.7530 C   0  0  0  0  0  0  0  0  0  0  0  0
    5.6170    5.5690   16.7150 N   0  0  0  0  0  0  0  0  0  0  0  0
    6.7490    6.3290   17.0150 C   0  0  0  0  0  0  0  0  0  0  0  0
    8.0970    6.2500   16.6130 C   0  0  0  0  0  0  0  0  0  0  0  0
    9.0140    7.1930   17.0880 C   0  0  0  0  0  0  0  0  0  0  0  0
    8.6170    8.2100   17.9410 C   0  0  0  0  0  0  0  0  0  0  0  0
    7.2840    8.3040   18.3390 C   0  0  0  0  0  0  0  0  0  0  0  0
    6.3360    7.3620   17.8830 C   0  0  0  0  0  0  0  0  0  0  0  0
    4.9380    7.2240   18.0950 C   0  0  0  0  0  0  0  0  0  0  0  0
    3.9350    7.9130   18.7960 C   0  0  0  0  0  0  0  0  0  0  0  0
    2.5710    7.4940   18.7600 C   0  0  0  0  0  0  0  0  0  0  0  0
    2.0890    6.3800   18.0560 C   0  0  0  0  0  0  0  0  0  0  0  0
    0.8490    5.7140   17.8110 C   0  0  0  0  0  0  0  0  0  0  0  0
   -0.4880    5.9410   18.2020 C   0  0  0  0  0  0  0  0  0  0  0  0
   -1.4990    5.0660   17.7940 C   0  0  0  0  0  0  0  0  0  0  0  0
   -1.2020    3.9630   17.0040 C   0  0  0  0  0  0  0  0  0  0  0  0
    0.1090    3.7080   16.5970 C   0  0  0  0  0  0  0  0  0  0  0  0
    1.1210    4.5980   17.0020 C   0  0  0  0  0  0  0  0  0  0  0  0
    2.4860    4.5960   16.7530 N   0  0  0  0  0  0  0  0  0  0  0  0
    3.0550    5.6660   17.3660 C   0  0  0  0  0  0  0  0  0  0  0  0
    4.5460    6.1140   17.3790 C   0  0  0  0  0  0  0  0  0  0  0  0
    1.8160    8.4280   19.6040 C   0  0  0  0  0  0  0  0  0  0  0  0
    0.6430    8.3690   19.9100 O   0  0  0  0  0  0  0  0  0  0  0  0
    2.6900    9.4030   20.0390 N   0  0  0  0  0  0  0  0  0  0  0  0
    4.0360    9.1280   19.6710 C   0  0  2  0  0  0  0  0  0  0  0  0
    4.4850   10.2410   18.9470 O   0  0  0  0  0  0  0  0  0  0  0  0
    2.9763    2.3824   11.8923 H   0  0  0  0  0  0  0  0  0  0  0  0
    2.4885    3.6393   10.7053 H   0  0  0  0  0  0  0  0  0  0  0  0
    4.1704    3.0084   10.7053 H   0  0  0  0  0  0  0  0  0  0  0  0
    4.4930    4.8820   11.9010 H   0  0  0  0  0  0  0  0  0  0  0  0
    2.9300    5.0000   12.3910 H   0  0  0  0  0  0  0  0  0  0  0  0
    4.8002    2.9604   13.6186 H   0  0  0  0  0  0  0  0  0  0  0  0
    2.1809    4.3864   14.2767 H   0  0  0  0  0  0  0  0  0  0  0  0
    2.5351    2.6027   14.1941 H   0  0  0  0  0  0  0  0  0  0  0  0
    2.7262    2.6111   16.3229 H   0  0  0  0  0  0  0  0  0  0  0  0
    7.1142    3.3299   16.5783 H   0  0  0  0  0  0  0  0  0  0  0  0
    6.4674    2.6853   15.0315 H   0  0  0  0  0  0  0  0  0  0  0  0
    7.4898    4.1623   15.0315 H   0  0  0  0  0  0  0  0  0  0  0  0
    5.9696    5.2378   13.8311 H   0  0  0  0  0  0  0  0  0  0  0  0
    5.0985    7.9442   14.5811 H   0  0  0  0  0  0  0  0  0  0  0  0
    5.6294    7.0193   13.1356 H   0  0  0  0  0  0  0  0  0  0  0  0
    4.0362    7.8490   13.1356 H   0  0  0  0  0  0  0  0  0  0  0  0
    8.4258    5.4524   15.9305 H   0  0  0  0  0  0  0  0  0  0  0  0
   10.0677    7.1262   16.7793 H   0  0  0  0  0  0  0  0  0  0  0  0
    9.3528    8.9427   18.3040 H   0  0  0  0  0  0  0  0  0  0  0  0
    6.9694    9.1158   19.0114 H   0  0  0  0  0  0  0  0  0  0  0  0
   -0.7354    6.8095   18.8300 H   0  0  0  0  0  0  0  0  0  0  0  0
   -2.5386    5.2527   18.1013 H   0  0  0  0  0  0  0  0  0  0  0  0
   -2.0091    3.2823   16.6953 H   0  0  0  0  0  0  0  0  0  0  0  0
    0.3452    2.8323   15.9746 H   0  0  0  0  0  0  0  0  0  0  0  0
    2.4180    9.9840   20.8200 H   0  0  0  0  0  0  0  0  0  0  0  0
    4.7267    8.9509   20.5086 H   0  0  0  0  0  0  0  0  0  0  0  0
    4.6970    9.8830   18.0700 H   0  0  0  0  0  0  0  0  0  0  0  0
  1  2  1  0
  2  3  1  0
  3  4  1  0
  4  5  1  0
  5  6  1  0
  6  7  1  0
  7  8  1  6
  7  9  1  0
  9 10  1  0
 10 11  1  0
  7 12  1  0
 12 13  1  0
 13 14  2  0
 14 15  1  0
 15 16  2  0
 16 17  1  0
 17 18  2  0
 18 19  1  0
 19 20  2  0
 20 21  1  0
 21 22  2  0
 22 23  1  0
 23 24  2  0
 24 25  1  0
 25 26  2  0
 26 27  1  0
 27 28  2  0
 28 29  1  0
 29 30  1  0
 30 31  2  0
 21 32  1  0
 32 33  2  0
 32 34  1  0
 34 35  1  0
 35 36  1  0
  9  3  1  0
 31 12  1  0
 29  5  1  0
 18 13  1  0
 31 19  1  0
 35 20  1  0
 30 22  1  0
 28 23  1  0
  1 37  1  0
  1 38  1  0
  1 39  1  0
  2 40  1  0
  2 41  1  0
  3 42  1  6
  4 43  1  0
  4 44  1  0
  5 45  1  1
  8 46  1  0
  8 47  1  0
  8 48  1  0
  9 49  1  6
 11 50  1  0
 11 51  1  0
 11 52  1  0
 14 53  1  0
 15 54  1  0
 16 55  1  0
 17 56  1  0
 24 57  1  0
 25 58  1  0
 26 59  1  0
 27 60  1  0
 34 61  1  0
 35 62  1  1
 36 63  1  0
M  CHG  1   2   1
M  END
>  <meeko>  (3) 
{"is_sidechain": [false], "free_energy": -11.769, "intermolecular_energy": -13.54, "internal_energy": -0.287}

$$$$
