4lzs_ligand
     RDKit          3D

 31 31  0  0  0  0  0  0  0  0999 V2000
   11.0690   36.8150   74.8840 C   0  0  0  0  0  0  0  0  0  0  0  0
   11.3690   36.4180   76.3210 C   0  0  0  0  0  0  0  0  0  0  0  0
   11.3930   37.6020   77.2500 C   0  0  0  0  0  0  0  0  0  0  0  0
   10.3280   38.0490   78.0260 C   0  0  0  0  0  0  0  0  0  0  0  0
    8.9800   37.5230   78.1400 C   0  0  0  0  0  0  0  0  0  0  0  0
    8.2320   37.3370   77.1850 O   0  0  0  0  0  0  0  0  0  0  0  0
    8.6100   37.2170   79.4360 N   0  0  0  0  0  0  0  0  0  0  0  0
    7.3510   36.5590   79.6850 C   0  0  0  0  0  0  0  0  0  0  0  0
   10.7650   39.1720   78.6840 N   0  0  0  0  0  0  0  0  0  0  0  0
   12.0850   39.4280   78.4120 C   0  0  0  0  0  0  0  0  0  0  0  0
   12.7680   40.5700   79.0790 C   0  0  0  0  0  0  0  0  0  0  0  0
   12.5230   38.4680   77.5050 C   0  0  0  0  0  0  0  0  0  0  0  0
   13.8710   38.3340   76.9230 C   0  0  0  0  0  0  0  0  0  0  0  0
   14.8260   37.3100   77.4810 C   0  0  0  0  0  0  0  0  0  0  0  0
   14.2370   39.0410   75.9820 O   0  0  0  0  0  0  0  0  0  0  0  0
   10.4058   37.6926   74.8769 H   0  0  0  0  0  0  0  0  0  0  0  0
   12.0086   37.0613   74.3678 H   0  0  0  0  0  0  0  0  0  0  0  0
   10.5755   35.9783   74.3678 H   0  0  0  0  0  0  0  0  0  0  0  0
   10.5939   35.7163   76.6629 H   0  0  0  0  0  0  0  0  0  0  0  0
   12.3672   35.9563   76.3401 H   0  0  0  0  0  0  0  0  0  0  0  0
    9.3600   37.0320   80.0870 H   0  0  0  0  0  0  0  0  0  0  0  0
    7.1896   36.4746   80.7698 H   0  0  0  0  0  0  0  0  0  0  0  0
    6.5356   37.1462   79.2375 H   0  0  0  0  0  0  0  0  0  0  0  0
    7.3676   35.5543   79.2375 H   0  0  0  0  0  0  0  0  0  0  0  0
   10.1750   39.7380   79.2800 H   0  0  0  0  0  0  0  0  0  0  0  0
   12.6977   40.4525   80.1704 H   0  0  0  0  0  0  0  0  0  0  0  0
   13.8263   40.5897   78.7797 H   0  0  0  0  0  0  0  0  0  0  0  0
   12.2847   41.5117   78.7797 H   0  0  0  0  0  0  0  0  0  0  0  0
   14.7965   37.3417   78.5801 H   0  0  0  0  0  0  0  0  0  0  0  0
   14.5324   36.3079   77.1350 H   0  0  0  0  0  0  0  0  0  0  0  0
   15.8461   37.5331   77.1350 H   0  0  0  0  0  0  0  0  0  0  0  0
  1  2  1  0
  2  3  1  0
  3  4  2  0
  4  5  1  0
  5  6  2  0
  5  7  1  0
  7  8  1  0
  4  9  1  0
  9 10  1  0
 10 11  1  0
 10 12  2  0
 12 13  1  0
 13 14  1  0
 13 15  2  0
 12  3  1  0
  1 16  1  0
  1 17  1  0
  1 18  1  0
  2 19  1  0
  2 20  1  0
  7 21  1  0
  8 22  1  0
  8 23  1  0
  8 24  1  0
  9 25  1  0
 11 26  1  0
 11 27  1  0
 11 28  1  0
 14 29  1  0
 14 30  1  0
 14 31  1  0
M  END
>  <meeko>  (1) 
{"is_sidechain": [false], "free_energy": -6.133, "intermolecular_energy": -7.209, "internal_energy": -0.474}

$$$$
4lzs_ligand
     RDKit          3D

 31 31  0  0  0  0  0  0  0  0999 V2000
   14.6740   37.5410   77.5220 C   0  0  0  0  0  0  0  0  0  0  0  0
   13.8150   38.6490   76.9320 C   0  0  0  0  0  0  0  0  0  0  0  0
   12.3720   38.5360   77.3440 C   0  0  0  0  0  0  0  0  0  0  0  0
   11.7590   39.2500   78.3680 C   0  0  0  0  0  0  0  0  0  0  0  0
   12.3200   40.2420   79.2690 C   0  0  0  0  0  0  0  0  0  0  0  0
   13.2890   40.9440   79.0010 O   0  0  0  0  0  0  0  0  0  0  0  0
   11.6420   40.3490   80.4690 N   0  0  0  0  0  0  0  0  0  0  0  0
   12.0010   41.3870   81.4030 C   0  0  0  0  0  0  0  0  0  0  0  0
   10.4600   38.8120   78.4320 N   0  0  0  0  0  0  0  0  0  0  0  0
   10.1950   37.8920   77.4490 C   0  0  0  0  0  0  0  0  0  0  0  0
    8.8200   37.3390   77.3070 C   0  0  0  0  0  0  0  0  0  0  0  0
   11.3730   37.6800   76.7410 C   0  0  0  0  0  0  0  0  0  0  0  0
   11.5780   36.7790   75.5920 C   0  0  0  0  0  0  0  0  0  0  0  0
   11.4080   37.3060   74.1910 C   0  0  0  0  0  0  0  0  0  0  0  0
   11.8930   35.5980   75.7510 O   0  0  0  0  0  0  0  0  0  0  0  0
   14.6346   37.5918   78.6201 H   0  0  0  0  0  0  0  0  0  0  0  0
   14.2945   36.5646   77.1863 H   0  0  0  0  0  0  0  0  0  0  0  0
   15.7141   37.6652   77.1863 H   0  0  0  0  0  0  0  0  0  0  0  0
   14.2053   39.6189   77.2740 H   0  0  0  0  0  0  0  0  0  0  0  0
   13.8593   38.5609   75.8364 H   0  0  0  0  0  0  0  0  0  0  0  0
   10.6780   40.0450   80.4710 H   0  0  0  0  0  0  0  0  0  0  0  0
   11.8727   41.0160   82.4306 H   0  0  0  0  0  0  0  0  0  0  0  0
   13.0509   41.6749   81.2455 H   0  0  0  0  0  0  0  0  0  0  0  0
   11.3533   42.2620   81.2455 H   0  0  0  0  0  0  0  0  0  0  0  0
    9.7960   39.1250   79.1280 H   0  0  0  0  0  0  0  0  0  0  0  0
    8.3896   37.1659   78.3044 H   0  0  0  0  0  0  0  0  0  0  0  0
    8.1921   38.0545   76.7558 H   0  0  0  0  0  0  0  0  0  0  0  0
    8.8624   36.3880   76.7558 H   0  0  0  0  0  0  0  0  0  0  0  0
   11.0705   38.3522   74.2312 H   0  0  0  0  0  0  0  0  0  0  0  0
   12.3694   37.2510   73.6594 H   0  0  0  0  0  0  0  0  0  0  0  0
   10.6599   36.6996   73.6594 H   0  0  0  0  0  0  0  0  0  0  0  0
  1  2  1  0
  2  3  1  0
  3  4  2  0
  4  5  1  0
  5  6  2  0
  5  7  1  0
  7  8  1  0
  4  9  1  0
  9 10  1  0
 10 11  1  0
 10 12  2  0
 12 13  1  0
 13 14  1  0
 13 15  2  0
 12  3  1  0
  1 16  1  0
  1 17  1  0
  1 18  1  0
  2 19  1  0
  2 20  1  0
  7 21  1  0
  8 22  1  0
  8 23  1  0
  8 24  1  0
  9 25  1  0
 11 26  1  0
 11 27  1  0
 11 28  1  0
 14 29  1  0
 14 30  1  0
 14 31  1  0
M  END
>  <meeko>  (2) 
{"is_sidechain": [false], "free_energy": -5.974, "intermolecular_energy": -7.181, "internal_energy": -0.315}

$$$$
4lzs_ligand
     RDKit          3D

 31 31  0  0  0  0  0  0  0  0999 V2000
   13.5690   36.5580   74.7270 C   0  0  0  0  0  0  0  0  0  0  0  0
   12.8450   37.8810   74.9200 C   0  0  0  0  0  0  0  0  0  0  0  0
   11.9640   37.8800   76.1400 C   0  0  0  0  0  0  0  0  0  0  0  0
   12.3610   38.2080   77.4320 C   0  0  0  0  0  0  0  0  0  0  0  0
   13.6650   38.6160   77.9250 C   0  0  0  0  0  0  0  0  0  0  0  0
   14.6190   37.8560   78.0520 O   0  0  0  0  0  0  0  0  0  0  0  0
   13.7510   39.9630   78.2200 N   0  0  0  0  0  0  0  0  0  0  0  0
   15.0220   40.5350   78.5880 C   0  0  0  0  0  0  0  0  0  0  0  0
   11.2630   38.0330   78.2380 N   0  0  0  0  0  0  0  0  0  0  0  0
   10.1610   37.6680   77.5070 C   0  0  0  0  0  0  0  0  0  0  0  0
    8.8490   37.4900   78.1880 C   0  0  0  0  0  0  0  0  0  0  0  0
   10.5550   37.5510   76.1780 C   0  0  0  0  0  0  0  0  0  0  0  0
    9.7150   37.1840   75.0230 C   0  0  0  0  0  0  0  0  0  0  0  0
    8.8150   38.2170   74.3970 C   0  0  0  0  0  0  0  0  0  0  0  0
    9.7360   36.0450   74.5510 O   0  0  0  0  0  0  0  0  0  0  0  0
   13.8068   36.1235   75.7092 H   0  0  0  0  0  0  0  0  0  0  0  0
   12.9241   35.8655   74.1661 H   0  0  0  0  0  0  0  0  0  0  0  0
   14.4999   36.7279   74.1661 H   0  0  0  0  0  0  0  0  0  0  0  0
   13.5928   38.6809   75.0249 H   0  0  0  0  0  0  0  0  0  0  0  0
   12.2022   38.0428   74.0422 H   0  0  0  0  0  0  0  0  0  0  0  0
   13.0940   40.5700   77.7500 H   0  0  0  0  0  0  0  0  0  0  0  0
   15.1039   40.5718   79.6843 H   0  0  0  0  0  0  0  0  0  0  0  0
   15.8346   39.9158   78.1802 H   0  0  0  0  0  0  0  0  0  0  0  0
   15.0974   41.5538   78.1802 H   0  0  0  0  0  0  0  0  0  0  0  0
   11.2810   38.1490   79.2420 H   0  0  0  0  0  0  0  0  0  0  0  0
    8.9959   37.5099   79.2780 H   0  0  0  0  0  0  0  0  0  0  0  0
    8.1701   38.3043   77.8946 H   0  0  0  0  0  0  0  0  0  0  0  0
    8.4116   36.5243   77.8946 H   0  0  0  0  0  0  0  0  0  0  0  0
    8.3128   38.7934   75.1879 H   0  0  0  0  0  0  0  0  0  0  0  0
    9.4147   38.8960   73.7730 H   0  0  0  0  0  0  0  0  0  0  0  0
    8.0603   37.7160   73.7730 H   0  0  0  0  0  0  0  0  0  0  0  0
  1  2  1  0
  2  3  1  0
  3  4  2  0
  4  5  1  0
  5  6  2  0
  5  7  1  0
  7  8  1  0
  4  9  1  0
  9 10  1  0
 10 11  1  0
 10 12  2  0
 12 13  1  0
 13 14  1  0
 13 15  2  0
 12  3  1  0
  1 16  1  0
  1 17  1  0
  1 18  1  0
  2 19  1  0
  2 20  1  0
  7 21  1  0
  8 22  1  0
  8 23  1  0
  8 24  1  0
  9 25  1  0
 11 26  1  0
 11 27  1  0
 11 28  1  0
 14 29  1  0
 14 30  1  0
 14 31  1  0
M  END
>  <meeko>  (3) 
{"is_sidechain": [false], "free_energy": -5.524, "intermolecular_energy": -6.444, "internal_energy": -0.524}

$$$$
4lzs_ligand
     RDKit          3D

 31 31  0  0  0  0  0  0  0  0999 V2000
    9.9270   38.0670   74.8490 C   0  0  0  0  0  0  0  0  0  0  0  0
   10.7680   37.0920   75.6570 C   0  0  0  0  0  0  0  0  0  0  0  0
   12.1030   37.6700   76.0430 C   0  0  0  0  0  0  0  0  0  0  0  0
   13.2730   37.5880   75.2960 C   0  0  0  0  0  0  0  0  0  0  0  0
   13.5090   36.9540   74.0110 C   0  0  0  0  0  0  0  0  0  0  0  0
   12.8570   37.1890   72.9990 O   0  0  0  0  0  0  0  0  0  0  0  0
   14.5660   36.0630   74.0160 N   0  0  0  0  0  0  0  0  0  0  0  0
   15.0010   35.4630   72.7800 C   0  0  0  0  0  0  0  0  0  0  0  0
   14.2540   38.2060   76.0310 N   0  0  0  0  0  0  0  0  0  0  0  0
   13.7490   38.7380   77.1910 C   0  0  0  0  0  0  0  0  0  0  0  0
   14.6420   39.5060   78.1000 C   0  0  0  0  0  0  0  0  0  0  0  0
   12.3960   38.4190   77.2460 C   0  0  0  0  0  0  0  0  0  0  0  0
   11.4340   38.7780   78.3040 C   0  0  0  0  0  0  0  0  0  0  0  0
   10.6660   37.6920   79.0130 C   0  0  0  0  0  0  0  0  0  0  0  0
   11.2460   39.9510   78.6300 O   0  0  0  0  0  0  0  0  0  0  0  0
    9.3641   38.7196   75.5326 H   0  0  0  0  0  0  0  0  0  0  0  0
   10.5843   38.6801   74.2149 H   0  0  0  0  0  0  0  0  0  0  0  0
    9.2241   37.5068   74.2149 H   0  0  0  0  0  0  0  0  0  0  0  0
   10.2195   36.8269   76.5729 H   0  0  0  0  0  0  0  0  0  0  0  0
   10.9537   36.2083   75.0289 H   0  0  0  0  0  0  0  0  0  0  0  0
   15.2670   36.2000   74.7310 H   0  0  0  0  0  0  0  0  0  0  0  0
   15.6338   34.5902   72.9988 H   0  0  0  0  0  0  0  0  0  0  0  0
   14.1235   35.1432   72.1989 H   0  0  0  0  0  0  0  0  0  0  0  0
   15.5778   36.1976   72.1989 H   0  0  0  0  0  0  0  0  0  0  0  0
   15.2250   38.2460   75.7490 H   0  0  0  0  0  0  0  0  0  0  0  0
   14.3817   39.2821   79.1450 H   0  0  0  0  0  0  0  0  0  0  0  0
   15.6879   39.2209   77.9135 H   0  0  0  0  0  0  0  0  0  0  0  0
   14.5166   40.5828   77.9135 H   0  0  0  0  0  0  0  0  0  0  0  0
   10.7608   37.8261   80.1007 H   0  0  0  0  0  0  0  0  0  0  0  0
    9.6050   37.7472   78.7279 H   0  0  0  0  0  0  0  0  0  0  0  0
   11.0716   36.7101   78.7279 H   0  0  0  0  0  0  0  0  0  0  0  0
  1  2  1  0
  2  3  1  0
  3  4  2  0
  4  5  1  0
  5  6  2  0
  5  7  1  0
  7  8  1  0
  4  9  1  0
  9 10  1  0
 10 11  1  0
 10 12  2  0
 12 13  1  0
 13 14  1  0
 13 15  2  0
 12  3  1  0
  1 16  1  0
  1 17  1  0
  1 18  1  0
  2 19  1  0
  2 20  1  0
  7 21  1  0
  8 22  1  0
  8 23  1  0
  8 24  1  0
  9 25  1  0
 11 26  1  0
 11 27  1  0
 11 28  1  0
 14 29  1  0
 14 30  1  0
 14 31  1  0
M  END
>  <meeko>  (4) 
{"is_sidechain": [false], "free_energy": -5.412, "intermolecular_energy": -6.534, "internal_energy": -0.301}

$$$$
4lzs_ligand
     RDKit          3D

 31 31  0  0  0  0  0  0  0  0999 V2000
   11.6350   40.5450   80.4880 C   0  0  0  0  0  0  0  0  0  0  0  0
   11.7290   40.6290   78.9730 C   0  0  0  0  0  0  0  0  0  0  0  0
   12.3780   39.4120   78.3710 C   0  0  0  0  0  0  0  0  0  0  0  0
   11.7160   38.2780   77.9120 C   0  0  0  0  0  0  0  0  0  0  0  0
   10.2940   37.9800   77.8940 C   0  0  0  0  0  0  0  0  0  0  0  0
    9.6050   37.9830   76.8790 O   0  0  0  0  0  0  0  0  0  0  0  0
    9.7770   37.6630   79.1360 N   0  0  0  0  0  0  0  0  0  0  0  0
    8.4120   37.2120   79.2480 C   0  0  0  0  0  0  0  0  0  0  0  0
   12.6820   37.4010   77.4870 N   0  0  0  0  0  0  0  0  0  0  0  0
   13.9360   37.9500   77.5950 C   0  0  0  0  0  0  0  0  0  0  0  0
   15.1210   37.1810   77.1260 C   0  0  0  0  0  0  0  0  0  0  0  0
   13.7950   39.2160   78.1550 C   0  0  0  0  0  0  0  0  0  0  0  0
   14.8650   40.1840   78.4590 C   0  0  0  0  0  0  0  0  0  0  0  0
   14.6110   41.2860   79.4550 C   0  0  0  0  0  0  0  0  0  0  0  0
   15.9700   40.1100   77.9200 O   0  0  0  0  0  0  0  0  0  0  0  0
   12.3830   41.2134   80.9394 H   0  0  0  0  0  0  0  0  0  0  0  0
   10.6285   40.8501   80.8104 H   0  0  0  0  0  0  0  0  0  0  0  0
   11.8255   39.5107   80.8104 H   0  0  0  0  0  0  0  0  0  0  0  0
   10.7140   40.7286   78.5609 H   0  0  0  0  0  0  0  0  0  0  0  0
   12.3523   41.5002   78.7230 H   0  0  0  0  0  0  0  0  0  0  0  0
   10.4320   37.3140   79.8210 H   0  0  0  0  0  0  0  0  0  0  0  0
    8.1414   37.1226   80.3104 H   0  0  0  0  0  0  0  0  0  0  0  0
    7.7449   37.9375   78.7595 H   0  0  0  0  0  0  0  0  0  0  0  0
    8.3084   36.2319   78.7595 H   0  0  0  0  0  0  0  0  0  0  0  0
   12.4850   36.4680   77.1520 H   0  0  0  0  0  0  0  0  0  0  0  0
   15.6870   36.8137   77.9947 H   0  0  0  0  0  0  0  0  0  0  0  0
   14.7869   36.3271   76.5183 H   0  0  0  0  0  0  0  0  0  0  0  0
   15.7648   37.8339   76.5183 H   0  0  0  0  0  0  0  0  0  0  0  0
   14.7032   40.8862   80.4756 H   0  0  0  0  0  0  0  0  0  0  0  0
   15.3474   42.0898   79.3082 H   0  0  0  0  0  0  0  0  0  0  0  0
   13.5970   41.6864   79.3082 H   0  0  0  0  0  0  0  0  0  0  0  0
  1  2  1  0
  2  3  1  0
  3  4  2  0
  4  5  1  0
  5  6  2  0
  5  7  1  0
  7  8  1  0
  4  9  1  0
  9 10  1  0
 10 11  1  0
 10 12  2  0
 12 13  1  0
 13 14  1  0
 13 15  2  0
 12  3  1  0
  1 16  1  0
  1 17  1  0
  1 18  1  0
  2 19  1  0
  2 20  1  0
  7 21  1  0
  8 22  1  0
  8 23  1  0
  8 24  1  0
  9 25  1  0
 11 26  1  0
 11 27  1  0
 11 28  1  0
 14 29  1  0
 14 30  1  0
 14 31  1  0
M  END
>  <meeko>  (5) 
{"is_sidechain": [false], "free_energy": -5.411, "intermolecular_energy": -7.413, "internal_energy": 0.579}

$$$$
4lzs_ligand
     RDKit          3D

 31 31  0  0  0  0  0  0  0  0999 V2000
   14.6110   37.2680   77.5910 C   0  0  0  0  0  0  0  0  0  0  0  0
   13.9820   38.3260   76.6980 C   0  0  0  0  0  0  0  0  0  0  0  0
   12.5920   37.9530   76.2590 C   0  0  0  0  0  0  0  0  0  0  0  0
   12.2480   37.3910   75.0340 C   0  0  0  0  0  0  0  0  0  0  0  0
   13.0930   37.0350   73.9080 C   0  0  0  0  0  0  0  0  0  0  0  0
   13.1160   37.6470   72.8450 O   0  0  0  0  0  0  0  0  0  0  0  0
   13.9050   35.9420   74.1460 N   0  0  0  0  0  0  0  0  0  0  0  0
   14.8940   35.5590   73.1700 C   0  0  0  0  0  0  0  0  0  0  0  0
   10.8820   37.2540   75.0330 N   0  0  0  0  0  0  0  0  0  0  0  0
   10.3400   37.6450   76.2310 C   0  0  0  0  0  0  0  0  0  0  0  0
    8.8750   37.5160   76.4570 C   0  0  0  0  0  0  0  0  0  0  0  0
   11.3800   38.1010   77.0350 C   0  0  0  0  0  0  0  0  0  0  0  0
   11.2860   38.6200   78.4120 C   0  0  0  0  0  0  0  0  0  0  0  0
   11.7180   40.0340   78.7060 C   0  0  0  0  0  0  0  0  0  0  0  0
   10.8560   37.9230   79.3330 O   0  0  0  0  0  0  0  0  0  0  0  0
   14.4514   37.5364   78.6458 H   0  0  0  0  0  0  0  0  0  0  0  0
   14.1463   36.2922   77.3866 H   0  0  0  0  0  0  0  0  0  0  0  0
   15.6903   37.2101   77.3866 H   0  0  0  0  0  0  0  0  0  0  0  0
   13.9346   39.2744   77.2533 H   0  0  0  0  0  0  0  0  0  0  0  0
   14.6053   38.4178   75.7963 H   0  0  0  0  0  0  0  0  0  0  0  0
   14.1140   35.7390   75.1140 H   0  0  0  0  0  0  0  0  0  0  0  0
   15.8005   35.2080   73.6848 H   0  0  0  0  0  0  0  0  0  0  0  0
   14.4938   34.7508   72.5401 H   0  0  0  0  0  0  0  0  0  0  0  0
   15.1425   36.4259   72.5401 H   0  0  0  0  0  0  0  0  0  0  0  0
   10.3520   36.9190   74.2390 H   0  0  0  0  0  0  0  0  0  0  0  0
    8.6709   37.4980   77.5378 H   0  0  0  0  0  0  0  0  0  0  0  0
    8.3567   38.3720   76.0002 H   0  0  0  0  0  0  0  0  0  0  0  0
    8.5143   36.5826   76.0002 H   0  0  0  0  0  0  0  0  0  0  0  0
   11.7640   40.1845   79.7947 H   0  0  0  0  0  0  0  0  0  0  0  0
   12.7116   40.2122   78.2689 H   0  0  0  0  0  0  0  0  0  0  0  0
   10.9937   40.7371   78.2689 H   0  0  0  0  0  0  0  0  0  0  0  0
  1  2  1  0
  2  3  1  0
  3  4  2  0
  4  5  1  0
  5  6  2  0
  5  7  1  0
  7  8  1  0
  4  9  1  0
  9 10  1  0
 10 11  1  0
 10 12  2  0
 12 13  1  0
 13 14  1  0
 13 15  2  0
 12  3  1  0
  1 16  1  0
  1 17  1  0
  1 18  1  0
  2 19  1  0
  2 20  1  0
  7 21  1  0
  8 22  1  0
  8 23  1  0
  8 24  1  0
  9 25  1  0
 11 26  1  0
 11 27  1  0
 11 28  1  0
 14 29  1  0
 14 30  1  0
 14 31  1  0
M  END
>  <meeko>  (6) 
{"is_sidechain": [false], "free_energy": -5.319, "intermolecular_energy": -6.366, "internal_energy": -0.361}

$$$$
4lzs_ligand
     RDKit          3D

 31 31  0  0  0  0  0  0  0  0999 V2000
   12.4550   37.5060   74.5070 C   0  0  0  0  0  0  0  0  0  0  0  0
   12.2310   36.8220   75.8460 C   0  0  0  0  0  0  0  0  0  0  0  0
   11.7980   37.7860   76.9170 C   0  0  0  0  0  0  0  0  0  0  0  0
   10.5130   37.9060   77.4350 C   0  0  0  0  0  0  0  0  0  0  0  0
    9.3060   37.1720   77.0970 C   0  0  0  0  0  0  0  0  0  0  0  0
    8.5040   36.7510   77.9240 O   0  0  0  0  0  0  0  0  0  0  0  0
    9.1200   37.0040   75.7380 N   0  0  0  0  0  0  0  0  0  0  0  0
    7.8970   36.4150   75.2510 C   0  0  0  0  0  0  0  0  0  0  0  0
   10.5500   38.9270   78.3510 N   0  0  0  0  0  0  0  0  0  0  0  0
   11.8210   39.4270   78.4900 C   0  0  0  0  0  0  0  0  0  0  0  0
   12.0870   40.5020   79.4840 C   0  0  0  0  0  0  0  0  0  0  0  0
   12.6430   38.7430   77.5990 C   0  0  0  0  0  0  0  0  0  0  0  0
   14.0900   38.9310   77.3910 C   0  0  0  0  0  0  0  0  0  0  0  0
   15.0060   37.7350   77.4040 C   0  0  0  0  0  0  0  0  0  0  0  0
   14.5710   40.0500   77.1980 O   0  0  0  0  0  0  0  0  0  0  0  0
   12.7933   38.5391   74.6751 H   0  0  0  0  0  0  0  0  0  0  0  0
   13.2204   36.9574   73.9385 H   0  0  0  0  0  0  0  0  0  0  0  0
   11.5133   37.5164   73.9385 H   0  0  0  0  0  0  0  0  0  0  0  0
   11.4518   36.0551   75.7250 H   0  0  0  0  0  0  0  0  0  0  0  0
   13.1874   36.3787   76.1604 H   0  0  0  0  0  0  0  0  0  0  0  0
    9.5780   37.6730   75.1340 H   0  0  0  0  0  0  0  0  0  0  0  0
    7.2705   36.1133   76.1034 H   0  0  0  0  0  0  0  0  0  0  0  0
    7.3541   37.1504   74.6391 H   0  0  0  0  0  0  0  0  0  0  0  0
    8.1335   35.5320   74.6391 H   0  0  0  0  0  0  0  0  0  0  0  0
    9.7360   39.2690   78.8440 H   0  0  0  0  0  0  0  0  0  0  0  0
   11.9861   40.0944   80.5007 H   0  0  0  0  0  0  0  0  0  0  0  0
   13.1076   40.8874   79.3430 H   0  0  0  0  0  0  0  0  0  0  0  0
   11.3639   41.3188   79.3430 H   0  0  0  0  0  0  0  0  0  0  0  0
   15.2235   37.4510   78.4442 H   0  0  0  0  0  0  0  0  0  0  0  0
   14.5186   36.8942   76.8886 H   0  0  0  0  0  0  0  0  0  0  0  0
   15.9447   37.9865   76.8886 H   0  0  0  0  0  0  0  0  0  0  0  0
  1  2  1  0
  2  3  1  0
  3  4  2  0
  4  5  1  0
  5  6  2  0
  5  7  1  0
  7  8  1  0
  4  9  1  0
  9 10  1  0
 10 11  1  0
 10 12  2  0
 12 13  1  0
 13 14  1  0
 13 15  2  0
 12  3  1  0
  1 16  1  0
  1 17  1  0
  1 18  1  0
  2 19  1  0
  2 20  1  0
  7 21  1  0
  8 22  1  0
  8 23  1  0
  8 24  1  0
  9 25  1  0
 11 26  1  0
 11 27  1  0
 11 28  1  0
 14 29  1  0
 14 30  1  0
 14 31  1  0
M  END
>  <meeko>  (7) 
{"is_sidechain": [false], "free_energy": -5.303, "intermolecular_energy": -6.807, "internal_energy": 0.1}

$$$$
4lzs_ligand
     RDKit          3D

 31 31  0  0  0  0  0  0  0  0999 V2000
   10.7340   38.6760   77.9710 C   0  0  0  0  0  0  0  0  0  0  0  0
   11.2930   37.3630   77.4450 C   0  0  0  0  0  0  0  0  0  0  0  0
   11.9850   37.5250   76.1190 C   0  0  0  0  0  0  0  0  0  0  0  0
   13.3170   37.8800   75.9340 C   0  0  0  0  0  0  0  0  0  0  0  0
   14.3420   38.1770   76.9190 C   0  0  0  0  0  0  0  0  0  0  0  0
   15.2700   37.4230   77.1930 O   0  0  0  0  0  0  0  0  0  0  0  0
   14.1970   39.4160   77.5150 N   0  0  0  0  0  0  0  0  0  0  0  0
   15.2170   39.9020   78.4110 C   0  0  0  0  0  0  0  0  0  0  0  0
   13.5200   37.9550   74.5780 N   0  0  0  0  0  0  0  0  0  0  0  0
   12.3910   37.6000   73.8840 C   0  0  0  0  0  0  0  0  0  0  0  0
   12.4220   37.5550   72.3970 C   0  0  0  0  0  0  0  0  0  0  0  0
   11.3930   37.3270   74.8140 C   0  0  0  0  0  0  0  0  0  0  0  0
   10.0070   36.9040   74.5420 C   0  0  0  0  0  0  0  0  0  0  0  0
    8.8780   37.8860   74.7230 C   0  0  0  0  0  0  0  0  0  0  0  0
    9.7470   35.7600   74.1620 O   0  0  0  0  0  0  0  0  0  0  0  0
   10.7397   38.6625   79.0709 H   0  0  0  0  0  0  0  0  0  0  0  0
   11.3554   39.5094   77.6113 H   0  0  0  0  0  0  0  0  0  0  0  0
    9.7026   38.8057   77.6113 H   0  0  0  0  0  0  0  0  0  0  0  0
   12.0156   36.9690   78.1748 H   0  0  0  0  0  0  0  0  0  0  0  0
   10.4488   36.6726   77.3008 H   0  0  0  0  0  0  0  0  0  0  0  0
   13.6770   40.1080   76.9950 H   0  0  0  0  0  0  0  0  0  0  0  0
   14.8946   39.7484   79.4514 H   0  0  0  0  0  0  0  0  0  0  0  0
   16.1536   39.3534   78.2325 H   0  0  0  0  0  0  0  0  0  0  0  0
   15.3809   40.9750   78.2325 H   0  0  0  0  0  0  0  0  0  0  0  0
   14.3910   38.2490   74.1560 H   0  0  0  0  0  0  0  0  0  0  0  0
   13.0176   36.6904   72.0687 H   0  0  0  0  0  0  0  0  0  0  0  0
   11.3960   37.4611   72.0115 H   0  0  0  0  0  0  0  0  0  0  0  0
   12.8753   38.4802   72.0115 H   0  0  0  0  0  0  0  0  0  0  0  0
    8.6973   38.0432   75.7966 H   0  0  0  0  0  0  0  0  0  0  0  0
    9.1458   38.8434   74.2522 H   0  0  0  0  0  0  0  0  0  0  0  0
    7.9669   37.4881   74.2522 H   0  0  0  0  0  0  0  0  0  0  0  0
  1  2  1  0
  2  3  1  0
  3  4  2  0
  4  5  1  0
  5  6  2  0
  5  7  1  0
  7  8  1  0
  4  9  1  0
  9 10  1  0
 10 11  1  0
 10 12  2  0
 12 13  1  0
 13 14  1  0
 13 15  2  0
 12  3  1  0
  1 16  1  0
  1 17  1  0
  1 18  1  0
  2 19  1  0
  2 20  1  0
  7 21  1  0
  8 22  1  0
  8 23  1  0
  8 24  1  0
  9 25  1  0
 11 26  1  0
 11 27  1  0
 11 28  1  0
 14 29  1  0
 14 30  1  0
 14 31  1  0
M  END
>  <meeko>  (8) 
{"is_sidechain": [false], "free_energy": -5.259, "intermolecular_energy": -6.161, "internal_energy": -0.494}

$$$$
4lzs_ligand
     RDKit          3D

 31 31  0  0  0  0  0  0  0  0999 V2000
   13.8100   36.1100   74.0200 C   0  0  0  0  0  0  0  0  0  0  0  0
   13.1890   37.4980   74.0120 C   0  0  0  0  0  0  0  0  0  0  0  0
   12.2010   37.6890   75.1310 C   0  0  0  0  0  0  0  0  0  0  0  0
   10.8220   37.5380   75.0350 C   0  0  0  0  0  0  0  0  0  0  0  0
   10.0080   37.1750   73.8880 C   0  0  0  0  0  0  0  0  0  0  0  0
    9.9750   36.0520   73.3970 O   0  0  0  0  0  0  0  0  0  0  0  0
    9.2380   38.2150   73.4020 N   0  0  0  0  0  0  0  0  0  0  0  0
    8.2800   37.9660   72.3540 C   0  0  0  0  0  0  0  0  0  0  0  0
   10.3040   37.8470   76.2680 N   0  0  0  0  0  0  0  0  0  0  0  0
   11.2990   38.1300   77.1710 C   0  0  0  0  0  0  0  0  0  0  0  0
   10.9490   38.4300   78.5850 C   0  0  0  0  0  0  0  0  0  0  0  0
   12.5140   38.0500   76.4970 C   0  0  0  0  0  0  0  0  0  0  0  0
   13.8620   38.2700   77.0530 C   0  0  0  0  0  0  0  0  0  0  0  0
   14.4900   37.2130   77.9240 C   0  0  0  0  0  0  0  0  0  0  0  0
   14.4930   39.3010   76.8150 O   0  0  0  0  0  0  0  0  0  0  0  0
   13.9575   35.7803   75.0590 H   0  0  0  0  0  0  0  0  0  0  0  0
   13.1410   35.4060   73.5034 H   0  0  0  0  0  0  0  0  0  0  0  0
   14.7807   36.1396   73.5034 H   0  0  0  0  0  0  0  0  0  0  0  0
   13.9902   38.2444   74.1165 H   0  0  0  0  0  0  0  0  0  0  0  0
   12.6482   37.6188   73.0618 H   0  0  0  0  0  0  0  0  0  0  0  0
    9.0250   38.9600   74.0500 H   0  0  0  0  0  0  0  0  0  0  0  0
    7.3066   37.7130   72.7995 H   0  0  0  0  0  0  0  0  0  0  0  0
    8.1752   38.8668   71.7314 H   0  0  0  0  0  0  0  0  0  0  0  0
    8.6271   37.1282   71.7314 H   0  0  0  0  0  0  0  0  0  0  0  0
    9.3130   37.8740   76.4710 H   0  0  0  0  0  0  0  0  0  0  0  0
   11.6114   37.8623   79.2551 H   0  0  0  0  0  0  0  0  0  0  0  0
   11.0729   39.5067   78.7729 H   0  0  0  0  0  0  0  0  0  0  0  0
    9.9039   38.1429   78.7729 H   0  0  0  0  0  0  0  0  0  0  0  0
   14.3366   37.4712   78.9822 H   0  0  0  0  0  0  0  0  0  0  0  0
   14.0238   36.2393   77.7128 H   0  0  0  0  0  0  0  0  0  0  0  0
   15.5681   37.1568   77.7128 H   0  0  0  0  0  0  0  0  0  0  0  0
  1  2  1  0
  2  3  1  0
  3  4  2  0
  4  5  1  0
  5  6  2  0
  5  7  1  0
  7  8  1  0
  4  9  1  0
  9 10  1  0
 10 11  1  0
 10 12  2  0
 12 13  1  0
 13 14  1  0
 13 15  2  0
 12  3  1  0
  1 16  1  0
  1 17  1  0
  1 18  1  0
  2 19  1  0
  2 20  1  0
  7 21  1  0
  8 22  1  0
  8 23  1  0
  8 24  1  0
  9 25  1  0
 11 26  1  0
 11 27  1  0
 11 28  1  0
 14 29  1  0
 14 30  1  0
 14 31  1  0
M  END
>  <meeko>  (9) 
{"is_sidechain": [false], "free_energy": -5.102, "intermolecular_energy": -5.942, "internal_energy": -0.53}

$$$$
