5a7b_ligand
     RDKit          3D

 65 67  0  0  0  0  0  0  0  0999 V2000
   93.0150   93.0960  -41.1820 C   0  0  0  0  0  0  0  0  0  0  0  0
   92.5320   93.4380  -42.2270 C   0  0  0  0  0  0  0  0  0  0  0  0
   91.9560   93.8330  -43.4780 C   0  0  0  0  0  0  0  0  0  0  0  0
   92.0040   92.9390  -44.5510 C   0  0  0  0  0  0  0  0  0  0  0  0
   91.4650   93.2990  -45.7860 C   0  0  0  0  0  0  0  0  0  0  0  0
   91.5230   92.3960  -46.8910 C   0  0  0  0  0  0  0  0  0  0  0  0
   91.5640   91.6680  -47.8460 C   0  0  0  0  0  0  0  0  0  0  0  0
   91.5850   90.7950  -49.0280 C   0  0  0  0  0  0  0  0  0  0  0  0
   90.5890   91.2550  -49.9390 O   0  0  0  0  0  0  0  0  0  0  0  0
   89.7140   90.3200  -50.4230 C   0  0  0  0  0  0  0  0  0  0  0  0
   89.7570   89.0860  -49.7680 C   0  0  0  0  0  0  0  0  0  0  0  0
   88.9170   88.0420  -50.1580 C   0  0  0  0  0  0  0  0  0  0  0  0
   88.0250   88.2270  -51.2110 C   0  0  0  0  0  0  0  0  0  0  0  0
   87.9750   89.4540  -51.8690 C   0  0  0  0  0  0  0  0  0  0  0  0
   88.8170   90.5000  -51.4780 C   0  0  0  0  0  0  0  0  0  0  0  0
   90.8710   94.5530  -45.9550 C   0  0  0  0  0  0  0  0  0  0  0  0
   90.8130   95.4680  -44.8910 C   0  0  0  0  0  0  0  0  0  0  0  0
   90.1870   96.8160  -45.0970 C   0  0  0  0  0  0  0  0  0  0  0  0
   91.1050   97.8250  -45.7940 N   0  0  2  0  0  0  0  0  0  0  0  0
   92.3580   98.1660  -45.0300 C   0  0  0  0  0  0  0  0  0  0  0  0
   92.0780   99.1540  -43.9030 C   0  0  0  0  0  0  0  0  0  0  0  0
   91.1120  100.2700  -44.3220 C   0  0  1  0  0  0  0  0  0  0  0  0
   91.5080  101.6250  -43.7010 N   0  0  0  0  0  0  0  0  0  0  0  0
   92.9770  101.6200  -43.2300 C   0  0  0  0  0  0  0  0  0  0  0  0
   93.0780  101.9960  -41.7610 C   0  0  0  0  0  0  0  0  0  0  0  0
   90.6130  102.1930  -42.5940 C   0  0  0  0  0  0  0  0  0  0  0  0
   89.4510  101.2770  -42.2690 C   0  0  0  0  0  0  0  0  0  0  0  0
   90.8930  100.3410  -45.8300 C   0  0  0  0  0  0  0  0  0  0  0  0
   90.3530   99.0090  -46.3560 C   0  0  0  0  0  0  0  0  0  0  0  0
   91.3630   95.0930  -43.6560 C   0  0  0  0  0  0  0  0  0  0  0  0
   91.3130   96.0200  -42.6430 O   0  0  0  0  0  0  0  0  0  0  0  0
   93.4574   92.7827  -40.2248 H   0  0  0  0  0  0  0  0  0  0  0  0
   92.4676   91.9499  -44.4214 H   0  0  0  0  0  0  0  0  0  0  0  0
   92.5750   90.8384  -49.5055 H   0  0  0  0  0  0  0  0  0  0  0  0
   91.3812   89.7543  -48.7356 H   0  0  0  0  0  0  0  0  0  0  0  0
   90.4607   88.9361  -48.9359 H   0  0  0  0  0  0  0  0  0  0  0  0
   88.9595   87.0753  -49.6348 H   0  0  0  0  0  0  0  0  0  0  0  0
   87.3616   87.4067  -51.5225 H   0  0  0  0  0  0  0  0  0  0  0  0
   87.2697   89.6008  -52.7003 H   0  0  0  0  0  0  0  0  0  0  0  0
   88.7726   91.4660  -52.0023 H   0  0  0  0  0  0  0  0  0  0  0  0
   90.4445   94.8261  -46.9315 H   0  0  0  0  0  0  0  0  0  0  0  0
   89.2830   96.6883  -45.7106 H   0  0  0  0  0  0  0  0  0  0  0  0
   89.9650   97.2216  -44.0989 H   0  0  0  0  0  0  0  0  0  0  0  0
   91.4380   97.2900  -46.6110 H   0  0  0  0  0  0  0  0  0  0  0  0
   92.7760   97.2437  -44.6003 H   0  0  0  0  0  0  0  0  0  0  0  0
   93.0693   98.6327  -45.7273 H   0  0  0  0  0  0  0  0  0  0  0  0
   91.6379   98.6068  -43.0563 H   0  0  0  0  0  0  0  0  0  0  0  0
   93.0331   99.6260  -43.6292 H   0  0  0  0  0  0  0  0  0  0  0  0
   90.1274  100.0078  -43.9074 H   0  0  0  0  0  0  0  0  0  0  0  0
   91.4910  102.3220  -44.4620 H   0  0  0  0  0  0  0  0  0  0  0  0
   93.3976  100.6138  -43.3737 H   0  0  0  0  0  0  0  0  0  0  0  0
   93.5375  102.3594  -43.8209 H   0  0  0  0  0  0  0  0  0  0  0  0
   92.8423  101.1186  -41.1409 H   0  0  0  0  0  0  0  0  0  0  0  0
   94.0998  102.3378  -41.5394 H   0  0  0  0  0  0  0  0  0  0  0  0
   92.3650  102.8038  -41.5394 H   0  0  0  0  0  0  0  0  0  0  0  0
   91.2183  102.3326  -41.6862 H   0  0  0  0  0  0  0  0  0  0  0  0
   90.1998  103.1477  -42.9514 H   0  0  0  0  0  0  0  0  0  0  0  0
   89.3445  101.1930  -41.1774 H   0  0  0  0  0  0  0  0  0  0  0  0
   88.5264  101.6918  -42.6968 H   0  0  0  0  0  0  0  0  0  0  0  0
   89.6384  100.2811  -42.6968 H   0  0  0  0  0  0  0  0  0  0  0  0
   90.1694  101.1387  -46.0536 H   0  0  0  0  0  0  0  0  0  0  0  0
   91.8547  100.5536  -46.3198 H   0  0  0  0  0  0  0  0  0  0  0  0
   89.2931   98.9210  -46.0751 H   0  0  0  0  0  0  0  0  0  0  0  0
   90.4802   99.0015  -47.4486 H   0  0  0  0  0  0  0  0  0  0  0  0
   91.9000   95.7060  -41.9230 H   0  0  0  0  0  0  0  0  0  0  0  0
  1  2  3  0
  2  3  1  0
  3  4  2  0
  4  5  1  0
  5  6  1  0
  6  7  3  0
  7  8  1  0
  8  9  1  0
  9 10  1  0
 10 11  2  0
 11 12  1  0
 12 13  2  0
 13 14  1  0
 14 15  2  0
  5 16  2  0
 16 17  1  0
 17 18  1  0
 18 19  1  0
 19 20  1  0
 20 21  1  0
 21 22  1  0
 22 23  1  0
 23 24  1  0
 24 25  1  0
 23 26  1  0
 26 27  1  0
 22 28  1  0
 28 29  1  0
 17 30  2  0
 30 31  1  0
 30  3  1  0
 15 10  1  0
 29 19  1  0
  1 32  1  0
  4 33  1  0
  8 34  1  0
  8 35  1  0
 11 36  1  0
 12 37  1  0
 13 38  1  0
 14 39  1  0
 15 40  1  0
 16 41  1  0
 18 42  1  0
 18 43  1  0
 19 44  1  1
 20 45  1  0
 20 46  1  0
 21 47  1  0
 21 48  1  0
 22 49  1  6
 23 50  1  0
 24 51  1  0
 24 52  1  0
 25 53  1  0
 25 54  1  0
 25 55  1  0
 26 56  1  0
 26 57  1  0
 27 58  1  0
 27 59  1  0
 27 60  1  0
 28 61  1  0
 28 62  1  0
 29 63  1  0
 29 64  1  0
 31 65  1  0
M  CHG  2  19   1  23   1
M  END
>  <meeko>  (1) 
{"is_sidechain": [false], "free_energy": -7.155, "intermolecular_energy": -10.711, "internal_energy": -1.084}

$$$$
5a7b_ligand
     RDKit          3D

 65 67  0  0  0  0  0  0  0  0999 V2000
   92.9320   92.8200  -41.0880 C   0  0  0  0  0  0  0  0  0  0  0  0
   92.4940   93.2180  -42.1330 C   0  0  0  0  0  0  0  0  0  0  0  0
   91.9710   93.6800  -43.3840 C   0  0  0  0  0  0  0  0  0  0  0  0
   91.9730   92.8070  -44.4760 C   0  0  0  0  0  0  0  0  0  0  0  0
   91.4840   93.2300  -45.7120 C   0  0  0  0  0  0  0  0  0  0  0  0
   91.4960   92.3490  -46.8350 C   0  0  0  0  0  0  0  0  0  0  0  0
   91.5020   91.6390  -47.8040 C   0  0  0  0  0  0  0  0  0  0  0  0
   91.4750   90.7830  -48.9990 C   0  0  0  0  0  0  0  0  0  0  0  0
   90.2650   91.0450  -49.7070 O   0  0  0  0  0  0  0  0  0  0  0  0
   89.6200   89.9670  -50.2510 C   0  0  0  0  0  0  0  0  0  0  0  0
   89.8470   88.7570  -49.5890 C   0  0  0  0  0  0  0  0  0  0  0  0
   89.2500   87.5770  -50.0370 C   0  0  0  0  0  0  0  0  0  0  0  0
   88.4200   87.6010  -51.1540 C   0  0  0  0  0  0  0  0  0  0  0  0
   88.1880   88.8030  -51.8190 C   0  0  0  0  0  0  0  0  0  0  0  0
   88.7860   89.9860  -51.3700 C   0  0  0  0  0  0  0  0  0  0  0  0
   90.9850   94.5280  -45.8630 C   0  0  0  0  0  0  0  0  0  0  0  0
   90.9740   95.4220  -44.7800 C   0  0  0  0  0  0  0  0  0  0  0  0
   90.4510   96.8160  -44.9670 C   0  0  0  0  0  0  0  0  0  0  0  0
   91.3600   97.9020  -44.3840 N   0  0  2  0  0  0  0  0  0  0  0  0
   90.6350   99.0160  -43.6770 C   0  0  0  0  0  0  0  0  0  0  0  0
   90.0320  100.0100  -44.6650 C   0  0  0  0  0  0  0  0  0  0  0  0
   90.9770  100.3330  -45.8300 C   0  0  1  0  0  0  0  0  0  0  0  0
   90.8900  101.8180  -46.2350 N   0  0  0  0  0  0  0  0  0  0  0  0
   92.1560  102.2690  -46.9930 C   0  0  0  0  0  0  0  0  0  0  0  0
   91.9830  102.0880  -48.4920 C   0  0  0  0  0  0  0  0  0  0  0  0
   90.5500  102.8380  -45.1430 C   0  0  0  0  0  0  0  0  0  0  0  0
   91.7840  103.3370  -44.4200 C   0  0  0  0  0  0  0  0  0  0  0  0
   92.4070   99.8560  -45.5930 C   0  0  0  0  0  0  0  0  0  0  0  0
   92.4350   98.3460  -45.3490 C   0  0  0  0  0  0  0  0  0  0  0  0
   91.4740   94.9830  -43.5450 C   0  0  0  0  0  0  0  0  0  0  0  0
   91.4720   95.8900  -42.5130 O   0  0  0  0  0  0  0  0  0  0  0  0
   93.3332   92.4555  -40.1308 H   0  0  0  0  0  0  0  0  0  0  0  0
   92.3611   91.7843  -44.3602 H   0  0  0  0  0  0  0  0  0  0  0  0
   92.3388   91.0116  -49.6405 H   0  0  0  0  0  0  0  0  0  0  0  0
   91.5237   89.7231  -48.7086 H   0  0  0  0  0  0  0  0  0  0  0  0
   90.5027   88.7342  -48.7061 H   0  0  0  0  0  0  0  0  0  0  0  0
   89.4353   86.6304  -49.5082 H   0  0  0  0  0  0  0  0  0  0  0  0
   87.9485   86.6734  -51.5108 H   0  0  0  0  0  0  0  0  0  0  0  0
   87.5315   88.8224  -52.7014 H   0  0  0  0  0  0  0  0  0  0  0  0
   88.5985   90.9318  -51.8995 H   0  0  0  0  0  0  0  0  0  0  0  0
   90.5972   94.8518  -46.8401 H   0  0  0  0  0  0  0  0  0  0  0  0
   90.3369   97.0016  -46.0452 H   0  0  0  0  0  0  0  0  0  0  0  0
   89.4952   96.8743  -44.4256 H   0  0  0  0  0  0  0  0  0  0  0  0
   91.8510   97.3950  -43.6310 H   0  0  0  0  0  0  0  0  0  0  0  0
   89.8277   98.5854  -43.0663 H   0  0  0  0  0  0  0  0  0  0  0  0
   91.3599   99.5532  -43.0478 H   0  0  0  0  0  0  0  0  0  0  0  0
   89.1041   99.5824  -45.0725 H   0  0  0  0  0  0  0  0  0  0  0  0
   89.8429  100.9469  -44.1206 H   0  0  0  0  0  0  0  0  0  0  0  0
   90.6260   99.7496  -46.6940 H   0  0  0  0  0  0  0  0  0  0  0  0
   90.1370  101.8950  -46.9360 H   0  0  0  0  0  0  0  0  0  0  0  0
   92.3456  103.3310  -46.7778 H   0  0  0  0  0  0  0  0  0  0  0  0
   93.0039  101.6525  -46.6598 H   0  0  0  0  0  0  0  0  0  0  0  0
   91.2345  101.3049  -48.6828 H   0  0  0  0  0  0  0  0  0  0  0  0
   91.6454  103.0346  -48.9391 H   0  0  0  0  0  0  0  0  0  0  0  0
   92.9439  101.7935  -48.9391 H   0  0  0  0  0  0  0  0  0  0  0  0
   90.0400  103.6956  -45.6061 H   0  0  0  0  0  0  0  0  0  0  0  0
   89.9053  102.3390  -44.4045 H   0  0  0  0  0  0  0  0  0  0  0  0
   91.6238  103.2722  -43.3337 H   0  0  0  0  0  0  0  0  0  0  0  0
   92.6489  102.7179  -44.7006 H   0  0  0  0  0  0  0  0  0  0  0  0
   91.9755  104.3832  -44.7006 H   0  0  0  0  0  0  0  0  0  0  0  0
   93.0182  100.0912  -46.4768 H   0  0  0  0  0  0  0  0  0  0  0  0
   92.8100  100.3671  -44.7062 H   0  0  0  0  0  0  0  0  0  0  0  0
   92.2846   97.8296  -46.3085 H   0  0  0  0  0  0  0  0  0  0  0  0
   93.4100   98.0942  -44.9064 H   0  0  0  0  0  0  0  0  0  0  0  0
   91.0240   95.4690  -41.7480 H   0  0  0  0  0  0  0  0  0  0  0  0
  1  2  3  0
  2  3  1  0
  3  4  2  0
  4  5  1  0
  5  6  1  0
  6  7  3  0
  7  8  1  0
  8  9  1  0
  9 10  1  0
 10 11  2  0
 11 12  1  0
 12 13  2  0
 13 14  1  0
 14 15  2  0
  5 16  2  0
 16 17  1  0
 17 18  1  0
 18 19  1  0
 19 20  1  0
 20 21  1  0
 21 22  1  0
 22 23  1  0
 23 24  1  0
 24 25  1  0
 23 26  1  0
 26 27  1  0
 22 28  1  0
 28 29  1  0
 17 30  2  0
 30 31  1  0
 30  3  1  0
 15 10  1  0
 29 19  1  0
  1 32  1  0
  4 33  1  0
  8 34  1  0
  8 35  1  0
 11 36  1  0
 12 37  1  0
 13 38  1  0
 14 39  1  0
 15 40  1  0
 16 41  1  0
 18 42  1  0
 18 43  1  0
 19 44  1  6
 20 45  1  0
 20 46  1  0
 21 47  1  0
 21 48  1  0
 22 49  1  1
 23 50  1  0
 24 51  1  0
 24 52  1  0
 25 53  1  0
 25 54  1  0
 25 55  1  0
 26 56  1  0
 26 57  1  0
 27 58  1  0
 27 59  1  0
 27 60  1  0
 28 61  1  0
 28 62  1  0
 29 63  1  0
 29 64  1  0
 31 65  1  0
M  CHG  2  19   1  23   1
M  END
>  <meeko>  (2) 
{"is_sidechain": [false], "free_energy": -6.936, "intermolecular_energy": -10.294, "internal_energy": -1.173}

$$$$
5a7b_ligand
     RDKit          3D

 65 67  0  0  0  0  0  0  0  0999 V2000
   91.8930   93.7870  -40.9910 C   0  0  0  0  0  0  0  0  0  0  0  0
   91.7170   94.0150  -42.1570 C   0  0  0  0  0  0  0  0  0  0  0  0
   91.5060   94.2720  -43.5500 C   0  0  0  0  0  0  0  0  0  0  0  0
   91.6120   93.2100  -44.4520 C   0  0  0  0  0  0  0  0  0  0  0  0
   91.4270   93.4310  -45.8180 C   0  0  0  0  0  0  0  0  0  0  0  0
   91.5470   92.3530  -46.7470 C   0  0  0  0  0  0  0  0  0  0  0  0
   91.6530   91.4740  -47.5590 C   0  0  0  0  0  0  0  0  0  0  0  0
   91.7630   90.4190  -48.5760 C   0  0  0  0  0  0  0  0  0  0  0  0
   91.1610   90.8950  -49.7780 O   0  0  0  0  0  0  0  0  0  0  0  0
   89.8730   90.5010  -50.0240 C   0  0  0  0  0  0  0  0  0  0  0  0
   89.0870   91.4510  -50.6830 C   0  0  0  0  0  0  0  0  0  0  0  0
   87.7540   91.1800  -50.9970 C   0  0  0  0  0  0  0  0  0  0  0  0
   87.1980   89.9510  -50.6530 C   0  0  0  0  0  0  0  0  0  0  0  0
   87.9740   88.9980  -49.9970 C   0  0  0  0  0  0  0  0  0  0  0  0
   89.3100   89.2700  -49.6820 C   0  0  0  0  0  0  0  0  0  0  0  0
   91.1300   94.7130  -46.2880 C   0  0  0  0  0  0  0  0  0  0  0  0
   91.0200   95.7950  -45.3990 C   0  0  0  0  0  0  0  0  0  0  0  0
   90.7180   97.1680  -45.9260 C   0  0  0  0  0  0  0  0  0  0  0  0
   89.3340   97.2920  -46.5710 N   0  0  2  0  0  0  0  0  0  0  0  0
   89.0810   98.6040  -47.2670 C   0  0  0  0  0  0  0  0  0  0  0  0
   88.7510   99.7130  -46.2740 C   0  0  0  0  0  0  0  0  0  0  0  0
   87.8050   99.2460  -45.1590 C   0  0  1  0  0  0  0  0  0  0  0  0
   86.7900  100.3430  -44.7810 N   0  0  0  0  0  0  0  0  0  0  0  0
   86.7930  100.6120  -43.2620 C   0  0  0  0  0  0  0  0  0  0  0  0
   88.0740  100.1010  -42.6240 C   0  0  0  0  0  0  0  0  0  0  0  0
   85.3480  100.1840  -45.2750 C   0  0  0  0  0  0  0  0  0  0  0  0
   85.1280  100.8380  -46.6230 C   0  0  0  0  0  0  0  0  0  0  0  0
   87.1540   97.8970  -45.4490 C   0  0  0  0  0  0  0  0  0  0  0  0
   88.2210   96.8220  -45.6640 C   0  0  0  0  0  0  0  0  0  0  0  0
   91.2140   95.5590  -44.0300 C   0  0  0  0  0  0  0  0  0  0  0  0
   91.1240   96.6420  -43.1910 O   0  0  0  0  0  0  0  0  0  0  0  0
   92.0542   93.5782  -39.9231 H   0  0  0  0  0  0  0  0  0  0  0  0
   91.8415   92.1986  -44.0853 H   0  0  0  0  0  0  0  0  0  0  0  0
   92.8225   90.1854  -48.7572 H   0  0  0  0  0  0  0  0  0  0  0  0
   91.2556   89.5055  -48.2326 H   0  0  0  0  0  0  0  0  0  0  0  0
   89.5237   92.4227  -50.9571 H   0  0  0  0  0  0  0  0  0  0  0  0
   87.1447   91.9355  -51.5148 H   0  0  0  0  0  0  0  0  0  0  0  0
   86.1482   89.7328  -50.8986 H   0  0  0  0  0  0  0  0  0  0  0  0
   87.5344   88.0270  -49.7253 H   0  0  0  0  0  0  0  0  0  0  0  0
   89.9174   88.5130  -49.1643 H   0  0  0  0  0  0  0  0  0  0  0  0
   90.9808   94.8766  -47.3655 H   0  0  0  0  0  0  0  0  0  0  0  0
   90.7763   97.8808  -45.0903 H   0  0  0  0  0  0  0  0  0  0  0  0
   91.4579   97.3794  -46.7120 H   0  0  0  0  0  0  0  0  0  0  0  0
   89.3850   96.6000  -47.3350 H   0  0  0  0  0  0  0  0  0  0  0  0
   89.9811   98.8874  -47.8322 H   0  0  0  0  0  0  0  0  0  0  0  0
   88.2190   98.4762  -47.9382 H   0  0  0  0  0  0  0  0  0  0  0  0
   89.6870  100.0662  -45.8167 H   0  0  0  0  0  0  0  0  0  0  0  0
   88.2417  100.5152  -46.8282 H   0  0  0  0  0  0  0  0  0  0  0  0
   88.4269   99.0714  -44.2686 H   0  0  0  0  0  0  0  0  0  0  0  0
   87.1320  101.2250  -45.1920 H   0  0  0  0  0  0  0  0  0  0  0  0
   86.7109  101.6950  -43.0878 H   0  0  0  0  0  0  0  0  0  0  0  0
   85.9402  100.0846  -42.8097 H   0  0  0  0  0  0  0  0  0  0  0  0
   87.9787  100.1390  -41.5288 H   0  0  0  0  0  0  0  0  0  0  0  0
   88.2525   99.0628  -42.9407 H   0  0  0  0  0  0  0  0  0  0  0  0
   88.9181  100.7312  -42.9407 H   0  0  0  0  0  0  0  0  0  0  0  0
   85.1194   99.1114  -45.3605 H   0  0  0  0  0  0  0  0  0  0  0  0
   84.6865  100.6786  -44.5485 H   0  0  0  0  0  0  0  0  0  0  0  0
   84.7804  101.8713  -46.4768 H   0  0  0  0  0  0  0  0  0  0  0  0
   86.0732  100.8452  -47.1857 H   0  0  0  0  0  0  0  0  0  0  0  0
   84.3706  100.2725  -47.1857 H   0  0  0  0  0  0  0  0  0  0  0  0
   86.5187   97.6112  -44.5977 H   0  0  0  0  0  0  0  0  0  0  0  0
   86.5475   97.9839  -46.3626 H   0  0  0  0  0  0  0  0  0  0  0  0
   88.6506   96.5500  -44.6886 H   0  0  0  0  0  0  0  0  0  0  0  0
   87.7371   95.9590  -46.1446 H   0  0  0  0  0  0  0  0  0  0  0  0
   90.7450   97.3860  -43.7050 H   0  0  0  0  0  0  0  0  0  0  0  0
  1  2  3  0
  2  3  1  0
  3  4  2  0
  4  5  1  0
  5  6  1  0
  6  7  3  0
  7  8  1  0
  8  9  1  0
  9 10  1  0
 10 11  2  0
 11 12  1  0
 12 13  2  0
 13 14  1  0
 14 15  2  0
  5 16  2  0
 16 17  1  0
 17 18  1  0
 18 19  1  0
 19 20  1  0
 20 21  1  0
 21 22  1  0
 22 23  1  0
 23 24  1  0
 24 25  1  0
 23 26  1  0
 26 27  1  0
 22 28  1  0
 28 29  1  0
 17 30  2  0
 30 31  1  0
 30  3  1  0
 15 10  1  0
 29 19  1  0
  1 32  1  0
  4 33  1  0
  8 34  1  0
  8 35  1  0
 11 36  1  0
 12 37  1  0
 13 38  1  0
 14 39  1  0
 15 40  1  0
 16 41  1  0
 18 42  1  0
 18 43  1  0
 19 44  1  1
 20 45  1  0
 20 46  1  0
 21 47  1  0
 21 48  1  0
 22 49  1  6
 23 50  1  0
 24 51  1  0
 24 52  1  0
 25 53  1  0
 25 54  1  0
 25 55  1  0
 26 56  1  0
 26 57  1  0
 27 58  1  0
 27 59  1  0
 27 60  1  0
 28 61  1  0
 28 62  1  0
 29 63  1  0
 29 64  1  0
 31 65  1  0
M  CHG  2  19   1  23   1
M  END
>  <meeko>  (3) 
{"is_sidechain": [false], "free_energy": -6.874, "intermolecular_energy": -10.113, "internal_energy": -1.261}

$$$$
5a7b_ligand
     RDKit          3D

 65 67  0  0  0  0  0  0  0  0999 V2000
   92.8170   92.8430  -41.1320 C   0  0  0  0  0  0  0  0  0  0  0  0
   92.4090   93.2120  -42.2000 C   0  0  0  0  0  0  0  0  0  0  0  0
   91.9230   93.6380  -43.4780 C   0  0  0  0  0  0  0  0  0  0  0  0
   91.9330   92.7280  -44.5380 C   0  0  0  0  0  0  0  0  0  0  0  0
   91.4790   93.1160  -45.7990 C   0  0  0  0  0  0  0  0  0  0  0  0
   91.5000   92.1950  -46.8910 C   0  0  0  0  0  0  0  0  0  0  0  0
   91.5140   91.4520  -47.8340 C   0  0  0  0  0  0  0  0  0  0  0  0
   91.5040   90.5230  -48.9730 C   0  0  0  0  0  0  0  0  0  0  0  0
   90.4590   89.5740  -48.7650 O   0  0  0  0  0  0  0  0  0  0  0  0
   89.6920   89.2500  -49.8510 C   0  0  0  0  0  0  0  0  0  0  0  0
   89.3250   90.3370  -50.6510 C   0  0  0  0  0  0  0  0  0  0  0  0
   88.5430   90.1490  -51.7920 C   0  0  0  0  0  0  0  0  0  0  0  0
   88.1210   88.8690  -52.1400 C   0  0  0  0  0  0  0  0  0  0  0  0
   88.4830   87.7810  -51.3490 C   0  0  0  0  0  0  0  0  0  0  0  0
   89.2670   87.9690  -50.2050 C   0  0  0  0  0  0  0  0  0  0  0  0
   91.0080   94.4160  -46.0070 C   0  0  0  0  0  0  0  0  0  0  0  0
   90.9900   95.3480  -44.9560 C   0  0  0  0  0  0  0  0  0  0  0  0
   90.4960   96.7440  -45.2030 C   0  0  0  0  0  0  0  0  0  0  0  0
   91.3560   97.8290  -44.5480 N   0  0  2  0  0  0  0  0  0  0  0  0
   90.5790   98.9740  -43.9550 C   0  0  0  0  0  0  0  0  0  0  0  0
   90.1100   99.9510  -45.0280 C   0  0  0  0  0  0  0  0  0  0  0  0
   91.1850  100.2270  -46.0870 C   0  0  1  0  0  0  0  0  0  0  0  0
   91.1740  101.7020  -46.5350 N   0  0  0  0  0  0  0  0  0  0  0  0
   90.2870  102.5630  -45.6120 C   0  0  0  0  0  0  0  0  0  0  0  0
   91.1100  103.6330  -44.9140 C   0  0  0  0  0  0  0  0  0  0  0  0
   90.8400  102.0010  -48.0010 C   0  0  0  0  0  0  0  0  0  0  0  0
   92.0810  102.2480  -48.8330 C   0  0  0  0  0  0  0  0  0  0  0  0
   92.5700   99.7320  -45.6790 C   0  0  0  0  0  0  0  0  0  0  0  0
   92.5410   98.2290  -45.3970 C   0  0  0  0  0  0  0  0  0  0  0  0
   91.4530   94.9440  -43.6950 C   0  0  0  0  0  0  0  0  0  0  0  0
   91.4460   95.8860  -42.6960 O   0  0  0  0  0  0  0  0  0  0  0  0
   93.1906   92.5051  -40.1541 H   0  0  0  0  0  0  0  0  0  0  0  0
   92.2996   91.7033  -44.3781 H   0  0  0  0  0  0  0  0  0  0  0  0
   91.3225   91.0784  -49.9050 H   0  0  0  0  0  0  0  0  0  0  0  0
   92.4734   90.0093  -49.0529 H   0  0  0  0  0  0  0  0  0  0  0  0
   89.6558   91.3500  -50.3784 H   0  0  0  0  0  0  0  0  0  0  0  0
   88.2608   91.0107  -52.4148 H   0  0  0  0  0  0  0  0  0  0  0  0
   87.5032   88.7170  -53.0374 H   0  0  0  0  0  0  0  0  0  0  0  0
   88.1511   86.7692  -51.6249 H   0  0  0  0  0  0  0  0  0  0  0  0
   89.5485   87.1057  -49.5841 H   0  0  0  0  0  0  0  0  0  0  0  0
   90.6480   94.7119  -47.0034 H   0  0  0  0  0  0  0  0  0  0  0  0
   90.4829   96.9202  -46.2887 H   0  0  0  0  0  0  0  0  0  0  0  0
   89.4947   96.8138  -44.7530 H   0  0  0  0  0  0  0  0  0  0  0  0
   91.7500   97.3340  -43.7320 H   0  0  0  0  0  0  0  0  0  0  0  0
   89.7002   98.5739  -43.4281 H   0  0  0  0  0  0  0  0  0  0  0  0
   91.2400   99.5156  -43.2624 H   0  0  0  0  0  0  0  0  0  0  0  0
   89.2251   99.5284  -45.5264 H   0  0  0  0  0  0  0  0  0  0  0  0
   89.8798  100.9051  -44.5313 H   0  0  0  0  0  0  0  0  0  0  0  0
   90.9207   99.6275  -46.9706 H   0  0  0  0  0  0  0  0  0  0  0  0
   92.1260  102.0710  -46.3830 H   0  0  0  0  0  0  0  0  0  0  0  0
   89.5035  103.0466  -46.2139 H   0  0  0  0  0  0  0  0  0  0  0  0
   89.8372  101.9113  -44.8485 H   0  0  0  0  0  0  0  0  0  0  0  0
   91.0182  103.5136  -43.8244 H   0  0  0  0  0  0  0  0  0  0  0  0
   92.1657  103.5324  -45.2062 H   0  0  0  0  0  0  0  0  0  0  0  0
   90.7419  104.6275  -45.2062 H   0  0  0  0  0  0  0  0  0  0  0  0
   90.2964  101.1426  -48.4224 H   0  0  0  0  0  0  0  0  0  0  0  0
   90.2288  102.9151  -48.0278 H   0  0  0  0  0  0  0  0  0  0  0  0
   92.9403  102.4190  -48.1679 H   0  0  0  0  0  0  0  0  0  0  0  0
   92.2774  101.3713  -49.4677 H   0  0  0  0  0  0  0  0  0  0  0  0
   91.9267  103.1331  -49.4677 H   0  0  0  0  0  0  0  0  0  0  0  0
   93.2809   99.9336  -46.4939 H   0  0  0  0  0  0  0  0  0  0  0  0
   92.8808  100.2592  -44.7650 H   0  0  0  0  0  0  0  0  0  0  0  0
   92.4885   97.6901  -46.3545 H   0  0  0  0  0  0  0  0  0  0  0  0
   93.4554   97.9723  -44.8421 H   0  0  0  0  0  0  0  0  0  0  0  0
   92.3730   96.0220  -42.4080 H   0  0  0  0  0  0  0  0  0  0  0  0
  1  2  3  0
  2  3  1  0
  3  4  2  0
  4  5  1  0
  5  6  1  0
  6  7  3  0
  7  8  1  0
  8  9  1  0
  9 10  1  0
 10 11  2  0
 11 12  1  0
 12 13  2  0
 13 14  1  0
 14 15  2  0
  5 16  2  0
 16 17  1  0
 17 18  1  0
 18 19  1  0
 19 20  1  0
 20 21  1  0
 21 22  1  0
 22 23  1  0
 23 24  1  0
 24 25  1  0
 23 26  1  0
 26 27  1  0
 22 28  1  0
 28 29  1  0
 17 30  2  0
 30 31  1  0
 30  3  1  0
 15 10  1  0
 29 19  1  0
  1 32  1  0
  4 33  1  0
  8 34  1  0
  8 35  1  0
 11 36  1  0
 12 37  1  0
 13 38  1  0
 14 39  1  0
 15 40  1  0
 16 41  1  0
 18 42  1  0
 18 43  1  0
 19 44  1  6
 20 45  1  0
 20 46  1  0
 21 47  1  0
 21 48  1  0
 22 49  1  1
 23 50  1  0
 24 51  1  0
 24 52  1  0
 25 53  1  0
 25 54  1  0
 25 55  1  0
 26 56  1  0
 26 57  1  0
 27 58  1  0
 27 59  1  0
 27 60  1  0
 28 61  1  0
 28 62  1  0
 29 63  1  0
 29 64  1  0
 31 65  1  0
M  CHG  2  19   1  23   1
M  END
>  <meeko>  (4) 
{"is_sidechain": [false], "free_energy": -6.85, "intermolecular_energy": -10.265, "internal_energy": -1.072}

$$$$
5a7b_ligand
     RDKit          3D

 65 67  0  0  0  0  0  0  0  0999 V2000
   92.5160   93.0370  -41.1270 C   0  0  0  0  0  0  0  0  0  0  0  0
   92.2020   93.3620  -42.2400 C   0  0  0  0  0  0  0  0  0  0  0  0
   91.8250   93.7370  -43.5700 C   0  0  0  0  0  0  0  0  0  0  0  0
   91.8420   92.7620  -44.5720 C   0  0  0  0  0  0  0  0  0  0  0  0
   91.4940   93.0980  -45.8810 C   0  0  0  0  0  0  0  0  0  0  0  0
   91.5220   92.1110  -46.9120 C   0  0  0  0  0  0  0  0  0  0  0  0
   91.5460   91.3100  -47.8080 C   0  0  0  0  0  0  0  0  0  0  0  0
   91.5480   90.3500  -48.9200 C   0  0  0  0  0  0  0  0  0  0  0  0
   90.6090   90.7960  -49.8960 O   0  0  0  0  0  0  0  0  0  0  0  0
   89.7280   89.8670  -50.3790 C   0  0  0  0  0  0  0  0  0  0  0  0
   89.7340   88.6470  -49.6960 C   0  0  0  0  0  0  0  0  0  0  0  0
   88.8840   87.6100  -50.0820 C   0  0  0  0  0  0  0  0  0  0  0  0
   88.0200   87.7870  -51.1590 C   0  0  0  0  0  0  0  0  0  0  0  0
   88.0070   88.9990  -51.8450 C   0  0  0  0  0  0  0  0  0  0  0  0
   88.8590   90.0390  -51.4570 C   0  0  0  0  0  0  0  0  0  0  0  0
   91.1230   94.4090  -46.1950 C   0  0  0  0  0  0  0  0  0  0  0  0
   91.1010   95.4040  -45.2040 C   0  0  0  0  0  0  0  0  0  0  0  0
   90.7170   96.8100  -45.5650 C   0  0  0  0  0  0  0  0  0  0  0  0
   89.3980   97.2710  -44.9380 N   0  0  2  0  0  0  0  0  0  0  0  0
   88.2050   97.1890  -45.8530 C   0  0  0  0  0  0  0  0  0  0  0  0
   88.1740   98.3480  -46.8430 C   0  0  0  0  0  0  0  0  0  0  0  0
   88.5480   99.6880  -46.1960 C   0  0  1  0  0  0  0  0  0  0  0  0
   87.7010  100.8460  -46.7610 N   0  0  0  0  0  0  0  0  0  0  0  0
   86.3010  100.3620  -47.1880 C   0  0  0  0  0  0  0  0  0  0  0  0
   85.2250  100.9620  -46.2980 C   0  0  0  0  0  0  0  0  0  0  0  0
   88.3140  101.7040  -47.8740 C   0  0  0  0  0  0  0  0  0  0  0  0
   89.8200  101.5570  -47.9470 C   0  0  0  0  0  0  0  0  0  0  0  0
   88.5580   99.6380  -44.6710 C   0  0  0  0  0  0  0  0  0  0  0  0
   89.5350   98.5690  -44.1770 C   0  0  0  0  0  0  0  0  0  0  0  0
   91.4570   95.0520  -43.8940 C   0  0  0  0  0  0  0  0  0  0  0  0
   91.4490   96.0540  -42.9540 O   0  0  0  0  0  0  0  0  0  0  0  0
   92.8035   92.7394  -40.1078 H   0  0  0  0  0  0  0  0  0  0  0  0
   92.1301   91.7288  -44.3282 H   0  0  0  0  0  0  0  0  0  0  0  0
   92.5523   90.2988  -49.3658 H   0  0  0  0  0  0  0  0  0  0  0  0
   91.2724   89.3486  -48.5577 H   0  0  0  0  0  0  0  0  0  0  0  0
   90.4162   88.5032  -48.8452 H   0  0  0  0  0  0  0  0  0  0  0  0
   88.8966   86.6549  -49.5365 H   0  0  0  0  0  0  0  0  0  0  0  0
   87.3492   86.9716  -51.4675 H   0  0  0  0  0  0  0  0  0  0  0  0
   87.3239   89.1393  -52.6957 H   0  0  0  0  0  0  0  0  0  0  0  0
   88.8436   90.9939  -52.0028 H   0  0  0  0  0  0  0  0  0  0  0  0
   90.8456   94.6637  -47.2285 H   0  0  0  0  0  0  0  0  0  0  0  0
   91.5165   97.4855  -45.2268 H   0  0  0  0  0  0  0  0  0  0  0  0
   90.5787   96.8342  -46.6560 H   0  0  0  0  0  0  0  0  0  0  0  0
   89.2280   96.5440  -44.2250 H   0  0  0  0  0  0  0  0  0  0  0  0
   88.2491   96.2430  -46.4126 H   0  0  0  0  0  0  0  0  0  0  0  0
   87.2954   97.2398  -45.2365 H   0  0  0  0  0  0  0  0  0  0  0  0
   88.8867   98.1375  -47.6540 H   0  0  0  0  0  0  0  0  0  0  0  0
   87.1443   98.4363  -47.2198 H   0  0  0  0  0  0  0  0  0  0  0  0
   89.5916   99.8938  -46.4764 H   0  0  0  0  0  0  0  0  0  0  0  0
   87.5150  101.4930  -45.9790 H   0  0  0  0  0  0  0  0  0  0  0  0
   86.1173  100.6650  -48.2294 H   0  0  0  0  0  0  0  0  0  0  0  0
   86.2641   99.2666  -47.0944 H   0  0  0  0  0  0  0  0  0  0  0  0
   85.4958  100.8110  -45.2426 H   0  0  0  0  0  0  0  0  0  0  0  0
   85.1376  102.0391  -46.5036 H   0  0  0  0  0  0  0  0  0  0  0  0
   84.2628  100.4702  -46.5036 H   0  0  0  0  0  0  0  0  0  0  0  0
   87.8811  101.3965  -48.8373 H   0  0  0  0  0  0  0  0  0  0  0  0
   88.0882  102.7573  -47.6512 H   0  0  0  0  0  0  0  0  0  0  0  0
   90.2342  101.5166  -46.9288 H   0  0  0  0  0  0  0  0  0  0  0  0
   90.0724  100.6299  -48.4826 H   0  0  0  0  0  0  0  0  0  0  0  0
   90.2469  102.4177  -48.4826 H   0  0  0  0  0  0  0  0  0  0  0  0
   88.8653  100.6186  -44.2785 H   0  0  0  0  0  0  0  0  0  0  0  0
   87.5473   99.3878  -44.3163 H   0  0  0  0  0  0  0  0  0  0  0  0
   90.5617   98.9443  -44.2998 H   0  0  0  0  0  0  0  0  0  0  0  0
   89.3051   98.3655  -43.1207 H   0  0  0  0  0  0  0  0  0  0  0  0
   91.4720   96.9100  -43.4320 H   0  0  0  0  0  0  0  0  0  0  0  0
  1  2  3  0
  2  3  1  0
  3  4  2  0
  4  5  1  0
  5  6  1  0
  6  7  3  0
  7  8  1  0
  8  9  1  0
  9 10  1  0
 10 11  2  0
 11 12  1  0
 12 13  2  0
 13 14  1  0
 14 15  2  0
  5 16  2  0
 16 17  1  0
 17 18  1  0
 18 19  1  0
 19 20  1  0
 20 21  1  0
 21 22  1  0
 22 23  1  0
 23 24  1  0
 24 25  1  0
 23 26  1  0
 26 27  1  0
 22 28  1  0
 28 29  1  0
 17 30  2  0
 30 31  1  0
 30  3  1  0
 15 10  1  0
 29 19  1  0
  1 32  1  0
  4 33  1  0
  8 34  1  0
  8 35  1  0
 11 36  1  0
 12 37  1  0
 13 38  1  0
 14 39  1  0
 15 40  1  0
 16 41  1  0
 18 42  1  0
 18 43  1  0
 19 44  1  6
 20 45  1  0
 20 46  1  0
 21 47  1  0
 21 48  1  0
 22 49  1  1
 23 50  1  0
 24 51  1  0
 24 52  1  0
 25 53  1  0
 25 54  1  0
 25 55  1  0
 26 56  1  0
 26 57  1  0
 27 58  1  0
 27 59  1  0
 27 60  1  0
 28 61  1  0
 28 62  1  0
 29 63  1  0
 29 64  1  0
 31 65  1  0
M  CHG  2  19   1  23   1
M  END
>  <meeko>  (5) 
{"is_sidechain": [false], "free_energy": -6.641, "intermolecular_energy": -9.763, "internal_energy": -1.262}

$$$$
5a7b_ligand
     RDKit          3D

 65 67  0  0  0  0  0  0  0  0999 V2000
   91.9450   95.9820  -40.6680 C   0  0  0  0  0  0  0  0  0  0  0  0
   91.6410   95.9270  -41.8280 C   0  0  0  0  0  0  0  0  0  0  0  0
   91.2800   95.8490  -43.2120 C   0  0  0  0  0  0  0  0  0  0  0  0
   91.4900   94.6470  -43.8930 C   0  0  0  0  0  0  0  0  0  0  0  0
   91.1620   94.5420  -45.2460 C   0  0  0  0  0  0  0  0  0  0  0  0
   91.3860   93.3210  -45.9520 C   0  0  0  0  0  0  0  0  0  0  0  0
   91.5720   92.3140  -46.5800 C   0  0  0  0  0  0  0  0  0  0  0  0
   91.7910   91.1010  -47.3810 C   0  0  0  0  0  0  0  0  0  0  0  0
   91.6490   91.4450  -48.7580 O   0  0  0  0  0  0  0  0  0  0  0  0
   90.6270   90.8450  -49.4440 C   0  0  0  0  0  0  0  0  0  0  0  0
   89.9970   91.6630  -50.3850 C   0  0  0  0  0  0  0  0  0  0  0  0
   88.9390   91.1780  -51.1570 C   0  0  0  0  0  0  0  0  0  0  0  0
   88.5030   89.8660  -50.9880 C   0  0  0  0  0  0  0  0  0  0  0  0
   89.1270   89.0440  -50.0520 C   0  0  0  0  0  0  0  0  0  0  0  0
   90.1870   89.5300  -49.2800 C   0  0  0  0  0  0  0  0  0  0  0  0
   90.6190   95.6370  -45.9240 C   0  0  0  0  0  0  0  0  0  0  0  0
   90.4010   96.8550  -45.2590 C   0  0  0  0  0  0  0  0  0  0  0  0
   89.8340   98.0250  -46.0090 C   0  0  0  0  0  0  0  0  0  0  0  0
   88.5300   98.5670  -45.4160 N   0  0  2  0  0  0  0  0  0  0  0  0
   87.4670   97.5260  -45.1800 C   0  0  0  0  0  0  0  0  0  0  0  0
   86.7550   97.1460  -46.4740 C   0  0  0  0  0  0  0  0  0  0  0  0
   86.4490   98.3610  -47.3590 C   0  0  1  0  0  0  0  0  0  0  0  0
   85.0800   98.2250  -48.0560 N   0  0  0  0  0  0  0  0  0  0  0  0
   84.1770   97.2110  -47.3260 C   0  0  0  0  0  0  0  0  0  0  0  0
   83.0170   97.9140  -46.6390 C   0  0  0  0  0  0  0  0  0  0  0  0
   85.0700   97.9370  -49.5620 C   0  0  0  0  0  0  0  0  0  0  0  0
   85.6800   96.5910  -49.8930 C   0  0  0  0  0  0  0  0  0  0  0  0
   86.6260   99.6920  -46.6350 C   0  0  0  0  0  0  0  0  0  0  0  0
   88.0540   99.8270  -46.1010 C   0  0  0  0  0  0  0  0  0  0  0  0
   90.7400   96.9470  -43.9010 C   0  0  0  0  0  0  0  0  0  0  0  0
   90.5380   98.1590  -43.2870 O   0  0  0  0  0  0  0  0  0  0  0  0
   92.2236   96.0324  -39.6051 H   0  0  0  0  0  0  0  0  0  0  0  0
   91.9144   93.7821  -43.3622 H   0  0  0  0  0  0  0  0  0  0  0  0
   92.8029   90.7108  -47.1970 H   0  0  0  0  0  0  0  0  0  0  0  0
   91.0602   90.3264  -47.1054 H   0  0  0  0  0  0  0  0  0  0  0  0
   90.3379   92.7002  -50.5194 H   0  0  0  0  0  0  0  0  0  0  0  0
   88.4514   91.8303  -51.8964 H   0  0  0  0  0  0  0  0  0  0  0  0
   87.6685   89.4800  -51.5917 H   0  0  0  0  0  0  0  0  0  0  0  0
   88.7841   88.0072  -49.9195 H   0  0  0  0  0  0  0  0  0  0  0  0
   90.6748   88.8755  -48.5426 H   0  0  0  0  0  0  0  0  0  0  0  0
   90.3598   95.5441  -46.9890 H   0  0  0  0  0  0  0  0  0  0  0  0
   90.5794   98.8339  -46.0045 H   0  0  0  0  0  0  0  0  0  0  0  0
   89.6014   97.6720  -47.0245 H   0  0  0  0  0  0  0  0  0  0  0  0
   88.8230   98.8560  -44.4690 H   0  0  0  0  0  0  0  0  0  0  0  0
   87.9363   96.6271  -44.7537 H   0  0  0  0  0  0  0  0  0  0  0  0
   86.7219   97.9463  -44.4884 H   0  0  0  0  0  0  0  0  0  0  0  0
   87.3959   96.4522  -47.0378 H   0  0  0  0  0  0  0  0  0  0  0  0
   85.7952   96.6825  -46.2019 H   0  0  0  0  0  0  0  0  0  0  0  0
   87.2084   98.3713  -48.1548 H   0  0  0  0  0  0  0  0  0  0  0  0
   84.5920   99.1260  -47.9390 H   0  0  0  0  0  0  0  0  0  0  0  0
   83.7800   96.4909  -48.0567 H   0  0  0  0  0  0  0  0  0  0  0  0
   84.7759   96.6929  -46.5625 H   0  0  0  0  0  0  0  0  0  0  0  0
   83.1380   97.8407  -45.5481 H   0  0  0  0  0  0  0  0  0  0  0  0
   83.0024   98.9731  -46.9359 H   0  0  0  0  0  0  0  0  0  0  0  0
   82.0714   97.4369  -46.9359 H   0  0  0  0  0  0  0  0  0  0  0  0
   84.0293   97.9511  -49.9181 H   0  0  0  0  0  0  0  0  0  0  0  0
   85.6741   98.7115  -50.0571 H   0  0  0  0  0  0  0  0  0  0  0  0
   85.9213   96.0586  -48.9611 H   0  0  0  0  0  0  0  0  0  0  0  0
   84.9629   95.9976  -50.4792 H   0  0  0  0  0  0  0  0  0  0  0  0
   86.5990   96.7391  -50.4792 H   0  0  0  0  0  0  0  0  0  0  0  0
   86.4225  100.5150  -47.3359 H   0  0  0  0  0  0  0  0  0  0  0  0
   85.9247   99.7321  -45.7885 H   0  0  0  0  0  0  0  0  0  0  0  0
   88.7271  100.0485  -46.9423 H   0  0  0  0  0  0  0  0  0  0  0  0
   88.0608  100.6380  -45.3578 H   0  0  0  0  0  0  0  0  0  0  0  0
   91.0410   98.8340  -43.7900 H   0  0  0  0  0  0  0  0  0  0  0  0
  1  2  3  0
  2  3  1  0
  3  4  2  0
  4  5  1  0
  5  6  1  0
  6  7  3  0
  7  8  1  0
  8  9  1  0
  9 10  1  0
 10 11  2  0
 11 12  1  0
 12 13  2  0
 13 14  1  0
 14 15  2  0
  5 16  2  0
 16 17  1  0
 17 18  1  0
 18 19  1  0
 19 20  1  0
 20 21  1  0
 21 22  1  0
 22 23  1  0
 23 24  1  0
 24 25  1  0
 23 26  1  0
 26 27  1  0
 22 28  1  0
 28 29  1  0
 17 30  2  0
 30 31  1  0
 30  3  1  0
 15 10  1  0
 29 19  1  0
  1 32  1  0
  4 33  1  0
  8 34  1  0
  8 35  1  0
 11 36  1  0
 12 37  1  0
 13 38  1  0
 14 39  1  0
 15 40  1  0
 16 41  1  0
 18 42  1  0
 18 43  1  0
 19 44  1  6
 20 45  1  0
 20 46  1  0
 21 47  1  0
 21 48  1  0
 22 49  1  1
 23 50  1  0
 24 51  1  0
 24 52  1  0
 25 53  1  0
 25 54  1  0
 25 55  1  0
 26 56  1  0
 26 57  1  0
 27 58  1  0
 27 59  1  0
 27 60  1  0
 28 61  1  0
 28 62  1  0
 29 63  1  0
 29 64  1  0
 31 65  1  0
M  CHG  2  19   1  23   1
M  END
>  <meeko>  (6) 
{"is_sidechain": [false], "free_energy": -6.444, "intermolecular_energy": -9.299, "internal_energy": -1.432}

$$$$
5a7b_ligand
     RDKit          3D

 65 67  0  0  0  0  0  0  0  0999 V2000
   92.9720  101.8310  -40.8510 C   0  0  0  0  0  0  0  0  0  0  0  0
   92.1170  101.1890  -41.3960 C   0  0  0  0  0  0  0  0  0  0  0  0
   91.1050  100.4120  -42.0470 C   0  0  0  0  0  0  0  0  0  0  0  0
   91.4840   99.2510  -42.7270 C   0  0  0  0  0  0  0  0  0  0  0  0
   90.5250   98.4790  -43.3840 C   0  0  0  0  0  0  0  0  0  0  0  0
   90.9070   97.2990  -44.0920 C   0  0  0  0  0  0  0  0  0  0  0  0
   91.1930   96.3080  -44.7070 C   0  0  0  0  0  0  0  0  0  0  0  0
   91.5290   95.0740  -45.4320 C   0  0  0  0  0  0  0  0  0  0  0  0
   91.0710   93.9660  -44.6610 O   0  0  0  0  0  0  0  0  0  0  0  0
   91.7420   93.7010  -43.4970 C   0  0  0  0  0  0  0  0  0  0  0  0
   92.9410   93.0000  -43.6610 C   0  0  0  0  0  0  0  0  0  0  0  0
   93.7270   92.6650  -42.5570 C   0  0  0  0  0  0  0  0  0  0  0  0
   93.3170   93.0310  -41.2780 C   0  0  0  0  0  0  0  0  0  0  0  0
   92.1250   93.7300  -41.1060 C   0  0  0  0  0  0  0  0  0  0  0  0
   91.3370   94.0660  -42.2120 C   0  0  0  0  0  0  0  0  0  0  0  0
   89.1800   98.8620  -43.3620 C   0  0  0  0  0  0  0  0  0  0  0  0
   88.7770  100.0250  -42.6860 C   0  0  0  0  0  0  0  0  0  0  0  0
   87.3310  100.4280  -42.6890 C   0  0  0  0  0  0  0  0  0  0  0  0
   86.8780  101.0990  -43.9900 N   0  0  2  0  0  0  0  0  0  0  0  0
   85.5050  100.6970  -44.4580 C   0  0  0  0  0  0  0  0  0  0  0  0
   85.5190   99.3290  -45.1320 C   0  0  0  0  0  0  0  0  0  0  0  0
   86.7270   99.1390  -46.0600 C   0  0  1  0  0  0  0  0  0  0  0  0
   86.3480   98.3530  -47.3310 N   0  0  0  0  0  0  0  0  0  0  0  0
   84.8360   98.0520  -47.3760 C   0  0  0  0  0  0  0  0  0  0  0  0
   84.5830   96.5860  -47.6850 C   0  0  0  0  0  0  0  0  0  0  0  0
   87.1390   97.0780  -47.6450 C   0  0  0  0  0  0  0  0  0  0  0  0
   88.5390   97.1150  -47.0690 C   0  0  0  0  0  0  0  0  0  0  0  0
   87.4670  100.4400  -46.3550 C   0  0  0  0  0  0  0  0  0  0  0  0
   87.9490  101.0900  -45.0560 C   0  0  0  0  0  0  0  0  0  0  0  0
   89.7540  100.7930  -42.0340 C   0  0  0  0  0  0  0  0  0  0  0  0
   89.3300  101.9380  -41.4050 O   0  0  0  0  0  0  0  0  0  0  0  0
   93.7557  102.4195  -40.3515 H   0  0  0  0  0  0  0  0  0  0  0  0
   92.5405   98.9453  -42.7443 H   0  0  0  0  0  0  0  0  0  0  0  0
   91.0351   95.0733  -46.4149 H   0  0  0  0  0  0  0  0  0  0  0  0
   92.6163   95.0071  -45.5849 H   0  0  0  0  0  0  0  0  0  0  0  0
   93.2681   92.7096  -44.6703 H   0  0  0  0  0  0  0  0  0  0  0  0
   94.6681   92.1131  -42.6974 H   0  0  0  0  0  0  0  0  0  0  0  0
   93.9332   92.7687  -40.4053 H   0  0  0  0  0  0  0  0  0  0  0  0
   91.8013   94.0195  -40.0953 H   0  0  0  0  0  0  0  0  0  0  0  0
   90.3968   94.6187  -42.0688 H   0  0  0  0  0  0  0  0  0  0  0  0
   88.4301   98.2458  -43.8796 H   0  0  0  0  0  0  0  0  0  0  0  0
   86.7197   99.5270  -42.5325 H   0  0  0  0  0  0  0  0  0  0  0  0
   87.2034  101.1685  -41.8857 H   0  0  0  0  0  0  0  0  0  0  0  0
   86.7750  102.0850  -43.7030 H   0  0  0  0  0  0  0  0  0  0  0  0
   84.8289  100.6608  -43.5911 H   0  0  0  0  0  0  0  0  0  0  0  0
   85.1616  101.4392  -45.1937 H   0  0  0  0  0  0  0  0  0  0  0  0
   85.5480   98.5530  -44.3529 H   0  0  0  0  0  0  0  0  0  0  0  0
   84.6110   99.2525  -45.7482 H   0  0  0  0  0  0  0  0  0  0  0  0
   87.4530   98.5203  -45.5122 H   0  0  0  0  0  0  0  0  0  0  0  0
   86.5020   98.9840  -48.1330 H   0  0  0  0  0  0  0  0  0  0  0  0
   84.3912   98.2961  -46.4000 H   0  0  0  0  0  0  0  0  0  0  0  0
   84.3801   98.6618  -48.1699 H   0  0  0  0  0  0  0  0  0  0  0  0
   84.4861   96.0244  -46.7441 H   0  0  0  0  0  0  0  0  0  0  0  0
   83.6548   96.4889  -48.2673 H   0  0  0  0  0  0  0  0  0  0  0  0
   85.4249   96.1834  -48.2673 H   0  0  0  0  0  0  0  0  0  0  0  0
   86.6041   96.2159  -47.2200 H   0  0  0  0  0  0  0  0  0  0  0  0
   87.2266   96.9965  -48.7385 H   0  0  0  0  0  0  0  0  0  0  0  0
   88.4836   97.1135  -45.9704 H   0  0  0  0  0  0  0  0  0  0  0  0
   89.0989   96.2313  -47.4091 H   0  0  0  0  0  0  0  0  0  0  0  0
   89.0514   98.0270  -47.4091 H   0  0  0  0  0  0  0  0  0  0  0  0
   88.3349  100.2253  -46.9959 H   0  0  0  0  0  0  0  0  0  0  0  0
   86.7803  101.1317  -46.8650 H   0  0  0  0  0  0  0  0  0  0  0  0
   88.8177  100.5293  -44.6805 H   0  0  0  0  0  0  0  0  0  0  0  0
   88.2122  102.1346  -45.2788 H   0  0  0  0  0  0  0  0  0  0  0  0
   89.3200  102.6570  -42.0710 H   0  0  0  0  0  0  0  0  0  0  0  0
  1  2  3  0
  2  3  1  0
  3  4  2  0
  4  5  1  0
  5  6  1  0
  6  7  3  0
  7  8  1  0
  8  9  1  0
  9 10  1  0
 10 11  2  0
 11 12  1  0
 12 13  2  0
 13 14  1  0
 14 15  2  0
  5 16  2  0
 16 17  1  0
 17 18  1  0
 18 19  1  0
 19 20  1  0
 20 21  1  0
 21 22  1  0
 22 23  1  0
 23 24  1  0
 24 25  1  0
 23 26  1  0
 26 27  1  0
 22 28  1  0
 28 29  1  0
 17 30  2  0
 30 31  1  0
 30  3  1  0
 15 10  1  0
 29 19  1  0
  1 32  1  0
  4 33  1  0
  8 34  1  0
  8 35  1  0
 11 36  1  0
 12 37  1  0
 13 38  1  0
 14 39  1  0
 15 40  1  0
 16 41  1  0
 18 42  1  0
 18 43  1  0
 19 44  1  6
 20 45  1  0
 20 46  1  0
 21 47  1  0
 21 48  1  0
 22 49  1  6
 23 50  1  0
 24 51  1  0
 24 52  1  0
 25 53  1  0
 25 54  1  0
 25 55  1  0
 26 56  1  0
 26 57  1  0
 27 58  1  0
 27 59  1  0
 27 60  1  0
 28 61  1  0
 28 62  1  0
 29 63  1  0
 29 64  1  0
 31 65  1  0
M  CHG  2  19   1  23   1
M  END
>  <meeko>  (7) 
{"is_sidechain": [false], "free_energy": -6.419, "intermolecular_energy": -9.339, "internal_energy": -1.353}

$$$$
5a7b_ligand
     RDKit          3D

 65 67  0  0  0  0  0  0  0  0999 V2000
   86.2040   99.5690  -47.9290 C   0  0  0  0  0  0  0  0  0  0  0  0
   86.9900   99.2160  -47.0920 C   0  0  0  0  0  0  0  0  0  0  0  0
   87.9340   98.7870  -46.1040 C   0  0  0  0  0  0  0  0  0  0  0  0
   88.6930   97.6400  -46.3540 C   0  0  0  0  0  0  0  0  0  0  0  0
   89.6110   97.1880  -45.4060 C   0  0  0  0  0  0  0  0  0  0  0  0
   90.3790   96.0090  -45.6480 C   0  0  0  0  0  0  0  0  0  0  0  0
   91.0340   95.0150  -45.8120 C   0  0  0  0  0  0  0  0  0  0  0  0
   91.8200   93.7850  -45.9810 C   0  0  0  0  0  0  0  0  0  0  0  0
   91.4400   92.8680  -44.9570 O   0  0  0  0  0  0  0  0  0  0  0  0
   91.9430   93.0970  -43.7040 C   0  0  0  0  0  0  0  0  0  0  0  0
   91.0930   93.8120  -42.8560 C   0  0  0  0  0  0  0  0  0  0  0  0
   91.4800   94.1140  -41.5490 C   0  0  0  0  0  0  0  0  0  0  0  0
   92.7240   93.7020  -41.0820 C   0  0  0  0  0  0  0  0  0  0  0  0
   93.5770   92.9870  -41.9210 C   0  0  0  0  0  0  0  0  0  0  0  0
   93.1890   92.6850  -43.2300 C   0  0  0  0  0  0  0  0  0  0  0  0
   89.7790   97.8820  -44.2030 C   0  0  0  0  0  0  0  0  0  0  0  0
   89.0260   99.0360  -43.9310 C   0  0  0  0  0  0  0  0  0  0  0  0
   89.2080   99.7570  -42.6270 C   0  0  0  0  0  0  0  0  0  0  0  0
   89.7370  101.1860  -42.7790 N   0  0  2  0  0  0  0  0  0  0  0  0
   90.9620  101.3140  -43.6460 C   0  0  0  0  0  0  0  0  0  0  0  0
   92.2240  100.8950  -42.9000 C   0  0  0  0  0  0  0  0  0  0  0  0
   92.2550  101.4090  -41.4540 C   0  0  1  0  0  0  0  0  0  0  0  0
   93.6760  101.8360  -41.0340 N   0  0  0  0  0  0  0  0  0  0  0  0
   93.9400  101.5230  -39.5470 C   0  0  0  0  0  0  0  0  0  0  0  0
   94.0060  102.8020  -38.7280 C   0  0  0  0  0  0  0  0  0  0  0  0
   94.1130  103.2710  -41.3480 C   0  0  0  0  0  0  0  0  0  0  0  0
   95.1900  103.3230  -42.4120 C   0  0  0  0  0  0  0  0  0  0  0  0
   91.1990  102.4740  -41.1720 C   0  0  0  0  0  0  0  0  0  0  0  0
   89.7990  101.9300  -41.4660 C   0  0  0  0  0  0  0  0  0  0  0  0
   88.1040   99.4760  -44.8920 C   0  0  0  0  0  0  0  0  0  0  0  0
   87.3660  100.5930  -44.5850 O   0  0  0  0  0  0  0  0  0  0  0  0
   85.4842   99.8922  -48.6955 H   0  0  0  0  0  0  0  0  0  0  0  0
   88.5661   97.0930  -47.2999 H   0  0  0  0  0  0  0  0  0  0  0  0
   91.6159   93.3456  -46.9686 H   0  0  0  0  0  0  0  0  0  0  0  0
   92.8947   94.0087  -45.9105 H   0  0  0  0  0  0  0  0  0  0  0  0
   90.1090   94.1402  -43.2220 H   0  0  0  0  0  0  0  0  0  0  0  0
   90.8026   94.6766  -40.8898 H   0  0  0  0  0  0  0  0  0  0  0  0
   93.0335   93.9398  -40.0536 H   0  0  0  0  0  0  0  0  0  0  0  0
   94.5598   92.6588  -41.5517 H   0  0  0  0  0  0  0  0  0  0  0  0
   93.8674   92.1215  -43.8874 H   0  0  0  0  0  0  0  0  0  0  0  0
   90.5080   97.5204  -43.4629 H   0  0  0  0  0  0  0  0  0  0  0  0
   88.2349   99.8000  -42.1158 H   0  0  0  0  0  0  0  0  0  0  0  0
   89.9607   99.1963  -42.0534 H   0  0  0  0  0  0  0  0  0  0  0  0
   88.9870  101.6400  -43.3240 H   0  0  0  0  0  0  0  0  0  0  0  0
   90.8412  100.6726  -44.5315 H   0  0  0  0  0  0  0  0  0  0  0  0
   91.0688  102.3694  -43.9369 H   0  0  0  0  0  0  0  0  0  0  0  0
   92.2751   99.7963  -42.8842 H   0  0  0  0  0  0  0  0  0  0  0  0
   93.0834  101.3345  -43.4275 H   0  0  0  0  0  0  0  0  0  0  0  0
   91.9775  100.5606  -40.8111 H   0  0  0  0  0  0  0  0  0  0  0  0
   94.3360  101.2240  -41.5400 H   0  0  0  0  0  0  0  0  0  0  0  0
   93.1268  100.8902  -39.1621 H   0  0  0  0  0  0  0  0  0  0  0  0
   94.9047  101.0012  -39.4631 H   0  0  0  0  0  0  0  0  0  0  0  0
   93.9931  102.5525  -37.6567 H   0  0  0  0  0  0  0  0  0  0  0  0
   94.9333  103.3432  -38.9673 H   0  0  0  0  0  0  0  0  0  0  0  0
   93.1394  103.4358  -38.9673 H   0  0  0  0  0  0  0  0  0  0  0  0
   93.2390  103.8379  -41.7011 H   0  0  0  0  0  0  0  0  0  0  0  0
   94.5280  103.7061  -40.4269 H   0  0  0  0  0  0  0  0  0  0  0  0
   96.1783  103.3707  -41.9313 H   0  0  0  0  0  0  0  0  0  0  0  0
   95.1302  102.4209  -43.0386 H   0  0  0  0  0  0  0  0  0  0  0  0
   95.0436  104.2151  -43.0386 H   0  0  0  0  0  0  0  0  0  0  0  0
   91.2575  102.7710  -40.1145 H   0  0  0  0  0  0  0  0  0  0  0  0
   91.3871  103.3426  -41.8202 H   0  0  0  0  0  0  0  0  0  0  0  0
   89.5090  101.2439  -40.6566 H   0  0  0  0  0  0  0  0  0  0  0  0
   89.1122  102.7867  -41.5320 H   0  0  0  0  0  0  0  0  0  0  0  0
   87.9690  101.2400  -44.1620 H   0  0  0  0  0  0  0  0  0  0  0  0
  1  2  3  0
  2  3  1  0
  3  4  2  0
  4  5  1  0
  5  6  1  0
  6  7  3  0
  7  8  1  0
  8  9  1  0
  9 10  1  0
 10 11  2  0
 11 12  1  0
 12 13  2  0
 13 14  1  0
 14 15  2  0
  5 16  2  0
 16 17  1  0
 17 18  1  0
 18 19  1  0
 19 20  1  0
 20 21  1  0
 21 22  1  0
 22 23  1  0
 23 24  1  0
 24 25  1  0
 23 26  1  0
 26 27  1  0
 22 28  1  0
 28 29  1  0
 17 30  2  0
 30 31  1  0
 30  3  1  0
 15 10  1  0
 29 19  1  0
  1 32  1  0
  4 33  1  0
  8 34  1  0
  8 35  1  0
 11 36  1  0
 12 37  1  0
 13 38  1  0
 14 39  1  0
 15 40  1  0
 16 41  1  0
 18 42  1  0
 18 43  1  0
 19 44  1  1
 20 45  1  0
 20 46  1  0
 21 47  1  0
 21 48  1  0
 22 49  1  6
 23 50  1  0
 24 51  1  0
 24 52  1  0
 25 53  1  0
 25 54  1  0
 25 55  1  0
 26 56  1  0
 26 57  1  0
 27 58  1  0
 27 59  1  0
 27 60  1  0
 28 61  1  0
 28 62  1  0
 29 63  1  0
 29 64  1  0
 31 65  1  0
M  CHG  2  19   1  23   1
M  END
>  <meeko>  (8) 
{"is_sidechain": [false], "free_energy": -6.319, "intermolecular_energy": -9.16, "internal_energy": -1.383}

$$$$
5a7b_ligand
     RDKit          3D

 65 67  0  0  0  0  0  0  0  0999 V2000
   92.1110  101.4180  -40.4300 C   0  0  0  0  0  0  0  0  0  0  0  0
   91.4040  100.8610  -41.2260 C   0  0  0  0  0  0  0  0  0  0  0  0
   90.5700  100.1850  -42.1740 C   0  0  0  0  0  0  0  0  0  0  0  0
   91.0580   99.0340  -42.7970 C   0  0  0  0  0  0  0  0  0  0  0  0
   90.2760   98.3600  -43.7350 C   0  0  0  0  0  0  0  0  0  0  0  0
   90.7740   97.1900  -44.3860 C   0  0  0  0  0  0  0  0  0  0  0  0
   91.1650   96.2110  -44.9620 C   0  0  0  0  0  0  0  0  0  0  0  0
   91.6290   94.9920  -45.6390 C   0  0  0  0  0  0  0  0  0  0  0  0
   91.1980   93.8670  -44.8760 O   0  0  0  0  0  0  0  0  0  0  0  0
   91.8910   93.5960  -43.7270 C   0  0  0  0  0  0  0  0  0  0  0  0
   91.2470   93.9890  -42.5510 C   0  0  0  0  0  0  0  0  0  0  0  0
   91.8420   93.7710  -41.3060 C   0  0  0  0  0  0  0  0  0  0  0  0
   93.0890   93.1580  -41.2320 C   0  0  0  0  0  0  0  0  0  0  0  0
   93.7370   92.7630  -42.4000 C   0  0  0  0  0  0  0  0  0  0  0  0
   93.1420   92.9810  -43.6470 C   0  0  0  0  0  0  0  0  0  0  0  0
   88.9990   98.8310  -44.0540 C   0  0  0  0  0  0  0  0  0  0  0  0
   88.4890   99.9880  -43.4410 C   0  0  0  0  0  0  0  0  0  0  0  0
   87.1220  100.4880  -43.8090 C   0  0  0  0  0  0  0  0  0  0  0  0
   85.9800   99.6310  -43.2560 N   0  0  2  0  0  0  0  0  0  0  0  0
   85.8810   98.2530  -43.8560 C   0  0  0  0  0  0  0  0  0  0  0  0
   85.2300   98.2850  -45.2350 C   0  0  0  0  0  0  0  0  0  0  0  0
   84.0240   99.2320  -45.2960 C   0  0  1  0  0  0  0  0  0  0  0  0
   82.8950   98.6570  -46.1750 N   0  0  0  0  0  0  0  0  0  0  0  0
   83.1610   97.1810  -46.5360 C   0  0  0  0  0  0  0  0  0  0  0  0
   83.2070   96.9910  -48.0430 C   0  0  0  0  0  0  0  0  0  0  0  0
   82.5020   99.4350  -47.4350 C   0  0  0  0  0  0  0  0  0  0  0  0
   83.3320  100.6900  -47.6160 C   0  0  0  0  0  0  0  0  0  0  0  0
   83.5440   99.6850  -43.9210 C   0  0  0  0  0  0  0  0  0  0  0  0
   84.6740  100.3850  -43.1630 C   0  0  0  0  0  0  0  0  0  0  0  0
   89.2890  100.6560  -42.5030 C   0  0  0  0  0  0  0  0  0  0  0  0
   88.7700  101.7970  -41.9400 O   0  0  0  0  0  0  0  0  0  0  0  0
   92.7582  101.9279  -39.7013 H   0  0  0  0  0  0  0  0  0  0  0  0
   92.0612   98.6583  -42.5473 H   0  0  0  0  0  0  0  0  0  0  0  0
   91.2004   94.9419  -46.6508 H   0  0  0  0  0  0  0  0  0  0  0  0
   92.7259   94.9974  -45.7216 H   0  0  0  0  0  0  0  0  0  0  0  0
   90.2617   94.4749  -42.6060 H   0  0  0  0  0  0  0  0  0  0  0  0
   91.3259   94.0833  -40.3862 H   0  0  0  0  0  0  0  0  0  0  0  0
   93.5617   92.9858  -40.2538 H   0  0  0  0  0  0  0  0  0  0  0  0
   94.7221   92.2770  -42.3414 H   0  0  0  0  0  0  0  0  0  0  0  0
   93.6601   92.6677  -44.5654 H   0  0  0  0  0  0  0  0  0  0  0  0
   88.3877   98.2908  -44.7918 H   0  0  0  0  0  0  0  0  0  0  0  0
   87.0096  101.5098  -43.4174 H   0  0  0  0  0  0  0  0  0  0  0  0
   87.0508  100.4468  -44.9059 H   0  0  0  0  0  0  0  0  0  0  0  0
   86.2800   99.4670  -42.2820 H   0  0  0  0  0  0  0  0  0  0  0  0
   86.8925   97.8308  -43.9487 H   0  0  0  0  0  0  0  0  0  0  0  0
   85.2556   97.6348  -43.1952 H   0  0  0  0  0  0  0  0  0  0  0  0
   85.9775   98.6186  -45.9699 H   0  0  0  0  0  0  0  0  0  0  0  0
   84.8684   97.2700  -45.4565 H   0  0  0  0  0  0  0  0  0  0  0  0
   84.3706  100.1522  -45.7890 H   0  0  0  0  0  0  0  0  0  0  0  0
   82.0460   98.6220  -45.5900 H   0  0  0  0  0  0  0  0  0  0  0  0
   84.1248   96.8728  -46.1046 H   0  0  0  0  0  0  0  0  0  0  0  0
   82.3440   96.5670  -46.1292 H   0  0  0  0  0  0  0  0  0  0  0  0
   83.4601   95.9456  -48.2732 H   0  0  0  0  0  0  0  0  0  0  0  0
   82.2242   97.2336  -48.4733 H   0  0  0  0  0  0  0  0  0  0  0  0
   83.9700   97.6563  -48.4733 H   0  0  0  0  0  0  0  0  0  0  0  0
   82.6459   98.7858  -48.3113 H   0  0  0  0  0  0  0  0  0  0  0  0
   81.4500   99.7386  -47.3296 H   0  0  0  0  0  0  0  0  0  0  0  0
   83.6011  101.0970  -46.6301 H   0  0  0  0  0  0  0  0  0  0  0  0
   84.2478  100.4465  -48.1746 H   0  0  0  0  0  0  0  0  0  0  0  0
   82.7495  101.4374  -48.1746 H   0  0  0  0  0  0  0  0  0  0  0  0
   82.7030  100.3834  -44.0431 H   0  0  0  0  0  0  0  0  0  0  0  0
   83.2238   98.8027  -43.3473 H   0  0  0  0  0  0  0  0  0  0  0  0
   84.8149  101.3901  -43.5871 H   0  0  0  0  0  0  0  0  0  0  0  0
   84.3881  100.4331  -42.1019 H   0  0  0  0  0  0  0  0  0  0  0  0
   89.4100  102.1150  -41.2690 H   0  0  0  0  0  0  0  0  0  0  0  0
  1  2  3  0
  2  3  1  0
  3  4  2  0
  4  5  1  0
  5  6  1  0
  6  7  3  0
  7  8  1  0
  8  9  1  0
  9 10  1  0
 10 11  2  0
 11 12  1  0
 12 13  2  0
 13 14  1  0
 14 15  2  0
  5 16  2  0
 16 17  1  0
 17 18  1  0
 18 19  1  0
 19 20  1  0
 20 21  1  0
 21 22  1  0
 22 23  1  0
 23 24  1  0
 24 25  1  0
 23 26  1  0
 26 27  1  0
 22 28  1  0
 28 29  1  0
 17 30  2  0
 30 31  1  0
 30  3  1  0
 15 10  1  0
 29 19  1  0
  1 32  1  0
  4 33  1  0
  8 34  1  0
  8 35  1  0
 11 36  1  0
 12 37  1  0
 13 38  1  0
 14 39  1  0
 15 40  1  0
 16 41  1  0
 18 42  1  0
 18 43  1  0
 19 44  1  6
 20 45  1  0
 20 46  1  0
 21 47  1  0
 21 48  1  0
 22 49  1  1
 23 50  1  0
 24 51  1  0
 24 52  1  0
 25 53  1  0
 25 54  1  0
 25 55  1  0
 26 56  1  0
 26 57  1  0
 27 58  1  0
 27 59  1  0
 27 60  1  0
 28 61  1  0
 28 62  1  0
 29 63  1  0
 29 64  1  0
 31 65  1  0
M  CHG  2  19   1  23   1
M  END
>  <meeko>  (9) 
{"is_sidechain": [false], "free_energy": -6.246, "intermolecular_energy": -9.514, "internal_energy": -0.919}

$$$$
