2vvn_ligand
     RDKit          3D

 32 33  0  0  0  0  0  0  0  0999 V2000
    7.6930   -9.4010    8.0620 C   0  0  0  0  0  0  0  0  0  0  0  0
    6.8970  -10.0520    6.9450 C   0  0  0  0  0  0  0  0  0  0  0  0
    7.7190  -10.1750    5.7610 N   0  0  0  0  0  0  0  0  0  0  0  0
    7.2000  -10.5820    4.5740 C   0  0  0  0  0  0  0  0  0  0  0  0
    5.9540  -10.6380    4.2520 N   0  0  0  0  0  0  0  0  0  0  0  0
    5.8200  -11.0830    2.8360 C   0  0  2  0  0  0  0  0  0  0  0  0
    4.5380  -11.9160    2.6850 C   0  0  1  0  0  0  0  0  0  0  0  0
    3.4570  -11.0820    2.2380 O   0  0  0  0  0  0  0  0  0  0  0  0
    4.7390  -13.0340    1.6620 C   0  0  2  0  0  0  0  0  0  0  0  0
    3.5160  -13.7630    1.5020 O   0  0  0  0  0  0  0  0  0  0  0  0
    5.8870  -13.9520    2.1190 C   0  0  1  0  0  0  0  0  0  0  0  0
    6.4250  -14.7930    0.9540 C   0  0  0  0  0  0  0  0  0  0  0  0
    5.7660  -14.4480   -0.2620 O   0  0  0  0  0  0  0  0  0  0  0  0
    6.9660  -13.2690    2.7620 O   0  0  0  0  0  0  0  0  0  0  0  0
    7.0670  -11.8850    2.4320 C   0  0  2  0  0  0  0  0  0  0  0  0
    8.3720  -11.1050    3.3940 S   0  0  0  0  0  0  0  0  0  0  0  0
    7.2946   -9.7268    9.0342 H   0  0  0  0  0  0  0  0  0  0  0  0
    8.7491   -9.6975    7.9806 H   0  0  0  0  0  0  0  0  0  0  0  0
    7.6120   -8.3070    7.9806 H   0  0  0  0  0  0  0  0  0  0  0  0
    6.5683  -11.0514    7.2661 H   0  0  0  0  0  0  0  0  0  0  0  0
    6.0207   -9.4284    6.7141 H   0  0  0  0  0  0  0  0  0  0  0  0
    8.6790  -10.4620    5.9110 H   0  0  0  0  0  0  0  0  0  0  0  0
    5.7440  -10.2132    2.1669 H   0  0  0  0  0  0  0  0  0  0  0  0
    4.3004  -12.3516    3.6667 H   0  0  0  0  0  0  0  0  0  0  0  0
    2.8770  -10.9860    3.0200 H   0  0  0  0  0  0  0  0  0  0  0  0
    5.0124  -12.6069    0.6859 H   0  0  0  0  0  0  0  0  0  0  0  0
    3.4330  -14.3200    2.3080 H   0  0  0  0  0  0  0  0  0  0  0  0
    5.4374  -14.6097    2.8774 H   0  0  0  0  0  0  0  0  0  0  0  0
    7.5041  -14.6100    0.8445 H   0  0  0  0  0  0  0  0  0  0  0  0
    6.2383  -15.8556    1.1687 H   0  0  0  0  0  0  0  0  0  0  0  0
    6.4640  -14.2060   -0.8990 H   0  0  0  0  0  0  0  0  0  0  0  0
    7.2328  -11.8693    1.3447 H   0  0  0  0  0  0  0  0  0  0  0  0
  1  2  1  0
  2  3  1  0
  3  4  1  0
  4  5  2  0
  5  6  1  0
  6  7  1  0
  7  8  1  0
  7  9  1  0
  9 10  1  0
  9 11  1  0
 11 12  1  0
 12 13  1  0
 11 14  1  0
 14 15  1  0
 15 16  1  0
 16  4  1  0
 15  6  1  0
  1 17  1  0
  1 18  1  0
  1 19  1  0
  2 20  1  0
  2 21  1  0
  3 22  1  0
  6 23  1  6
  7 24  1  1
  8 25  1  0
  9 26  1  6
 10 27  1  0
 11 28  1  1
 12 29  1  0
 12 30  1  0
 13 31  1  0
 15 32  1  6
M  END
>  <meeko>  (1) 
{"is_sidechain": [false], "free_energy": -7.47, "intermolecular_energy": -8.998, "internal_energy": -0.326}

$$$$
2vvn_ligand
     RDKit          3D

 32 33  0  0  0  0  0  0  0  0999 V2000
    6.1010  -15.3560   -1.4950 C   0  0  0  0  0  0  0  0  0  0  0  0
    6.1340  -15.7250   -0.0220 C   0  0  0  0  0  0  0  0  0  0  0  0
    5.0750  -15.0360    0.6820 N   0  0  0  0  0  0  0  0  0  0  0  0
    5.2540  -13.7910    1.1950 C   0  0  0  0  0  0  0  0  0  0  0  0
    6.2050  -12.9680    0.9130 N   0  0  0  0  0  0  0  0  0  0  0  0
    5.9960  -11.6890    1.6500 C   0  0  2  0  0  0  0  0  0  0  0  0
    7.3610  -11.0850    2.0140 C   0  0  1  0  0  0  0  0  0  0  0  0
    7.7580  -10.1280    1.0180 O   0  0  0  0  0  0  0  0  0  0  0  0
    7.2930  -10.3730    3.3650 C   0  0  2  0  0  0  0  0  0  0  0  0
    8.5630   -9.7760    3.6560 O   0  0  0  0  0  0  0  0  0  0  0  0
    6.8790  -11.3770    4.4560 C   0  0  1  0  0  0  0  0  0  0  0  0
    6.3630  -10.6560    5.7090 C   0  0  0  0  0  0  0  0  0  0  0  0
    7.4400  -10.0550    6.4230 O   0  0  0  0  0  0  0  0  0  0  0  0
    5.9220  -12.3490    4.0280 O   0  0  0  0  0  0  0  0  0  0  0  0
    5.1430  -11.9530    2.9010 C   0  0  2  0  0  0  0  0  0  0  0  0
    4.0710  -13.2980    2.3760 S   0  0  0  0  0  0  0  0  0  0  0  0
    6.0034  -14.2652   -1.5976 H   0  0  0  0  0  0  0  0  0  0  0  0
    7.0324  -15.6878   -1.9771 H   0  0  0  0  0  0  0  0  0  0  0  0
    5.2433  -15.8478   -1.9771 H   0  0  0  0  0  0  0  0  0  0  0  0
    5.9966  -16.8111    0.0851 H   0  0  0  0  0  0  0  0  0  0  0  0
    7.1041  -15.4291    0.4038 H   0  0  0  0  0  0  0  0  0  0  0  0
    4.4450  -15.6170    1.2230 H   0  0  0  0  0  0  0  0  0  0  0  0
    5.4584  -10.9665    1.0183 H   0  0  0  0  0  0  0  0  0  0  0  0
    8.0911  -11.9061    2.0653 H   0  0  0  0  0  0  0  0  0  0  0  0
    7.1680  -10.3030    0.2560 H   0  0  0  0  0  0  0  0  0  0  0  0
    6.5385   -9.5732    3.3331 H   0  0  0  0  0  0  0  0  0  0  0  0
    8.9920  -10.3710    4.3090 H   0  0  0  0  0  0  0  0  0  0  0  0
    7.7996  -11.9294    4.6957 H   0  0  0  0  0  0  0  0  0  0  0  0
    5.6488   -9.8753    5.4082 H   0  0  0  0  0  0  0  0  0  0  0  0
    5.8713  -11.3911    6.3631 H   0  0  0  0  0  0  0  0  0  0  0  0
    7.9440  -10.7830    6.8320 H   0  0  0  0  0  0  0  0  0  0  0  0
    4.6093  -11.0508    3.2345 H   0  0  0  0  0  0  0  0  0  0  0  0
  1  2  1  0
  2  3  1  0
  3  4  1  0
  4  5  2  0
  5  6  1  0
  6  7  1  0
  7  8  1  0
  7  9  1  0
  9 10  1  0
  9 11  1  0
 11 12  1  0
 12 13  1  0
 11 14  1  0
 14 15  1  0
 15 16  1  0
 16  4  1  0
 15  6  1  0
  1 17  1  0
  1 18  1  0
  1 19  1  0
  2 20  1  0
  2 21  1  0
  3 22  1  0
  6 23  1  6
  7 24  1  1
  8 25  1  0
  9 26  1  6
 10 27  1  0
 11 28  1  1
 12 29  1  0
 12 30  1  0
 13 31  1  0
 15 32  1  1
M  END
>  <meeko>  (2) 
{"is_sidechain": [false], "free_energy": -6.657, "intermolecular_energy": -8.113, "internal_energy": -0.233}

$$$$
2vvn_ligand
     RDKit          3D

 32 33  0  0  0  0  0  0  0  0999 V2000
    7.6070  -15.6890   -2.0870 C   0  0  0  0  0  0  0  0  0  0  0  0
    6.2670  -15.2890   -1.4940 C   0  0  0  0  0  0  0  0  0  0  0  0
    6.1860  -15.7310   -0.1190 N   0  0  0  0  0  0  0  0  0  0  0  0
    5.8480  -14.8790    0.8830 C   0  0  0  0  0  0  0  0  0  0  0  0
    5.3060  -13.7160    0.7610 N   0  0  0  0  0  0  0  0  0  0  0  0
    5.0470  -13.1380    2.1100 C   0  0  2  0  0  0  0  0  0  0  0  0
    5.2120  -11.6120    2.0480 C   0  0  1  0  0  0  0  0  0  0  0  0
    3.9350  -10.9870    1.8370 O   0  0  0  0  0  0  0  0  0  0  0  0
    5.7980  -11.0790    3.3550 C   0  0  2  0  0  0  0  0  0  0  0  0
    5.8940   -9.6500    3.2900 O   0  0  0  0  0  0  0  0  0  0  0  0
    7.1740  -11.7240    3.6040 C   0  0  1  0  0  0  0  0  0  0  0  0
    7.5950  -11.5880    5.0730 C   0  0  0  0  0  0  0  0  0  0  0  0
    7.7690  -10.2160    5.4210 O   0  0  0  0  0  0  0  0  0  0  0  0
    7.2620  -13.0930    3.2000 O   0  0  0  0  0  0  0  0  0  0  0  0
    6.0080  -13.7690    3.1300 C   0  0  2  0  0  0  0  0  0  0  0  0
    6.2300  -15.4360    2.4910 S   0  0  0  0  0  0  0  0  0  0  0  0
    8.3184  -15.9014   -1.2753 H   0  0  0  0  0  0  0  0  0  0  0  0
    7.4796  -16.5883   -2.7075 H   0  0  0  0  0  0  0  0  0  0  0  0
    7.9934  -14.8670   -2.7075 H   0  0  0  0  0  0  0  0  0  0  0  0
    6.1633  -14.1946   -1.5321 H   0  0  0  0  0  0  0  0  0  0  0  0
    5.4592  -15.7592   -2.0740 H   0  0  0  0  0  0  0  0  0  0  0  0
    6.8390  -16.4550    0.1590 H   0  0  0  0  0  0  0  0  0  0  0  0
    4.0181  -13.3593    2.4300 H   0  0  0  0  0  0  0  0  0  0  0  0
    5.8926  -11.3788    1.2159 H   0  0  0  0  0  0  0  0  0  0  0  0
    3.3030  -11.7310    1.7670 H   0  0  0  0  0  0  0  0  0  0  0  0
    5.1403  -11.3402    4.1971 H   0  0  0  0  0  0  0  0  0  0  0  0
    5.5580   -9.3230    4.1540 H   0  0  0  0  0  0  0  0  0  0  0  0
    7.8699  -11.1626    2.9633 H   0  0  0  0  0  0  0  0  0  0  0  0
    6.8167  -12.0276    5.7142 H   0  0  0  0  0  0  0  0  0  0  0  0
    8.5500  -12.1142    5.2181 H   0  0  0  0  0  0  0  0  0  0  0  0
    7.0530   -9.9950    6.0460 H   0  0  0  0  0  0  0  0  0  0  0  0
    5.6095  -13.7245    4.1543 H   0  0  0  0  0  0  0  0  0  0  0  0
  1  2  1  0
  2  3  1  0
  3  4  1  0
  4  5  2  0
  5  6  1  0
  6  7  1  0
  7  8  1  0
  7  9  1  0
  9 10  1  0
  9 11  1  0
 11 12  1  0
 12 13  1  0
 11 14  1  0
 14 15  1  0
 15 16  1  0
 16  4  1  0
 15  6  1  0
  1 17  1  0
  1 18  1  0
  1 19  1  0
  2 20  1  0
  2 21  1  0
  3 22  1  0
  6 23  1  1
  7 24  1  6
  8 25  1  0
  9 26  1  1
 10 27  1  0
 11 28  1  6
 12 29  1  0
 12 30  1  0
 13 31  1  0
 15 32  1  1
M  END
>  <meeko>  (3) 
{"is_sidechain": [false], "free_energy": -6.596, "intermolecular_energy": -7.967, "internal_energy": -0.305}

$$$$
2vvn_ligand
     RDKit          3D

 32 33  0  0  0  0  0  0  0  0999 V2000
    7.1410  -19.1890    3.3580 C   0  0  0  0  0  0  0  0  0  0  0  0
    5.8570  -18.4480    3.0250 C   0  0  0  0  0  0  0  0  0  0  0  0
    6.0400  -17.6630    1.8240 N   0  0  0  0  0  0  0  0  0  0  0  0
    6.2240  -16.3180    1.8740 C   0  0  0  0  0  0  0  0  0  0  0  0
    6.5350  -15.6180    2.9100 N   0  0  0  0  0  0  0  0  0  0  0  0
    6.6980  -14.1890    2.5190 C   0  0  2  0  0  0  0  0  0  0  0  0
    6.2480  -13.2910    3.6810 C   0  0  1  0  0  0  0  0  0  0  0  0
    7.3800  -12.9160    4.4830 O   0  0  0  0  0  0  0  0  0  0  0  0
    5.5890  -12.0160    3.1530 C   0  0  2  0  0  0  0  0  0  0  0  0
    5.2240  -11.1740    4.2550 O   0  0  0  0  0  0  0  0  0  0  0  0
    4.3640  -12.3850    2.2970 C   0  0  1  0  0  0  0  0  0  0  0  0
    3.9450  -11.2180    1.3930 C   0  0  0  0  0  0  0  0  0  0  0  0
    5.0640  -10.3900    1.0900 O   0  0  0  0  0  0  0  0  0  0  0  0
    4.5300  -13.5690    1.5130 O   0  0  0  0  0  0  0  0  0  0  0  0
    5.8880  -13.9110    1.2430 C   0  0  2  0  0  0  0  0  0  0  0  0
    5.9770  -15.4790    0.3660 S   0  0  0  0  0  0  0  0  0  0  0  0
    7.2540  -19.2542    4.4502 H   0  0  0  0  0  0  0  0  0  0  0  0
    7.1004  -20.2025    2.9324 H   0  0  0  0  0  0  0  0  0  0  0  0
    7.9982  -18.6467    2.9324 H   0  0  0  0  0  0  0  0  0  0  0  0
    5.0469  -19.1750    2.8659 H   0  0  0  0  0  0  0  0  0  0  0  0
    5.5975  -17.7794    3.8591 H   0  0  0  0  0  0  0  0  0  0  0  0
    5.5400  -17.9790    1.0010 H   0  0  0  0  0  0  0  0  0  0  0  0
    7.7543  -13.9694    2.3047 H   0  0  0  0  0  0  0  0  0  0  0  0
    5.5253  -13.8583    4.2858 H   0  0  0  0  0  0  0  0  0  0  0  0
    7.4690  -13.6370    5.1390 H   0  0  0  0  0  0  0  0  0  0  0  0
    6.2951  -11.4616    2.5173 H   0  0  0  0  0  0  0  0  0  0  0  0
    4.4270  -10.6820    3.9590 H   0  0  0  0  0  0  0  0  0  0  0  0
    3.5661  -12.5999    3.0231 H   0  0  0  0  0  0  0  0  0  0  0  0
    3.5275  -11.6178    0.4571 H   0  0  0  0  0  0  0  0  0  0  0  0
    3.1908  -10.6151    1.9199 H   0  0  0  0  0  0  0  0  0  0  0  0
    5.7580  -10.9780    0.7370 H   0  0  0  0  0  0  0  0  0  0  0  0
    6.2847  -13.0526    0.6810 H   0  0  0  0  0  0  0  0  0  0  0  0
  1  2  1  0
  2  3  1  0
  3  4  1  0
  4  5  2  0
  5  6  1  0
  6  7  1  0
  7  8  1  0
  7  9  1  0
  9 10  1  0
  9 11  1  0
 11 12  1  0
 12 13  1  0
 11 14  1  0
 14 15  1  0
 15 16  1  0
 16  4  1  0
 15  6  1  0
  1 17  1  0
  1 18  1  0
  1 19  1  0
  2 20  1  0
  2 21  1  0
  3 22  1  0
  6 23  1  6
  7 24  1  1
  8 25  1  0
  9 26  1  6
 10 27  1  0
 11 28  1  1
 12 29  1  0
 12 30  1  0
 13 31  1  0
 15 32  1  6
M  END
>  <meeko>  (4) 
{"is_sidechain": [false], "free_energy": -6.184, "intermolecular_energy": -7.502, "internal_energy": -0.273}

$$$$
2vvn_ligand
     RDKit          3D

 32 33  0  0  0  0  0  0  0  0999 V2000
    6.9810  -10.2680    6.2270 C   0  0  0  0  0  0  0  0  0  0  0  0
    7.1490  -10.2720    4.7180 C   0  0  0  0  0  0  0  0  0  0  0  0
    5.9140  -10.6820    4.0860 N   0  0  0  0  0  0  0  0  0  0  0  0
    5.7330  -11.9490    3.6330 C   0  0  0  0  0  0  0  0  0  0  0  0
    6.4440  -12.9840    3.9240 N   0  0  0  0  0  0  0  0  0  0  0  0
    5.8710  -14.1890    3.2610 C   0  0  2  0  0  0  0  0  0  0  0  0
    7.0090  -15.1500    2.8830 C   0  0  1  0  0  0  0  0  0  0  0  0
    7.1840  -16.1370    3.9130 O   0  0  0  0  0  0  0  0  0  0  0  0
    6.6930  -15.8720    1.5730 C   0  0  2  0  0  0  0  0  0  0  0  0
    7.7440  -16.7970    1.2700 O   0  0  0  0  0  0  0  0  0  0  0  0
    6.5090  -14.8390    0.4460 C   0  0  1  0  0  0  0  0  0  0  0  0
    5.7640  -15.4460   -0.7490 C   0  0  0  0  0  0  0  0  0  0  0  0
    6.2130  -14.8640   -1.9710 O   0  0  0  0  0  0  0  0  0  0  0  0
    5.8640  -13.6310    0.8560 O   0  0  0  0  0  0  0  0  0  0  0  0
    5.0620  -13.7590    2.0270 C   0  0  2  0  0  0  0  0  0  0  0  0
    4.4090  -12.1560    2.5190 S   0  0  0  0  0  0  0  0  0  0  0  0
    7.9709  -10.2916    6.7062 H   0  0  0  0  0  0  0  0  0  0  0  0
    6.4466   -9.3569    6.5340 H   0  0  0  0  0  0  0  0  0  0  0  0
    6.4038  -11.1527    6.5340 H   0  0  0  0  0  0  0  0  0  0  0  0
    7.4143   -9.2601    4.3779 H   0  0  0  0  0  0  0  0  0  0  0  0
    7.9473  -10.9776    4.4444 H   0  0  0  0  0  0  0  0  0  0  0  0
    5.4360   -9.9760    3.5380 H   0  0  0  0  0  0  0  0  0  0  0  0
    5.1909  -14.7151    3.9470 H   0  0  0  0  0  0  0  0  0  0  0  0
    7.9275  -14.5563    2.7653 H   0  0  0  0  0  0  0  0  0  0  0  0
    6.3500  -16.1110    4.4250 H   0  0  0  0  0  0  0  0  0  0  0  0
    5.7560  -16.4397    1.6718 H   0  0  0  0  0  0  0  0  0  0  0  0
    7.3010  -17.6620    1.1210 H   0  0  0  0  0  0  0  0  0  0  0  0
    7.5307  -14.5620    0.1468 H   0  0  0  0  0  0  0  0  0  0  0  0
    5.9479  -16.5302   -0.7764 H   0  0  0  0  0  0  0  0  0  0  0  0
    4.6887  -15.2442   -0.6351 H   0  0  0  0  0  0  0  0  0  0  0  0
    6.8580  -14.1740   -1.7300 H   0  0  0  0  0  0  0  0  0  0  0  0
    4.2945  -14.4996    1.7579 H   0  0  0  0  0  0  0  0  0  0  0  0
  1  2  1  0
  2  3  1  0
  3  4  1  0
  4  5  2  0
  5  6  1  0
  6  7  1  0
  7  8  1  0
  7  9  1  0
  9 10  1  0
  9 11  1  0
 11 12  1  0
 12 13  1  0
 11 14  1  0
 14 15  1  0
 15 16  1  0
 16  4  1  0
 15  6  1  0
  1 17  1  0
  1 18  1  0
  1 19  1  0
  2 20  1  0
  2 21  1  0
  3 22  1  0
  6 23  1  1
  7 24  1  6
  8 25  1  0
  9 26  1  1
 10 27  1  0
 11 28  1  6
 12 29  1  0
 12 30  1  0
 13 31  1  0
 15 32  1  6
M  END
>  <meeko>  (5) 
{"is_sidechain": [false], "free_energy": -6.157, "intermolecular_energy": -7.642, "internal_energy": -0.102}

$$$$
2vvn_ligand
     RDKit          3D

 32 33  0  0  0  0  0  0  0  0999 V2000
    2.7520  -19.0310   -0.4220 C   0  0  0  0  0  0  0  0  0  0  0  0
    4.1360  -18.8960    0.1880 C   0  0  0  0  0  0  0  0  0  0  0  0
    4.9040  -17.9120   -0.5450 N   0  0  0  0  0  0  0  0  0  0  0  0
    5.5610  -16.9070    0.0890 C   0  0  0  0  0  0  0  0  0  0  0  0
    5.8360  -16.8330    1.3460 N   0  0  0  0  0  0  0  0  0  0  0  0
    6.6200  -15.5950    1.6160 C   0  0  2  0  0  0  0  0  0  0  0  0
    6.2590  -15.0610    3.0110 C   0  0  1  0  0  0  0  0  0  0  0  0
    7.2010  -15.5420    3.9830 O   0  0  0  0  0  0  0  0  0  0  0  0
    6.2880  -13.5320    3.0270 C   0  0  2  0  0  0  0  0  0  0  0  0
    5.9980  -13.0610    4.3490 O   0  0  0  0  0  0  0  0  0  0  0  0
    5.2800  -12.9860    2.0010 C   0  0  1  0  0  0  0  0  0  0  0  0
    5.5790  -11.5220    1.6510 C   0  0  0  0  0  0  0  0  0  0  0  0
    5.2440  -10.6660    2.7400 O   0  0  0  0  0  0  0  0  0  0  0  0
    5.1830  -13.7600    0.8020 O   0  0  0  0  0  0  0  0  0  0  0  0
    6.3310  -14.5570    0.5210 C   0  0  2  0  0  0  0  0  0  0  0  0
    6.0450  -15.5790   -0.9310 S   0  0  0  0  0  0  0  0  0  0  0  0
    2.0032  -19.1040    0.3804 H   0  0  0  0  0  0  0  0  0  0  0  0
    2.5379  -18.1495   -1.0442 H   0  0  0  0  0  0  0  0  0  0  0  0
    2.7123  -19.9373   -1.0442 H   0  0  0  0  0  0  0  0  0  0  0  0
    4.0428  -18.5783    1.2370 H   0  0  0  0  0  0  0  0  0  0  0  0
    4.6501  -19.8672    0.1377 H   0  0  0  0  0  0  0  0  0  0  0  0
    4.5510  -17.6600   -1.4610 H   0  0  0  0  0  0  0  0  0  0  0  0
    7.6980  -15.8134    1.6003 H   0  0  0  0  0  0  0  0  0  0  0  0
    5.2466  -15.4143    3.2566 H   0  0  0  0  0  0  0  0  0  0  0  0
    7.6910  -16.2530    3.5230 H   0  0  0  0  0  0  0  0  0  0  0  0
    7.2887  -13.1710    2.7471 H   0  0  0  0  0  0  0  0  0  0  0  0
    5.0180  -13.0680    4.4230 H   0  0  0  0  0  0  0  0  0  0  0  0
    4.3024  -13.0584    2.5001 H   0  0  0  0  0  0  0  0  0  0  0  0
    6.6503  -11.4162    1.4247 H   0  0  0  0  0  0  0  0  0  0  0  0
    4.9747  -11.2364    0.7773 H   0  0  0  0  0  0  0  0  0  0  0  0
    5.9440   -9.9880    2.7870 H   0  0  0  0  0  0  0  0  0  0  0  0
    7.1518  -13.8328    0.4125 H   0  0  0  0  0  0  0  0  0  0  0  0
  1  2  1  0
  2  3  1  0
  3  4  1  0
  4  5  2  0
  5  6  1  0
  6  7  1  0
  7  8  1  0
  7  9  1  0
  9 10  1  0
  9 11  1  0
 11 12  1  0
 12 13  1  0
 11 14  1  0
 14 15  1  0
 15 16  1  0
 16  4  1  0
 15  6  1  0
  1 17  1  0
  1 18  1  0
  1 19  1  0
  2 20  1  0
  2 21  1  0
  3 22  1  0
  6 23  1  1
  7 24  1  1
  8 25  1  0
  9 26  1  6
 10 27  1  0
 11 28  1  1
 12 29  1  0
 12 30  1  0
 13 31  1  0
 15 32  1  6
M  END
>  <meeko>  (6) 
{"is_sidechain": [false], "free_energy": -5.786, "intermolecular_energy": -6.993, "internal_energy": -0.303}

$$$$
2vvn_ligand
     RDKit          3D

 32 33  0  0  0  0  0  0  0  0999 V2000
    8.8640  -16.7460   -4.2980 C   0  0  0  0  0  0  0  0  0  0  0  0
    7.5170  -16.0860   -4.0580 C   0  0  0  0  0  0  0  0  0  0  0  0
    6.6920  -16.9380   -3.2290 N   0  0  0  0  0  0  0  0  0  0  0  0
    6.2470  -16.5320   -2.0120 C   0  0  0  0  0  0  0  0  0  0  0  0
    6.2350  -15.3270   -1.5560 N   0  0  0  0  0  0  0  0  0  0  0  0
    5.6110  -15.3090   -0.2020 C   0  0  2  0  0  0  0  0  0  0  0  0
    6.2800  -14.2200    0.6510 C   0  0  1  0  0  0  0  0  0  0  0  0
    5.5180  -13.0040    0.5840 O   0  0  0  0  0  0  0  0  0  0  0  0
    6.3640  -14.6570    2.1140 C   0  0  2  0  0  0  0  0  0  0  0  0
    6.9440  -13.6040    2.8950 O   0  0  0  0  0  0  0  0  0  0  0  0
    7.1850  -15.9540    2.2190 C   0  0  1  0  0  0  0  0  0  0  0  0
    6.9280  -16.6690    3.5520 C   0  0  0  0  0  0  0  0  0  0  0  0
    5.9340  -15.9820    4.3070 O   0  0  0  0  0  0  0  0  0  0  0  0
    6.9850  -16.8650    1.1340 O   0  0  0  0  0  0  0  0  0  0  0  0
    5.7500  -16.6970    0.4430 C   0  0  2  0  0  0  0  0  0  0  0  0
    5.6670  -17.8050   -0.9720 S   0  0  0  0  0  0  0  0  0  0  0  0
    9.3363  -16.9774   -3.3319 H   0  0  0  0  0  0  0  0  0  0  0  0
    8.7204  -17.6758   -4.8680 H   0  0  0  0  0  0  0  0  0  0  0  0
    9.5107  -16.0627   -4.8680 H   0  0  0  0  0  0  0  0  0  0  0  0
    7.6686  -15.1211   -3.5521 H   0  0  0  0  0  0  0  0  0  0  0  0
    7.0155  -15.9248   -5.0236 H   0  0  0  0  0  0  0  0  0  0  0  0
    6.8730  -17.9330   -3.2900 H   0  0  0  0  0  0  0  0  0  0  0  0
    4.5389  -15.0746   -0.2777 H   0  0  0  0  0  0  0  0  0  0  0  0
    7.2934  -14.0553    0.2561 H   0  0  0  0  0  0  0  0  0  0  0  0
    4.6240  -13.2530    0.8960 H   0  0  0  0  0  0  0  0  0  0  0  0
    5.3564  -14.8593    2.5061 H   0  0  0  0  0  0  0  0  0  0  0  0
    7.9170  -13.7150    2.8060 H   0  0  0  0  0  0  0  0  0  0  0  0
    8.2348  -15.6297    2.1663 H   0  0  0  0  0  0  0  0  0  0  0  0
    6.5848  -17.6947    3.3516 H   0  0  0  0  0  0  0  0  0  0  0  0
    7.8633  -16.6865    4.1307 H   0  0  0  0  0  0  0  0  0  0  0  0
    5.6540  -15.2180    3.7700 H   0  0  0  0  0  0  0  0  0  0  0  0
    4.9780  -16.8761    1.2058 H   0  0  0  0  0  0  0  0  0  0  0  0
  1  2  1  0
  2  3  1  0
  3  4  1  0
  4  5  2  0
  5  6  1  0
  6  7  1  0
  7  8  1  0
  7  9  1  0
  9 10  1  0
  9 11  1  0
 11 12  1  0
 12 13  1  0
 11 14  1  0
 14 15  1  0
 15 16  1  0
 16  4  1  0
 15  6  1  0
  1 17  1  0
  1 18  1  0
  1 19  1  0
  2 20  1  0
  2 21  1  0
  3 22  1  0
  6 23  1  6
  7 24  1  6
  8 25  1  0
  9 26  1  1
 10 27  1  0
 11 28  1  1
 12 29  1  0
 12 30  1  0
 13 31  1  0
 15 32  1  1
M  END
>  <meeko>  (7) 
{"is_sidechain": [false], "free_energy": -5.256, "intermolecular_energy": -6.315, "internal_energy": -0.342}

$$$$
2vvn_ligand
     RDKit          3D

 32 33  0  0  0  0  0  0  0  0999 V2000
    4.9770  -12.4140    2.4090 C   0  0  0  0  0  0  0  0  0  0  0  0
    4.3310  -13.5680    1.6630 C   0  0  0  0  0  0  0  0  0  0  0  0
    5.0930  -14.7790    1.8740 N   0  0  0  0  0  0  0  0  0  0  0  0
    5.7290  -15.4080    0.8520 C   0  0  0  0  0  0  0  0  0  0  0  0
    5.9870  -14.9230   -0.3140 N   0  0  0  0  0  0  0  0  0  0  0  0
    6.7500  -15.9210   -1.1150 C   0  0  2  0  0  0  0  0  0  0  0  0
    6.3630  -15.7850   -2.5960 C   0  0  1  0  0  0  0  0  0  0  0  0
    7.3000  -14.9320   -3.2740 O   0  0  0  0  0  0  0  0  0  0  0  0
    6.3710  -17.1510   -3.2830 C   0  0  2  0  0  0  0  0  0  0  0  0
    6.0580  -16.9900   -4.6730 O   0  0  0  0  0  0  0  0  0  0  0  0
    5.3670  -18.0860   -2.5850 C   0  0  1  0  0  0  0  0  0  0  0  0
    5.6500  -19.5560   -2.9190 C   0  0  0  0  0  0  0  0  0  0  0  0
    5.4280  -19.8080   -4.3050 O   0  0  0  0  0  0  0  0  0  0  0  0
    5.2970  -17.9170   -1.1660 O   0  0  0  0  0  0  0  0  0  0  0  0
    6.4600  -17.3340   -0.5840 C   0  0  2  0  0  0  0  0  0  0  0  0
    6.2070  -17.0530    1.1750 S   0  0  0  0  0  0  0  0  0  0  0  0
    4.8841  -12.5799    3.4924 H   0  0  0  0  0  0  0  0  0  0  0  0
    6.0411  -12.3517    2.1375 H   0  0  0  0  0  0  0  0  0  0  0  0
    4.4737  -11.4743    2.1375 H   0  0  0  0  0  0  0  0  0  0  0  0
    3.3055  -13.7132    2.0334 H   0  0  0  0  0  0  0  0  0  0  0  0
    4.3089  -13.3369    0.5878 H   0  0  0  0  0  0  0  0  0  0  0  0
    4.7480  -15.4060    2.5920 H   0  0  0  0  0  0  0  0  0  0  0  0
    7.8309  -15.7384   -1.0235 H   0  0  0  0  0  0  0  0  0  0  0  0
    5.3524  -15.3533   -2.6434 H   0  0  0  0  0  0  0  0  0  0  0  0
    7.3790  -14.1430   -2.7000 H   0  0  0  0  0  0  0  0  0  0  0  0
    7.3699  -17.6052   -3.2070 H   0  0  0  0  0  0  0  0  0  0  0  0
    5.0890  -16.8270   -4.7080 H   0  0  0  0  0  0  0  0  0  0  0  0
    4.3843  -17.7955   -2.9849 H   0  0  0  0  0  0  0  0  0  0  0  0
    6.6968  -19.7876   -2.6727 H   0  0  0  0  0  0  0  0  0  0  0  0
    4.9710  -20.1903   -2.3302 H   0  0  0  0  0  0  0  0  0  0  0  0
    4.4650  -19.7430   -4.4490 H   0  0  0  0  0  0  0  0  0  0  0  0
    7.2714  -18.0381   -0.8205 H   0  0  0  0  0  0  0  0  0  0  0  0
  1  2  1  0
  2  3  1  0
  3  4  1  0
  4  5  2  0
  5  6  1  0
  6  7  1  0
  7  8  1  0
  7  9  1  0
  9 10  1  0
  9 11  1  0
 11 12  1  0
 12 13  1  0
 11 14  1  0
 14 15  1  0
 15 16  1  0
 16  4  1  0
 15  6  1  0
  1 17  1  0
  1 18  1  0
  1 19  1  0
  2 20  1  0
  2 21  1  0
  3 22  1  0
  6 23  1  6
  7 24  1  1
  8 25  1  0
  9 26  1  6
 10 27  1  0
 11 28  1  6
 12 29  1  0
 12 30  1  0
 13 31  1  0
 15 32  1  1
M  END
>  <meeko>  (8) 
{"is_sidechain": [false], "free_energy": -5.178, "intermolecular_energy": -6.242, "internal_energy": -0.322}

$$$$
2vvn_ligand
     RDKit          3D

 32 33  0  0  0  0  0  0  0  0999 V2000
   10.6340  -17.1830    1.1530 C   0  0  0  0  0  0  0  0  0  0  0  0
    9.2910  -17.8380    0.8800 C   0  0  0  0  0  0  0  0  0  0  0  0
    8.4600  -17.7700    2.0620 N   0  0  0  0  0  0  0  0  0  0  0  0
    7.4470  -16.8720    2.1690 C   0  0  0  0  0  0  0  0  0  0  0  0
    6.9110  -16.1930    1.2150 N   0  0  0  0  0  0  0  0  0  0  0  0
    5.7920  -15.3680    1.7520 C   0  0  2  0  0  0  0  0  0  0  0  0
    5.7070  -14.0520    0.9630 C   0  0  1  0  0  0  0  0  0  0  0  0
    4.7440  -14.1740   -0.0970 O   0  0  0  0  0  0  0  0  0  0  0  0
    5.2750  -12.9040    1.8750 C   0  0  2  0  0  0  0  0  0  0  0  0
    5.1540  -11.7000    1.1060 O   0  0  0  0  0  0  0  0  0  0  0  0
    6.2940  -12.7410    3.0180 C   0  0  1  0  0  0  0  0  0  0  0  0
    5.7010  -11.9390    4.1830 C   0  0  0  0  0  0  0  0  0  0  0  0
    5.5040  -10.5780    3.8080 O   0  0  0  0  0  0  0  0  0  0  0  0
    6.8340  -13.9730    3.5030 O   0  0  0  0  0  0  0  0  0  0  0  0
    6.0170  -15.1140    3.2510 C   0  0  2  0  0  0  0  0  0  0  0  0
    6.8520  -16.6150    3.7880 S   0  0  0  0  0  0  0  0  0  0  0  0
   10.7907  -17.1066    2.2391 H   0  0  0  0  0  0  0  0  0  0  0  0
   11.4357  -17.7913    0.7088 H   0  0  0  0  0  0  0  0  0  0  0  0
   10.6483  -16.1768    0.7088 H   0  0  0  0  0  0  0  0  0  0  0  0
    8.7912  -17.3136    0.0522 H   0  0  0  0  0  0  0  0  0  0  0  0
    9.4508  -18.8924    0.6102 H   0  0  0  0  0  0  0  0  0  0  0  0
    8.9150  -17.9840    2.9420 H   0  0  0  0  0  0  0  0  0  0  0  0
    4.8359  -15.8995    1.6366 H   0  0  0  0  0  0  0  0  0  0  0  0
    6.7040  -13.8407    0.5490 H   0  0  0  0  0  0  0  0  0  0  0  0
    4.2300  -14.9770    0.1260 H   0  0  0  0  0  0  0  0  0  0  0  0
    4.2941  -13.1259    2.3207 H   0  0  0  0  0  0  0  0  0  0  0  0
    5.2160  -11.9800    0.1660 H   0  0  0  0  0  0  0  0  0  0  0  0
    7.1323  -12.1854    2.5724 H   0  0  0  0  0  0  0  0  0  0  0  0
    4.7340  -12.3785    4.4689 H   0  0  0  0  0  0  0  0  0  0  0  0
    6.4015  -11.9749    5.0303 H   0  0  0  0  0  0  0  0  0  0  0  0
    6.2460  -10.3410    3.2210 H   0  0  0  0  0  0  0  0  0  0  0  0
    5.0756  -14.9036    3.7797 H   0  0  0  0  0  0  0  0  0  0  0  0
  1  2  1  0
  2  3  1  0
  3  4  1  0
  4  5  2  0
  5  6  1  0
  6  7  1  0
  7  8  1  0
  7  9  1  0
  9 10  1  0
  9 11  1  0
 11 12  1  0
 12 13  1  0
 11 14  1  0
 14 15  1  0
 15 16  1  0
 16  4  1  0
 15  6  1  0
  1 17  1  0
  1 18  1  0
  1 19  1  0
  2 20  1  0
  2 21  1  0
  3 22  1  0
  6 23  1  1
  7 24  1  6
  8 25  1  0
  9 26  1  1
 10 27  1  0
 11 28  1  6
 12 29  1  0
 12 30  1  0
 13 31  1  0
 15 32  1  1
M  END
>  <meeko>  (9) 
{"is_sidechain": [false], "free_energy": -5.117, "intermolecular_energy": -6.161, "internal_energy": -0.33}

$$$$
