3ryj_ligand
     RDKit          3D

 27 27  0  0  0  0  0  0  0  0999 V2000
   15.9020   -0.7310   16.3700 N   0  0  0  0  0  0  0  0  0  0  0  0
   15.1510    0.5180   17.2120 S   0  0  0  0  0  0  0  0  0  0  0  0
   15.7200    0.5700   18.5370 O   0  0  0  0  0  0  0  0  0  0  0  0
   13.7340    0.3560   16.9770 O   0  0  0  0  0  0  0  0  0  0  0  0
   15.7090    1.9400   16.3080 C   0  0  0  0  0  0  0  0  0  0  0  0
   14.8030    2.9610   16.0070 C   0  0  0  0  0  0  0  0  0  0  0  0
   15.2340    4.0790   15.2880 C   0  0  0  0  0  0  0  0  0  0  0  0
   16.5670    4.1650   14.8600 C   0  0  0  0  0  0  0  0  0  0  0  0
   17.0740    5.3380   14.0990 C   0  0  0  0  0  0  0  0  0  0  0  0
   16.4560    5.7610   13.1310 O   0  0  0  0  0  0  0  0  0  0  0  0
   18.2390    5.9170   14.5600 N   0  0  0  0  0  0  0  0  0  0  0  0
   18.7000    7.1810   13.9820 C   0  0  0  0  0  0  0  0  0  0  0  0
   19.3520    8.1490   14.9730 C   0  0  0  0  0  0  0  0  0  0  0  0
   19.0560    7.8700   16.2570 F   0  0  0  0  0  0  0  0  0  0  0  0
   20.7020    8.1110   14.8440 F   0  0  0  0  0  0  0  0  0  0  0  0
   18.9620    9.4200   14.7230 F   0  0  0  0  0  0  0  0  0  0  0  0
   17.4680    3.1350   15.1710 C   0  0  0  0  0  0  0  0  0  0  0  0
   17.0390    2.0150   15.8870 C   0  0  0  0  0  0  0  0  0  0  0  0
   16.8860   -0.4920   16.2330 H   0  0  0  0  0  0  0  0  0  0  0  0
   15.7900   -1.6440   16.8090 H   0  0  0  0  0  0  0  0  0  0  0  0
   13.7557    2.8847   16.3346 H   0  0  0  0  0  0  0  0  0  0  0  0
   14.5285    4.8910   15.0578 H   0  0  0  0  0  0  0  0  0  0  0  0
   18.5520    5.6920   15.4960 H   0  0  0  0  0  0  0  0  0  0  0  0
   19.4360    6.9489   13.1981 H   0  0  0  0  0  0  0  0  0  0  0  0
   17.8016    7.6900   13.6027 H   0  0  0  0  0  0  0  0  0  0  0  0
   18.5172    3.2100   14.8493 H   0  0  0  0  0  0  0  0  0  0  0  0
   17.7413    1.2002   16.1171 H   0  0  0  0  0  0  0  0  0  0  0  0
  1  2  1  0
  2  3  2  0
  2  4  2  0
  2  5  1  0
  5  6  2  0
  6  7  1  0
  7  8  2  0
  8  9  1  0
  9 10  2  0
  9 11  1  0
 11 12  1  0
 12 13  1  0
 13 14  1  0
 13 15  1  0
 13 16  1  0
  8 17  1  0
 17 18  2  0
 18  5  1  0
  1 19  1  0
  1 20  1  0
  6 21  1  0
  7 22  1  0
 11 23  1  0
 12 24  1  0
 12 25  1  0
 17 26  1  0
 18 27  1  0
M  END
>  <meeko>  (1) 
{"is_sidechain": [false], "free_energy": -7.214, "intermolecular_energy": -9.112, "internal_energy": -0.277}

$$$$
3ryj_ligand
     RDKit          3D

 27 27  0  0  0  0  0  0  0  0999 V2000
   15.8460   -0.7340   16.4690 N   0  0  0  0  0  0  0  0  0  0  0  0
   15.0810    0.5460   17.2480 S   0  0  0  0  0  0  0  0  0  0  0  0
   15.6160    0.6390   18.5850 O   0  0  0  0  0  0  0  0  0  0  0  0
   13.6700    0.3840   16.9820 O   0  0  0  0  0  0  0  0  0  0  0  0
   15.6720    1.9340   16.3130 C   0  0  0  0  0  0  0  0  0  0  0  0
   17.0100    1.9700   15.9090 C   0  0  0  0  0  0  0  0  0  0  0  0
   17.4830    3.0650   15.1810 C   0  0  0  0  0  0  0  0  0  0  0  0
   16.6200    4.1260   14.8710 C   0  0  0  0  0  0  0  0  0  0  0  0
   17.0760    5.3080   14.0910 C   0  0  0  0  0  0  0  0  0  0  0  0
   16.3910    5.7460   13.1760 O   0  0  0  0  0  0  0  0  0  0  0  0
   18.2730    5.8770   14.4750 N   0  0  0  0  0  0  0  0  0  0  0  0
   18.6970    7.1470   13.8820 C   0  0  0  0  0  0  0  0  0  0  0  0
   19.3180    8.1470   14.8610 C   0  0  0  0  0  0  0  0  0  0  0  0
   18.9480    9.4200   14.6230 F   0  0  0  0  0  0  0  0  0  0  0  0
   18.9530    7.8430   16.1320 F   0  0  0  0  0  0  0  0  0  0  0  0
   20.6680    8.0890   14.8080 F   0  0  0  0  0  0  0  0  0  0  0  0
   15.2780    4.0770   15.2800 C   0  0  0  0  0  0  0  0  0  0  0  0
   14.8030    2.9860   16.0110 C   0  0  0  0  0  0  0  0  0  0  0  0
   15.1560   -1.2450   15.9160 H   0  0  0  0  0  0  0  0  0  0  0  0
   16.6480   -0.4510   15.9080 H   0  0  0  0  0  0  0  0  0  0  0  0
   17.6867    1.1408   16.1629 H   0  0  0  0  0  0  0  0  0  0  0  0
   18.5320    3.0947   14.8512 H   0  0  0  0  0  0  0  0  0  0  0  0
   18.6510    5.6390   15.3830 H   0  0  0  0  0  0  0  0  0  0  0  0
   19.4409    6.9271   13.1021 H   0  0  0  0  0  0  0  0  0  0  0  0
   17.7842    7.6239   13.4956 H   0  0  0  0  0  0  0  0  0  0  0  0
   14.5972    4.9020   15.0234 H   0  0  0  0  0  0  0  0  0  0  0  0
   13.7556    2.9550   16.3457 H   0  0  0  0  0  0  0  0  0  0  0  0
  1  2  1  0
  2  3  2  0
  2  4  2  0
  2  5  1  0
  5  6  2  0
  6  7  1  0
  7  8  2  0
  8  9  1  0
  9 10  2  0
  9 11  1  0
 11 12  1  0
 12 13  1  0
 13 14  1  0
 13 15  1  0
 13 16  1  0
  8 17  1  0
 17 18  2  0
 18  5  1  0
  1 19  1  0
  1 20  1  0
  6 21  1  0
  7 22  1  0
 11 23  1  0
 12 24  1  0
 12 25  1  0
 17 26  1  0
 18 27  1  0
M  END
>  <meeko>  (2) 
{"is_sidechain": [false], "free_energy": -7.2, "intermolecular_energy": -9.084, "internal_energy": -0.286}

$$$$
3ryj_ligand
     RDKit          3D

 27 27  0  0  0  0  0  0  0  0999 V2000
   13.7290    0.4080   17.1250 N   0  0  0  0  0  0  0  0  0  0  0  0
   15.2560    0.9000   17.6340 S   0  0  0  0  0  0  0  0  0  0  0  0
   16.1610   -0.2120   17.4690 O   0  0  0  0  0  0  0  0  0  0  0  0
   15.0560    1.5610   18.9030 O   0  0  0  0  0  0  0  0  0  0  0  0
   15.6560    2.1300   16.4190 C   0  0  0  0  0  0  0  0  0  0  0  0
   16.8970    2.0800   15.7750 C   0  0  0  0  0  0  0  0  0  0  0  0
   17.2210    3.0520   14.8240 C   0  0  0  0  0  0  0  0  0  0  0  0
   16.3100    4.0770   14.5310 C   0  0  0  0  0  0  0  0  0  0  0  0
   16.6070    5.1280   13.5210 C   0  0  0  0  0  0  0  0  0  0  0  0
   17.7610    5.4860   13.3240 O   0  0  0  0  0  0  0  0  0  0  0  0
   15.5310    5.6360   12.8230 N   0  0  0  0  0  0  0  0  0  0  0  0
   15.7600    6.5340   11.6890 C   0  0  0  0  0  0  0  0  0  0  0  0
   14.5060    7.2230   11.1420 C   0  0  0  0  0  0  0  0  0  0  0  0
   14.0970    6.7170    9.9630 F   0  0  0  0  0  0  0  0  0  0  0  0
   13.4820    7.0950   12.0230 F   0  0  0  0  0  0  0  0  0  0  0  0
   14.7250    8.5470   10.9740 F   0  0  0  0  0  0  0  0  0  0  0  0
   15.0680    4.1150   15.1820 C   0  0  0  0  0  0  0  0  0  0  0  0
   14.7420    3.1470   16.1350 C   0  0  0  0  0  0  0  0  0  0  0  0
   13.0570    1.1470   17.3360 H   0  0  0  0  0  0  0  0  0  0  0  0
   13.6950    0.1300   16.1450 H   0  0  0  0  0  0  0  0  0  0  0  0
   17.6134    1.2807   16.0155 H   0  0  0  0  0  0  0  0  0  0  0  0
   18.1904    3.0128   14.3056 H   0  0  0  0  0  0  0  0  0  0  0  0
   14.6580    5.1240   12.8420 H   0  0  0  0  0  0  0  0  0  0  0  0
   16.4653    7.3148   12.0097 H   0  0  0  0  0  0  0  0  0  0  0  0
   16.1444    5.9047   10.8728 H   0  0  0  0  0  0  0  0  0  0  0  0
   14.3476    4.9106   14.9410 H   0  0  0  0  0  0  0  0  0  0  0  0
   13.7744    3.1855   16.6568 H   0  0  0  0  0  0  0  0  0  0  0  0
  1  2  1  0
  2  3  2  0
  2  4  2  0
  2  5  1  0
  5  6  2  0
  6  7  1  0
  7  8  2  0
  8  9  1  0
  9 10  2  0
  9 11  1  0
 11 12  1  0
 12 13  1  0
 13 14  1  0
 13 15  1  0
 13 16  1  0
  8 17  1  0
 17 18  2  0
 18  5  1  0
  1 19  1  0
  1 20  1  0
  6 21  1  0
  7 22  1  0
 11 23  1  0
 12 24  1  0
 12 25  1  0
 17 26  1  0
 18 27  1  0
M  END
>  <meeko>  (3) 
{"is_sidechain": [false], "free_energy": -7.187, "intermolecular_energy": -9.079, "internal_energy": -0.276}

$$$$
3ryj_ligand
     RDKit          3D

 27 27  0  0  0  0  0  0  0  0999 V2000
   15.9870   -0.6410   16.6100 N   0  0  0  0  0  0  0  0  0  0  0  0
   15.1030    0.5790   17.3610 S   0  0  0  0  0  0  0  0  0  0  0  0
   15.6640    0.7940   18.6730 O   0  0  0  0  0  0  0  0  0  0  0  0
   13.7130    0.2450   17.1520 O   0  0  0  0  0  0  0  0  0  0  0  0
   15.5010    1.9810   16.3470 C   0  0  0  0  0  0  0  0  0  0  0  0
   14.6130    3.0590   16.2890 C   0  0  0  0  0  0  0  0  0  0  0  0
   14.9150    4.1610   15.4840 C   0  0  0  0  0  0  0  0  0  0  0  0
   16.0980    4.1740   14.7300 C   0  0  0  0  0  0  0  0  0  0  0  0
   16.4670    5.3280   13.8670 C   0  0  0  0  0  0  0  0  0  0  0  0
   17.4550    6.0030   14.1260 O   0  0  0  0  0  0  0  0  0  0  0  0
   15.6610    5.5620   12.7720 N   0  0  0  0  0  0  0  0  0  0  0  0
   16.0610    6.5590   11.7760 C   0  0  0  0  0  0  0  0  0  0  0  0
   14.9050    7.2880   11.0850 C   0  0  0  0  0  0  0  0  0  0  0  0
   14.6080    6.7790    9.8740 F   0  0  0  0  0  0  0  0  0  0  0  0
   13.7860    7.2150   11.8480 F   0  0  0  0  0  0  0  0  0  0  0  0
   15.1960    8.5990   10.9250 F   0  0  0  0  0  0  0  0  0  0  0  0
   16.9820    3.0870   14.7990 C   0  0  0  0  0  0  0  0  0  0  0  0
   16.6810    1.9830   15.5990 C   0  0  0  0  0  0  0  0  0  0  0  0
   16.5650   -0.2270   15.8760 H   0  0  0  0  0  0  0  0  0  0  0  0
   16.5380   -1.2030   17.2560 H   0  0  0  0  0  0  0  0  0  0  0  0
   13.6815    3.0401   16.8738 H   0  0  0  0  0  0  0  0  0  0  0  0
   14.2258    5.0173   15.4417 H   0  0  0  0  0  0  0  0  0  0  0  0
   15.0320    4.8290   12.4700 H   0  0  0  0  0  0  0  0  0  0  0  0
   16.6860    7.3115   12.2792 H   0  0  0  0  0  0  0  0  0  0  0  0
   16.5905    6.0067   10.9857 H   0  0  0  0  0  0  0  0  0  0  0  0
   17.9171    3.1045   14.2199 H   0  0  0  0  0  0  0  0  0  0  0  0
   17.3661    1.1234   15.6399 H   0  0  0  0  0  0  0  0  0  0  0  0
  1  2  1  0
  2  3  2  0
  2  4  2  0
  2  5  1  0
  5  6  2  0
  6  7  1  0
  7  8  2  0
  8  9  1  0
  9 10  2  0
  9 11  1  0
 11 12  1  0
 12 13  1  0
 13 14  1  0
 13 15  1  0
 13 16  1  0
  8 17  1  0
 17 18  2  0
 18  5  1  0
  1 19  1  0
  1 20  1  0
  6 21  1  0
  7 22  1  0
 11 23  1  0
 12 24  1  0
 12 25  1  0
 17 26  1  0
 18 27  1  0
M  END
>  <meeko>  (4) 
{"is_sidechain": [false], "free_energy": -6.926, "intermolecular_energy": -8.761, "internal_energy": -0.265}

$$$$
3ryj_ligand
     RDKit          3D

 27 27  0  0  0  0  0  0  0  0999 V2000
   19.0510    8.5580   13.2410 N   0  0  0  0  0  0  0  0  0  0  0  0
   20.0010    7.5280   14.1740 S   0  0  0  0  0  0  0  0  0  0  0  0
   20.2220    8.1610   15.4520 O   0  0  0  0  0  0  0  0  0  0  0  0
   21.0830    7.1030   13.3160 O   0  0  0  0  0  0  0  0  0  0  0  0
   18.9030    6.1550   14.4140 C   0  0  0  0  0  0  0  0  0  0  0  0
   17.6130    6.3850   14.9040 C   0  0  0  0  0  0  0  0  0  0  0  0
   16.7470    5.3060   15.1050 C   0  0  0  0  0  0  0  0  0  0  0  0
   17.1790    4.0010   14.8280 C   0  0  0  0  0  0  0  0  0  0  0  0
   16.2910    2.8230   15.0180 C   0  0  0  0  0  0  0  0  0  0  0  0
   15.2470    2.7270   14.3850 O   0  0  0  0  0  0  0  0  0  0  0  0
   16.7220    1.8610   15.9080 N   0  0  0  0  0  0  0  0  0  0  0  0
   16.0000    0.5910   16.0110 C   0  0  0  0  0  0  0  0  0  0  0  0
   15.0090    0.5000   17.1760 C   0  0  0  0  0  0  0  0  0  0  0  0
   15.2420    1.4110   18.1390 F   0  0  0  0  0  0  0  0  0  0  0  0
   13.7430    0.6890   16.7280 F   0  0  0  0  0  0  0  0  0  0  0  0
   15.0540   -0.7270   17.7440 F   0  0  0  0  0  0  0  0  0  0  0  0
   18.4750    3.7830   14.3350 C   0  0  0  0  0  0  0  0  0  0  0  0
   19.3430    4.8590   14.1360 C   0  0  0  0  0  0  0  0  0  0  0  0
   19.1700    8.3150   12.2560 H   0  0  0  0  0  0  0  0  0  0  0  0
   18.0700    8.5700   13.5150 H   0  0  0  0  0  0  0  0  0  0  0  0
   17.2818    7.4093   15.1299 H   0  0  0  0  0  0  0  0  0  0  0  0
   15.7278    5.4806   15.4801 H   0  0  0  0  0  0  0  0  0  0  0  0
   17.6930    1.8680   16.1930 H   0  0  0  0  0  0  0  0  0  0  0  0
   15.4413    0.4397   15.0756 H   0  0  0  0  0  0  0  0  0  0  0  0
   16.7619   -0.1807   16.1956 H   0  0  0  0  0  0  0  0  0  0  0  0
   18.8084    2.7604   14.1044 H   0  0  0  0  0  0  0  0  0  0  0  0
   20.3637    4.6872   13.7637 H   0  0  0  0  0  0  0  0  0  0  0  0
  1  2  1  0
  2  3  2  0
  2  4  2  0
  2  5  1  0
  5  6  2  0
  6  7  1  0
  7  8  2  0
  8  9  1  0
  9 10  2  0
  9 11  1  0
 11 12  1  0
 12 13  1  0
 13 14  1  0
 13 15  1  0
 13 16  1  0
  8 17  1  0
 17 18  2  0
 18  5  1  0
  1 19  1  0
  1 20  1  0
  6 21  1  0
  7 22  1  0
 11 23  1  0
 12 24  1  0
 12 25  1  0
 17 26  1  0
 18 27  1  0
M  END
>  <meeko>  (5) 
{"is_sidechain": [false], "free_energy": -6.598, "intermolecular_energy": -8.247, "internal_energy": -0.364}

$$$$
3ryj_ligand
     RDKit          3D

 27 27  0  0  0  0  0  0  0  0999 V2000
   15.8180   -0.5550   17.1260 N   0  0  0  0  0  0  0  0  0  0  0  0
   14.8220    0.7500   17.4970 S   0  0  0  0  0  0  0  0  0  0  0  0
   15.0940    1.1460   18.8580 O   0  0  0  0  0  0  0  0  0  0  0  0
   13.5010    0.3800   17.0410 O   0  0  0  0  0  0  0  0  0  0  0  0
   15.4590    2.0020   16.4120 C   0  0  0  0  0  0  0  0  0  0  0  0
   16.7750    1.9050   15.9510 C   0  0  0  0  0  0  0  0  0  0  0  0
   17.2860    2.8930   15.1050 C   0  0  0  0  0  0  0  0  0  0  0  0
   16.4820    3.9810   14.7340 C   0  0  0  0  0  0  0  0  0  0  0  0
   16.9790    5.0520   13.8290 C   0  0  0  0  0  0  0  0  0  0  0  0
   16.3340    5.3720   12.8390 O   0  0  0  0  0  0  0  0  0  0  0  0
   18.1650    5.6600   14.1840 N   0  0  0  0  0  0  0  0  0  0  0  0
   18.6230    6.8430   13.4510 C   0  0  0  0  0  0  0  0  0  0  0  0
   19.7540    6.5880   12.4500 C   0  0  0  0  0  0  0  0  0  0  0  0
   20.2140    7.7160   11.8750 F   0  0  0  0  0  0  0  0  0  0  0  0
   20.8000    5.9870   13.0710 F   0  0  0  0  0  0  0  0  0  0  0  0
   19.3410    5.7570   11.4660 F   0  0  0  0  0  0  0  0  0  0  0  0
   15.1620    4.0660   15.2010 C   0  0  0  0  0  0  0  0  0  0  0  0
   14.6500    3.0820   16.0500 C   0  0  0  0  0  0  0  0  0  0  0  0
   16.6920   -0.4620   17.6460 H   0  0  0  0  0  0  0  0  0  0  0  0
   15.3790   -1.4620   17.2800 H   0  0  0  0  0  0  0  0  0  0  0  0
   17.4052    1.0553   16.2526 H   0  0  0  0  0  0  0  0  0  0  0  0
   18.3175    2.8176   14.7304 H   0  0  0  0  0  0  0  0  0  0  0  0
   18.5060    5.5380   15.1300 H   0  0  0  0  0  0  0  0  0  0  0  0
   17.7655    7.2553   12.8989 H   0  0  0  0  0  0  0  0  0  0  0  0
   19.0302    7.5327   14.2050 H   0  0  0  0  0  0  0  0  0  0  0  0
   14.5272    4.9114   14.8972 H   0  0  0  0  0  0  0  0  0  0  0  0
   13.6203    3.1567   16.4297 H   0  0  0  0  0  0  0  0  0  0  0  0
  1  2  1  0
  2  3  2  0
  2  4  2  0
  2  5  1  0
  5  6  2  0
  6  7  1  0
  7  8  2  0
  8  9  1  0
  9 10  2  0
  9 11  1  0
 11 12  1  0
 12 13  1  0
 13 14  1  0
 13 15  1  0
 13 16  1  0
  8 17  1  0
 17 18  2  0
 18  5  1  0
  1 19  1  0
  1 20  1  0
  6 21  1  0
  7 22  1  0
 11 23  1  0
 12 24  1  0
 12 25  1  0
 17 26  1  0
 18 27  1  0
M  END
>  <meeko>  (6) 
{"is_sidechain": [false], "free_energy": -6.249, "intermolecular_energy": -7.815, "internal_energy": -0.355}

$$$$
3ryj_ligand
     RDKit          3D

 27 27  0  0  0  0  0  0  0  0999 V2000
   15.8020    5.5830    9.5870 N   0  0  0  0  0  0  0  0  0  0  0  0
   17.0450    6.1810   10.5520 S   0  0  0  0  0  0  0  0  0  0  0  0
   16.6470    7.4800   11.0380 O   0  0  0  0  0  0  0  0  0  0  0  0
   18.2630    5.9670    9.8060 O   0  0  0  0  0  0  0  0  0  0  0  0
   17.0150    5.0430   11.9140 C   0  0  0  0  0  0  0  0  0  0  0  0
   16.9380    5.5380   13.2200 C   0  0  0  0  0  0  0  0  0  0  0  0
   16.9250    4.6470   14.2970 C   0  0  0  0  0  0  0  0  0  0  0  0
   17.0010    3.2660   14.0650 C   0  0  0  0  0  0  0  0  0  0  0  0
   16.9810    2.2800   15.1780 C   0  0  0  0  0  0  0  0  0  0  0  0
   17.8630    2.2880   16.0270 O   0  0  0  0  0  0  0  0  0  0  0  0
   15.9190    1.3990   15.2040 N   0  0  0  0  0  0  0  0  0  0  0  0
   15.7290    0.5250   16.3630 C   0  0  0  0  0  0  0  0  0  0  0  0
   14.6130    0.9500   17.3220 C   0  0  0  0  0  0  0  0  0  0  0  0
   13.5780    0.0880   17.3420 F   0  0  0  0  0  0  0  0  0  0  0  0
   15.0940    1.0460   18.5860 F   0  0  0  0  0  0  0  0  0  0  0  0
   14.1330    2.1680   16.9820 F   0  0  0  0  0  0  0  0  0  0  0  0
   17.0750    2.7820   12.7500 C   0  0  0  0  0  0  0  0  0  0  0  0
   17.0920    3.6700   11.6710 C   0  0  0  0  0  0  0  0  0  0  0  0
   16.1740    4.8420    8.9910 H   0  0  0  0  0  0  0  0  0  0  0  0
   14.9870    5.2730   10.1150 H   0  0  0  0  0  0  0  0  0  0  0  0
   16.8880    6.6223   13.3985 H   0  0  0  0  0  0  0  0  0  0  0  0
   16.8552    5.0289   15.3262 H   0  0  0  0  0  0  0  0  0  0  0  0
   15.1040    1.6080   14.6410 H   0  0  0  0  0  0  0  0  0  0  0  0
   15.4948   -0.4844   15.9937 H   0  0  0  0  0  0  0  0  0  0  0  0
   16.6640    0.5746   16.9403 H   0  0  0  0  0  0  0  0  0  0  0  0
   17.1199    1.6982   12.5675 H   0  0  0  0  0  0  0  0  0  0  0  0
   17.1653    3.2913   10.6408 H   0  0  0  0  0  0  0  0  0  0  0  0
  1  2  1  0
  2  3  2  0
  2  4  2  0
  2  5  1  0
  5  6  2  0
  6  7  1  0
  7  8  2  0
  8  9  1  0
  9 10  2  0
  9 11  1  0
 11 12  1  0
 12 13  1  0
 13 14  1  0
 13 15  1  0
 13 16  1  0
  8 17  1  0
 17 18  2  0
 18  5  1  0
  1 19  1  0
  1 20  1  0
  6 21  1  0
  7 22  1  0
 11 23  1  0
 12 24  1  0
 12 25  1  0
 17 26  1  0
 18 27  1  0
M  END
>  <meeko>  (7) 
{"is_sidechain": [false], "free_energy": -5.962, "intermolecular_energy": -7.456, "internal_energy": -0.351}

$$$$
3ryj_ligand
     RDKit          3D

 27 27  0  0  0  0  0  0  0  0999 V2000
   21.1650    6.2250   12.5910 N   0  0  0  0  0  0  0  0  0  0  0  0
   19.9750    7.2370   13.2180 S   0  0  0  0  0  0  0  0  0  0  0  0
   19.4610    8.0450   12.1390 O   0  0  0  0  0  0  0  0  0  0  0  0
   20.5360    7.8080   14.4210 O   0  0  0  0  0  0  0  0  0  0  0  0
   18.7240    6.0670   13.6850 C   0  0  0  0  0  0  0  0  0  0  0  0
   18.6260    4.8560   12.9930 C   0  0  0  0  0  0  0  0  0  0  0  0
   17.6370    3.9350   13.3490 C   0  0  0  0  0  0  0  0  0  0  0  0
   16.7410    4.2350   14.3860 C   0  0  0  0  0  0  0  0  0  0  0  0
   15.6780    3.2830   14.8050 C   0  0  0  0  0  0  0  0  0  0  0  0
   15.2840    2.4170   14.0350 O   0  0  0  0  0  0  0  0  0  0  0  0
   15.1980    3.4210   16.0920 N   0  0  0  0  0  0  0  0  0  0  0  0
   14.2890    2.4120   16.6400 C   0  0  0  0  0  0  0  0  0  0  0  0
   14.9190    1.4520   17.6530 C   0  0  0  0  0  0  0  0  0  0  0  0
   14.3120    0.2500   17.6900 F   0  0  0  0  0  0  0  0  0  0  0  0
   16.2240    1.2450   17.3510 F   0  0  0  0  0  0  0  0  0  0  0  0
   14.8750    1.9780   18.8980 F   0  0  0  0  0  0  0  0  0  0  0  0
   16.8510    5.4530   15.0740 C   0  0  0  0  0  0  0  0  0  0  0  0
   17.8360    6.3770   14.7180 C   0  0  0  0  0  0  0  0  0  0  0  0
   21.4590    5.5710   13.3180 H   0  0  0  0  0  0  0  0  0  0  0  0
   20.8840    5.7440   11.7380 H   0  0  0  0  0  0  0  0  0  0  0  0
   19.3234    4.6295   12.1730 H   0  0  0  0  0  0  0  0  0  0  0  0
   17.5611    2.9755   12.8165 H   0  0  0  0  0  0  0  0  0  0  0  0
   15.7350    3.9700   16.7510 H   0  0  0  0  0  0  0  0  0  0  0  0
   13.4588    2.9352   17.1370 H   0  0  0  0  0  0  0  0  0  0  0  0
   13.9695    1.7928   15.7888 H   0  0  0  0  0  0  0  0  0  0  0  0
   16.1583    5.6811   15.8975 H   0  0  0  0  0  0  0  0  0  0  0  0
   17.9118    7.3392   15.2457 H   0  0  0  0  0  0  0  0  0  0  0  0
  1  2  1  0
  2  3  2  0
  2  4  2  0
  2  5  1  0
  5  6  2  0
  6  7  1  0
  7  8  2  0
  8  9  1  0
  9 10  2  0
  9 11  1  0
 11 12  1  0
 12 13  1  0
 13 14  1  0
 13 15  1  0
 13 16  1  0
  8 17  1  0
 17 18  2  0
 18  5  1  0
  1 19  1  0
  1 20  1  0
  6 21  1  0
  7 22  1  0
 11 23  1  0
 12 24  1  0
 12 25  1  0
 17 26  1  0
 18 27  1  0
M  END
>  <meeko>  (8) 
{"is_sidechain": [false], "free_energy": -5.951, "intermolecular_energy": -7.435, "internal_energy": -0.359}

$$$$
3ryj_ligand
     RDKit          3D

 27 27  0  0  0  0  0  0  0  0999 V2000
   19.0700    7.7800   12.5560 N   0  0  0  0  0  0  0  0  0  0  0  0
   19.4690    6.4440   11.6120 S   0  0  0  0  0  0  0  0  0  0  0  0
   20.9000    6.2650   11.6760 O   0  0  0  0  0  0  0  0  0  0  0  0
   18.7590    6.6150   10.3650 O   0  0  0  0  0  0  0  0  0  0  0  0
   18.7000    5.1260   12.5190 C   0  0  0  0  0  0  0  0  0  0  0  0
   18.3980    5.3100   13.8720 C   0  0  0  0  0  0  0  0  0  0  0  0
   17.8020    4.2730   14.5940 C   0  0  0  0  0  0  0  0  0  0  0  0
   17.5230    3.0510   13.9640 C   0  0  0  0  0  0  0  0  0  0  0  0
   16.8810    1.9210   14.6890 C   0  0  0  0  0  0  0  0  0  0  0  0
   16.8320    0.8090   14.1800 O   0  0  0  0  0  0  0  0  0  0  0  0
   16.3850    2.1970   15.9460 N   0  0  0  0  0  0  0  0  0  0  0  0
   15.9070    1.1030   16.7940 C   0  0  0  0  0  0  0  0  0  0  0  0
   14.5850    1.3710   17.5180 C   0  0  0  0  0  0  0  0  0  0  0  0
   13.9040    2.4140   17.0050 F   0  0  0  0  0  0  0  0  0  0  0  0
   13.7830    0.2800   17.4470 F   0  0  0  0  0  0  0  0  0  0  0  0
   14.8030    1.6220   18.8300 F   0  0  0  0  0  0  0  0  0  0  0  0
   17.8280    2.8800   12.6050 C   0  0  0  0  0  0  0  0  0  0  0  0
   18.4270    3.9140   11.8820 C   0  0  0  0  0  0  0  0  0  0  0  0
   19.2910    7.5730   13.5310 H   0  0  0  0  0  0  0  0  0  0  0  0
   19.5040    8.6460   12.2420 H   0  0  0  0  0  0  0  0  0  0  0  0
   18.6284    6.2659   14.3651 H   0  0  0  0  0  0  0  0  0  0  0  0
   17.5517    4.4146   15.6557 H   0  0  0  0  0  0  0  0  0  0  0  0
   16.6840    3.0470   16.4080 H   0  0  0  0  0  0  0  0  0  0  0  0
   15.7740    0.2139   16.1601 H   0  0  0  0  0  0  0  0  0  0  0  0
   16.6651    0.9718   17.5802 H   0  0  0  0  0  0  0  0  0  0  0  0
   17.5943    1.9275   12.1070 H   0  0  0  0  0  0  0  0  0  0  0  0
   18.6812    3.7748   10.8209 H   0  0  0  0  0  0  0  0  0  0  0  0
  1  2  1  0
  2  3  2  0
  2  4  2  0
  2  5  1  0
  5  6  2  0
  6  7  1  0
  7  8  2  0
  8  9  1  0
  9 10  2  0
  9 11  1  0
 11 12  1  0
 12 13  1  0
 13 14  1  0
 13 15  1  0
 13 16  1  0
  8 17  1  0
 17 18  2  0
 18  5  1  0
  1 19  1  0
  1 20  1  0
  6 21  1  0
  7 22  1  0
 11 23  1  0
 12 24  1  0
 12 25  1  0
 17 26  1  0
 18 27  1  0
M  END
>  <meeko>  (9) 
{"is_sidechain": [false], "free_energy": -5.725, "intermolecular_energy": -7.22, "internal_energy": -0.288}

$$$$
