3up2_ligand
     RDKit          3D

 40 42  0  0  0  0  0  0  0  0999 V2000
    0.5920   34.2550    1.4690 O   0  0  0  0  0  0  0  0  0  0  0  0
    1.6820   33.6230    1.6500 C   0  0  0  0  0  0  0  0  0  0  0  0
    2.4340   33.1650    0.7350 O   0  0  0  0  0  0  0  0  0  0  0  0
    2.1190   33.4000    3.0850 C   0  0  0  0  0  0  0  0  0  0  0  0
    3.2770   32.6690    3.3860 C   0  0  0  0  0  0  0  0  0  0  0  0
    3.6810   32.4620    4.7140 C   0  0  0  0  0  0  0  0  0  0  0  0
    2.9460   32.9790    5.7830 C   0  0  0  0  0  0  0  0  0  0  0  0
    3.2900   32.8080    7.1300 N   0  0  0  0  0  0  0  0  0  0  0  0
    3.8420   31.7670    7.8670 C   0  0  0  0  0  0  0  0  0  0  0  0
    3.7220   31.6900    9.1980 N   0  0  0  0  0  0  0  0  0  0  0  0
    4.2920   30.6420    9.8090 C   0  0  0  0  0  0  0  0  0  0  0  0
    4.9730   29.6600    9.1390 C   0  0  0  0  0  0  0  0  0  0  0  0
    5.0540   29.7990    7.7690 C   0  0  0  0  0  0  0  0  0  0  0  0
    5.7610   28.8030    7.0520 N   0  0  0  0  0  0  0  0  0  0  0  0
    6.3370   28.8990    5.7570 C   0  0  0  0  0  0  0  0  0  0  0  0
    5.5800   28.7050    4.5940 C   0  0  0  0  0  0  0  0  0  0  0  0
    6.1540   28.8570    3.3320 C   0  0  0  0  0  0  0  0  0  0  0  0
    7.4900   29.2280    3.2170 C   0  0  0  0  0  0  0  0  0  0  0  0
    8.2560   29.4560    4.3630 C   0  0  0  0  0  0  0  0  0  0  0  0
    7.6860   29.3060    5.6320 C   0  0  0  0  0  0  0  0  0  0  0  0
    8.3360   29.5090    6.8250 O   0  0  0  0  0  0  0  0  0  0  0  0
    9.4120   28.6450    7.1440 C   0  0  0  0  0  0  0  0  0  0  0  0
   10.5950   29.1650    6.7530 F   0  0  0  0  0  0  0  0  0  0  0  0
    9.4500   28.4870    8.4870 F   0  0  0  0  0  0  0  0  0  0  0  0
    9.2460   27.4270    6.5870 F   0  0  0  0  0  0  0  0  0  0  0  0
    4.4990   30.8480    7.1380 N   0  0  0  0  0  0  0  0  0  0  0  0
    1.7850   33.7090    5.4790 C   0  0  0  0  0  0  0  0  0  0  0  0
    1.3790   33.9170    4.1560 C   0  0  0  0  0  0  0  0  0  0  0  0
    3.8796   32.2502    2.5666 H   0  0  0  0  0  0  0  0  0  0  0  0
    4.5934   31.8819    4.9166 H   0  0  0  0  0  0  0  0  0  0  0  0
    3.1390   33.6010    7.7340 H   0  0  0  0  0  0  0  0  0  0  0  0
    4.2088   30.5666   10.9033 H   0  0  0  0  0  0  0  0  0  0  0  0
    5.4297   28.8082    9.6643 H   0  0  0  0  0  0  0  0  0  0  0  0
    5.2970   27.9050    7.1560 H   0  0  0  0  0  0  0  0  0  0  0  0
    4.5185   28.4290    4.6774 H   0  0  0  0  0  0  0  0  0  0  0  0
    5.5510   28.6837    2.4285 H   0  0  0  0  0  0  0  0  0  0  0  0
    7.9442   29.3421    2.2217 H   0  0  0  0  0  0  0  0  0  0  0  0
    9.3104   29.7543    4.2673 H   0  0  0  0  0  0  0  0  0  0  0  0
    1.1818   34.1263    6.2988 H   0  0  0  0  0  0  0  0  0  0  0  0
    0.4652   34.4951    3.9542 H   0  0  0  0  0  0  0  0  0  0  0  0
  1  2  2  0
  2  3  1  0
  2  4  1  0
  4  5  2  0
  5  6  1  0
  6  7  2  0
  7  8  1  0
  8  9  1  0
  9 10  2  0
 10 11  1  0
 11 12  2  0
 12 13  1  0
 13 14  1  0
 14 15  1  0
 15 16  2  0
 16 17  1  0
 17 18  2  0
 18 19  1  0
 19 20  2  0
 20 21  1  0
 21 22  1  0
 22 23  1  0
 22 24  1  0
 22 25  1  0
 13 26  2  0
  7 27  1  0
 27 28  2  0
 28  4  1  0
 26  9  1  0
 20 15  1  0
  5 29  1  0
  6 30  1  0
  8 31  1  0
 11 32  1  0
 12 33  1  0
 14 34  1  0
 16 35  1  0
 17 36  1  0
 18 37  1  0
 19 38  1  0
 27 39  1  0
 28 40  1  0
M  CHG  1   3  -1
M  END
>  <meeko>  (1) 
{"is_sidechain": [false], "free_energy": -9.632, "intermolecular_energy": -13.574, "internal_energy": -0.892}

$$$$
3up2_ligand
     RDKit          3D

 40 42  0  0  0  0  0  0  0  0999 V2000
    2.3490   33.1410    0.7210 O   0  0  0  0  0  0  0  0  0  0  0  0
    1.6230   33.6320    1.6430 C   0  0  0  0  0  0  0  0  0  0  0  0
    0.5510   34.2930    1.4710 O   0  0  0  0  0  0  0  0  0  0  0  0
    2.0770   33.4070    3.0720 C   0  0  0  0  0  0  0  0  0  0  0  0
    3.2460   32.6880    3.3580 C   0  0  0  0  0  0  0  0  0  0  0  0
    3.6660   32.4790    4.6810 C   0  0  0  0  0  0  0  0  0  0  0  0
    2.9340   32.9810    5.7600 C   0  0  0  0  0  0  0  0  0  0  0  0
    3.2940   32.8070    7.1020 N   0  0  0  0  0  0  0  0  0  0  0  0
    3.8430   31.7600    7.8330 C   0  0  0  0  0  0  0  0  0  0  0  0
    3.7290   31.6790    9.1640 N   0  0  0  0  0  0  0  0  0  0  0  0
    4.2960   30.6260    9.7690 C   0  0  0  0  0  0  0  0  0  0  0  0
    4.9680   29.6420    9.0920 C   0  0  0  0  0  0  0  0  0  0  0  0
    5.0430   29.7850    7.7230 C   0  0  0  0  0  0  0  0  0  0  0  0
    5.7400   28.7880    6.9990 N   0  0  0  0  0  0  0  0  0  0  0  0
    7.0560   28.8490    6.4660 C   0  0  0  0  0  0  0  0  0  0  0  0
    8.1690   29.1230    7.2730 C   0  0  0  0  0  0  0  0  0  0  0  0
    9.4570   29.1250    6.7380 C   0  0  0  0  0  0  0  0  0  0  0  0
    9.6510   28.8300    5.3930 C   0  0  0  0  0  0  0  0  0  0  0  0
    8.5590   28.5240    4.5770 C   0  0  0  0  0  0  0  0  0  0  0  0
    7.2640   28.5200    5.1060 C   0  0  0  0  0  0  0  0  0  0  0  0
    6.1190   28.2300    4.4050 O   0  0  0  0  0  0  0  0  0  0  0  0
    5.5740   29.2460    3.5840 C   0  0  0  0  0  0  0  0  0  0  0  0
    5.7300   28.9580    2.2740 F   0  0  0  0  0  0  0  0  0  0  0  0
    4.2480   29.3340    3.8350 F   0  0  0  0  0  0  0  0  0  0  0  0
    6.1290   30.4460    3.8530 F   0  0  0  0  0  0  0  0  0  0  0  0
    4.4910   30.8400    7.0980 N   0  0  0  0  0  0  0  0  0  0  0  0
    1.7620   33.6990    5.4710 C   0  0  0  0  0  0  0  0  0  0  0  0
    1.3400   33.9090    4.1530 C   0  0  0  0  0  0  0  0  0  0  0  0
    3.8451   32.2801    2.5305 H   0  0  0  0  0  0  0  0  0  0  0  0
    4.5878   31.9099    4.8716 H   0  0  0  0  0  0  0  0  0  0  0  0
    3.1590   33.6010    7.7080 H   0  0  0  0  0  0  0  0  0  0  0  0
    4.2181   30.5477   10.8634 H   0  0  0  0  0  0  0  0  0  0  0  0
    5.4222   28.7857    9.6121 H   0  0  0  0  0  0  0  0  0  0  0  0
    5.1180   28.3480    6.3260 H   0  0  0  0  0  0  0  0  0  0  0  0
    8.0247   29.3392    8.3418 H   0  0  0  0  0  0  0  0  0  0  0  0
   10.3190   29.3598    7.3797 H   0  0  0  0  0  0  0  0  0  0  0  0
   10.6666   28.8376    4.9705 H   0  0  0  0  0  0  0  0  0  0  0  0
    8.7181   28.2854    3.5150 H   0  0  0  0  0  0  0  0  0  0  0  0
    1.1624   34.1054    6.2988 H   0  0  0  0  0  0  0  0  0  0  0  0
    0.4168   34.4761    3.9631 H   0  0  0  0  0  0  0  0  0  0  0  0
  1  2  2  0
  2  3  1  0
  2  4  1  0
  4  5  2  0
  5  6  1  0
  6  7  2  0
  7  8  1  0
  8  9  1  0
  9 10  2  0
 10 11  1  0
 11 12  2  0
 12 13  1  0
 13 14  1  0
 14 15  1  0
 15 16  2  0
 16 17  1  0
 17 18  2  0
 18 19  1  0
 19 20  2  0
 20 21  1  0
 21 22  1  0
 22 23  1  0
 22 24  1  0
 22 25  1  0
 13 26  2  0
  7 27  1  0
 27 28  2  0
 28  4  1  0
 26  9  1  0
 20 15  1  0
  5 29  1  0
  6 30  1  0
  8 31  1  0
 11 32  1  0
 12 33  1  0
 14 34  1  0
 16 35  1  0
 17 36  1  0
 18 37  1  0
 19 38  1  0
 27 39  1  0
 28 40  1  0
M  CHG  1   3  -1
M  END
>  <meeko>  (2) 
{"is_sidechain": [false], "free_energy": -9.574, "intermolecular_energy": -13.138, "internal_energy": -1.246}

$$$$
3up2_ligand
     RDKit          3D

 40 42  0  0  0  0  0  0  0  0999 V2000
    2.3520   33.2620    0.6770 O   0  0  0  0  0  0  0  0  0  0  0  0
    1.5950   33.7280    1.5870 C   0  0  0  0  0  0  0  0  0  0  0  0
    0.5140   34.3680    1.3970 O   0  0  0  0  0  0  0  0  0  0  0  0
    2.0200   33.4950    3.0240 C   0  0  0  0  0  0  0  0  0  0  0  0
    3.1500   32.7250    3.3320 C   0  0  0  0  0  0  0  0  0  0  0  0
    3.5430   32.5090    4.6620 C   0  0  0  0  0  0  0  0  0  0  0  0
    2.8220   33.0540    5.7270 C   0  0  0  0  0  0  0  0  0  0  0  0
    3.1560   32.8750    7.0750 N   0  0  0  0  0  0  0  0  0  0  0  0
    3.7320   31.8430    7.8050 C   0  0  0  0  0  0  0  0  0  0  0  0
    3.5600   31.7170    9.1260 N   0  0  0  0  0  0  0  0  0  0  0  0
    4.1600   30.6820    9.7310 C   0  0  0  0  0  0  0  0  0  0  0  0
    4.9220   29.7600    9.0630 C   0  0  0  0  0  0  0  0  0  0  0  0
    5.0540   29.9460    7.7030 C   0  0  0  0  0  0  0  0  0  0  0  0
    5.8430   29.0130    6.9890 N   0  0  0  0  0  0  0  0  0  0  0  0
    7.1820   29.1620    6.5370 C   0  0  0  0  0  0  0  0  0  0  0  0
    7.4970   29.8970    5.3860 C   0  0  0  0  0  0  0  0  0  0  0  0
    8.8220   30.0760    4.9910 C   0  0  0  0  0  0  0  0  0  0  0  0
    9.8530   29.5400    5.7560 C   0  0  0  0  0  0  0  0  0  0  0  0
    9.5640   28.8300    6.9240 C   0  0  0  0  0  0  0  0  0  0  0  0
    8.2370   28.6470    7.3270 C   0  0  0  0  0  0  0  0  0  0  0  0
    7.8330   27.9750    8.4540 O   0  0  0  0  0  0  0  0  0  0  0  0
    7.7260   26.5650    8.3780 C   0  0  0  0  0  0  0  0  0  0  0  0
    8.5210   25.9610    9.2860 F   0  0  0  0  0  0  0  0  0  0  0  0
    6.4470   26.2180    8.6500 F   0  0  0  0  0  0  0  0  0  0  0  0
    8.0260   26.1150    7.1410 F   0  0  0  0  0  0  0  0  0  0  0  0
    4.4690   30.9840    7.0800 N   0  0  0  0  0  0  0  0  0  0  0  0
    1.6880   33.8230    5.4160 C   0  0  0  0  0  0  0  0  0  0  0  0
    1.2940   34.0400    4.0910 C   0  0  0  0  0  0  0  0  0  0  0  0
    3.7398   32.2817    2.5161 H   0  0  0  0  0  0  0  0  0  0  0  0
    4.4349   31.8995    4.8694 H   0  0  0  0  0  0  0  0  0  0  0  0
    2.9720   33.6550    7.6880 H   0  0  0  0  0  0  0  0  0  0  0  0
    4.0342   30.5673   10.8178 H   0  0  0  0  0  0  0  0  0  0  0  0
    5.4021   28.9178    9.5828 H   0  0  0  0  0  0  0  0  0  0  0  0
    5.2850   28.5660    6.2670 H   0  0  0  0  0  0  0  0  0  0  0  0
    6.6877   30.3387    4.7861 H   0  0  0  0  0  0  0  0  0  0  0  0
    9.0520   30.6405    4.0753 H   0  0  0  0  0  0  0  0  0  0  0  0
   10.8980   29.6755    5.4405 H   0  0  0  0  0  0  0  0  0  0  0  0
   10.3829   28.4134    7.5289 H   0  0  0  0  0  0  0  0  0  0  0  0
    1.0969   34.2642    6.2321 H   0  0  0  0  0  0  0  0  0  0  0  0
    0.4007   34.6477    3.8841 H   0  0  0  0  0  0  0  0  0  0  0  0
  1  2  2  0
  2  3  1  0
  2  4  1  0
  4  5  2  0
  5  6  1  0
  6  7  2  0
  7  8  1  0
  8  9  1  0
  9 10  2  0
 10 11  1  0
 11 12  2  0
 12 13  1  0
 13 14  1  0
 14 15  1  0
 15 16  2  0
 16 17  1  0
 17 18  2  0
 18 19  1  0
 19 20  2  0
 20 21  1  0
 21 22  1  0
 22 23  1  0
 22 24  1  0
 22 25  1  0
 13 26  2  0
  7 27  1  0
 27 28  2  0
 28  4  1  0
 26  9  1  0
 20 15  1  0
  5 29  1  0
  6 30  1  0
  8 31  1  0
 11 32  1  0
 12 33  1  0
 14 34  1  0
 16 35  1  0
 17 36  1  0
 18 37  1  0
 19 38  1  0
 27 39  1  0
 28 40  1  0
M  CHG  1   3  -1
M  END
>  <meeko>  (3) 
{"is_sidechain": [false], "free_energy": -9.556, "intermolecular_energy": -13.682, "internal_energy": -0.676}

$$$$
3up2_ligand
     RDKit          3D

 40 42  0  0  0  0  0  0  0  0999 V2000
    9.5080   25.1080    9.9210 O   0  0  0  0  0  0  0  0  0  0  0  0
    9.2220   26.3350    9.7440 C   0  0  0  0  0  0  0  0  0  0  0  0
    8.8610   27.1510   10.6480 O   0  0  0  0  0  0  0  0  0  0  0  0
    9.3240   26.8690    8.3280 C   0  0  0  0  0  0  0  0  0  0  0  0
    9.6100   28.2190    8.0800 C   0  0  0  0  0  0  0  0  0  0  0  0
    9.7040   28.7140    6.7700 C   0  0  0  0  0  0  0  0  0  0  0  0
    9.5160   27.8780    5.6660 C   0  0  0  0  0  0  0  0  0  0  0  0
    9.5930   28.3060    4.3350 N   0  0  0  0  0  0  0  0  0  0  0  0
    8.6560   28.6870    3.3810 C   0  0  0  0  0  0  0  0  0  0  0  0
    8.9740   28.8530    2.0920 N   0  0  0  0  0  0  0  0  0  0  0  0
    7.9920   29.2200    1.2570 C   0  0  0  0  0  0  0  0  0  0  0  0
    6.6980   29.4210    1.6600 C   0  0  0  0  0  0  0  0  0  0  0  0
    6.4390   29.2270    3.0000 C   0  0  0  0  0  0  0  0  0  0  0  0
    5.1120   29.4370    3.4470 N   0  0  0  0  0  0  0  0  0  0  0  0
    4.5980   30.5390    4.1820 C   0  0  0  0  0  0  0  0  0  0  0  0
    4.1850   31.7210    3.5520 C   0  0  0  0  0  0  0  0  0  0  0  0
    3.6330   32.7690    4.2890 C   0  0  0  0  0  0  0  0  0  0  0  0
    3.4650   32.6390    5.6630 C   0  0  0  0  0  0  0  0  0  0  0  0
    3.8410   31.4580    6.3070 C   0  0  0  0  0  0  0  0  0  0  0  0
    4.3950   30.4020    5.5760 C   0  0  0  0  0  0  0  0  0  0  0  0
    4.7950   29.1950    6.0970 O   0  0  0  0  0  0  0  0  0  0  0  0
    5.8580   29.2020    7.0330 C   0  0  0  0  0  0  0  0  0  0  0  0
    6.8070   30.1000    6.6940 F   0  0  0  0  0  0  0  0  0  0  0  0
    5.3620   29.5560    8.2400 F   0  0  0  0  0  0  0  0  0  0  0  0
    6.4140   27.9780    7.1540 F   0  0  0  0  0  0  0  0  0  0  0  0
    7.4120   28.8700    3.8560 N   0  0  0  0  0  0  0  0  0  0  0  0
    9.2280   26.5270    5.9170 C   0  0  0  0  0  0  0  0  0  0  0  0
    9.1330   26.0300    7.2230 C   0  0  0  0  0  0  0  0  0  0  0  0
    9.7636   28.9029    8.9278 H   0  0  0  0  0  0  0  0  0  0  0  0
    9.9296   29.7786    6.6095 H   0  0  0  0  0  0  0  0  0  0  0  0
   10.5180   28.3900    3.9450 H   0  0  0  0  0  0  0  0  0  0  0  0
    8.2372   29.3672    0.1948 H   0  0  0  0  0  0  0  0  0  0  0  0
    5.9097   29.7205    0.9537 H   0  0  0  0  0  0  0  0  0  0  0  0
    4.7270   28.5710    3.8130 H   0  0  0  0  0  0  0  0  0  0  0  0
    4.2976   31.8236    2.4626 H   0  0  0  0  0  0  0  0  0  0  0  0
    3.3308   33.6979    3.7832 H   0  0  0  0  0  0  0  0  0  0  0  0
    3.0350   33.4681    6.2442 H   0  0  0  0  0  0  0  0  0  0  0  0
    3.7009   31.3580    7.3934 H   0  0  0  0  0  0  0  0  0  0  0  0
    9.0735   25.8436    5.0690 H   0  0  0  0  0  0  0  0  0  0  0  0
    8.9052   24.9658    7.3830 H   0  0  0  0  0  0  0  0  0  0  0  0
  1  2  2  0
  2  3  1  0
  2  4  1  0
  4  5  2  0
  5  6  1  0
  6  7  2  0
  7  8  1  0
  8  9  1  0
  9 10  2  0
 10 11  1  0
 11 12  2  0
 12 13  1  0
 13 14  1  0
 14 15  1  0
 15 16  2  0
 16 17  1  0
 17 18  2  0
 18 19  1  0
 19 20  2  0
 20 21  1  0
 21 22  1  0
 22 23  1  0
 22 24  1  0
 22 25  1  0
 13 26  2  0
  7 27  1  0
 27 28  2  0
 28  4  1  0
 26  9  1  0
 20 15  1  0
  5 29  1  0
  6 30  1  0
  8 31  1  0
 11 32  1  0
 12 33  1  0
 14 34  1  0
 16 35  1  0
 17 36  1  0
 18 37  1  0
 19 38  1  0
 27 39  1  0
 28 40  1  0
M  CHG  1   3  -1
M  END
>  <meeko>  (4) 
{"is_sidechain": [false], "free_energy": -9.317, "intermolecular_energy": -12.001, "internal_energy": -2.021}

$$$$
3up2_ligand
     RDKit          3D

 40 42  0  0  0  0  0  0  0  0999 V2000
    2.8650   33.8750    0.7010 O   0  0  0  0  0  0  0  0  0  0  0  0
    1.9740   33.4000    1.4750 C   0  0  0  0  0  0  0  0  0  0  0  0
    0.8130   33.0180    1.1260 O   0  0  0  0  0  0  0  0  0  0  0  0
    2.3310   33.2790    2.9450 C   0  0  0  0  0  0  0  0  0  0  0  0
    1.4650   33.7450    3.9440 C   0  0  0  0  0  0  0  0  0  0  0  0
    1.7960   33.6340    5.3030 C   0  0  0  0  0  0  0  0  0  0  0  0
    2.9990   33.0530    5.7090 C   0  0  0  0  0  0  0  0  0  0  0  0
    3.3920   32.9130    7.0460 N   0  0  0  0  0  0  0  0  0  0  0  0
    3.8530   31.8530    7.8170 C   0  0  0  0  0  0  0  0  0  0  0  0
    3.6230   31.7710    9.1330 N   0  0  0  0  0  0  0  0  0  0  0  0
    4.1120   30.7040    9.7800 C   0  0  0  0  0  0  0  0  0  0  0  0
    4.8180   29.7070    9.1600 C   0  0  0  0  0  0  0  0  0  0  0  0
    5.0150   29.8520    7.8030 C   0  0  0  0  0  0  0  0  0  0  0  0
    5.7500   28.8410    7.1380 N   0  0  0  0  0  0  0  0  0  0  0  0
    7.0000   28.2770    7.5090 C   0  0  0  0  0  0  0  0  0  0  0  0
    7.0850   27.0930    8.2530 C   0  0  0  0  0  0  0  0  0  0  0  0
    8.3230   26.5280    8.5600 C   0  0  0  0  0  0  0  0  0  0  0  0
    9.4920   27.1290    8.1060 C   0  0  0  0  0  0  0  0  0  0  0  0
    9.4300   28.2930    7.3370 C   0  0  0  0  0  0  0  0  0  0  0  0
    8.1920   28.8660    7.0250 C   0  0  0  0  0  0  0  0  0  0  0  0
    8.0060   30.0010    6.2740 O   0  0  0  0  0  0  0  0  0  0  0  0
    7.8610   29.8470    4.8730 C   0  0  0  0  0  0  0  0  0  0  0  0
    6.7110   30.4010    4.4340 F   0  0  0  0  0  0  0  0  0  0  0  0
    8.8880   30.4830    4.2650 F   0  0  0  0  0  0  0  0  0  0  0  0
    7.9050   28.5470    4.5140 F   0  0  0  0  0  0  0  0  0  0  0  0
    4.5420   30.9200    7.1370 N   0  0  0  0  0  0  0  0  0  0  0  0
    3.8660   32.5890    4.7060 C   0  0  0  0  0  0  0  0  0  0  0  0
    3.5390   32.6990    3.3500 C   0  0  0  0  0  0  0  0  0  0  0  0
    0.5084   34.2062    3.6572 H   0  0  0  0  0  0  0  0  0  0  0  0
    1.0952   34.0115    6.0622 H   0  0  0  0  0  0  0  0  0  0  0  0
    3.3710   33.7490    7.6080 H   0  0  0  0  0  0  0  0  0  0  0  0
    3.9377   30.6248   10.8632 H   0  0  0  0  0  0  0  0  0  0  0  0
    5.2060   28.8394    9.7138 H   0  0  0  0  0  0  0  0  0  0  0  0
    5.7300   29.0000    6.1340 H   0  0  0  0  0  0  0  0  0  0  0  0
    6.1635   26.6024    8.5996 H   0  0  0  0  0  0  0  0  0  0  0  0
    8.3744   25.6079    9.1607 H   0  0  0  0  0  0  0  0  0  0  0  0
   10.4682   26.6863    8.3533 H   0  0  0  0  0  0  0  0  0  0  0  0
   10.3574   28.7611    6.9753 H   0  0  0  0  0  0  0  0  0  0  0  0
    4.8231   32.1290    4.9929 H   0  0  0  0  0  0  0  0  0  0  0  0
    4.2415   32.3242    2.5910 H   0  0  0  0  0  0  0  0  0  0  0  0
  1  2  2  0
  2  3  1  0
  2  4  1  0
  4  5  2  0
  5  6  1  0
  6  7  2  0
  7  8  1  0
  8  9  1  0
  9 10  2  0
 10 11  1  0
 11 12  2  0
 12 13  1  0
 13 14  1  0
 14 15  1  0
 15 16  2  0
 16 17  1  0
 17 18  2  0
 18 19  1  0
 19 20  2  0
 20 21  1  0
 21 22  1  0
 22 23  1  0
 22 24  1  0
 22 25  1  0
 13 26  2  0
  7 27  1  0
 27 28  2  0
 28  4  1  0
 26  9  1  0
 20 15  1  0
  5 29  1  0
  6 30  1  0
  8 31  1  0
 11 32  1  0
 12 33  1  0
 14 34  1  0
 16 35  1  0
 17 36  1  0
 18 37  1  0
 19 38  1  0
 27 39  1  0
 28 40  1  0
M  CHG  1   3  -1
M  END
>  <meeko>  (5) 
{"is_sidechain": [false], "free_energy": -9.312, "intermolecular_energy": -13.275, "internal_energy": -0.74}

$$$$
3up2_ligand
     RDKit          3D

 40 42  0  0  0  0  0  0  0  0999 V2000
   10.0780   25.1810    9.4100 O   0  0  0  0  0  0  0  0  0  0  0  0
    9.4800   26.3030    9.4480 C   0  0  0  0  0  0  0  0  0  0  0  0
    9.0400   26.8740   10.4940 O   0  0  0  0  0  0  0  0  0  0  0  0
    9.2760   27.0210    8.1280 C   0  0  0  0  0  0  0  0  0  0  0  0
    9.0670   26.3100    6.9390 C   0  0  0  0  0  0  0  0  0  0  0  0
    8.8800   26.9740    5.7170 C   0  0  0  0  0  0  0  0  0  0  0  0
    8.8930   28.3690    5.6420 C   0  0  0  0  0  0  0  0  0  0  0  0
    8.7160   29.0950    4.4580 N   0  0  0  0  0  0  0  0  0  0  0  0
    7.6090   29.4770    3.7090 C   0  0  0  0  0  0  0  0  0  0  0  0
    7.5540   29.3180    2.3810 N   0  0  0  0  0  0  0  0  0  0  0  0
    6.4370   29.7200    1.7580 C   0  0  0  0  0  0  0  0  0  0  0  0
    5.3670   30.2690    2.4130 C   0  0  0  0  0  0  0  0  0  0  0  0
    5.4880   30.3980    3.7810 C   0  0  0  0  0  0  0  0  0  0  0  0
    4.4000   30.9710    4.4830 N   0  0  0  0  0  0  0  0  0  0  0  0
    4.1930   31.0230    5.8870 C   0  0  0  0  0  0  0  0  0  0  0  0
    4.5610   29.9640    6.7290 C   0  0  0  0  0  0  0  0  0  0  0  0
    4.3980   30.0580    8.1110 C   0  0  0  0  0  0  0  0  0  0  0  0
    3.8850   31.2240    8.6720 C   0  0  0  0  0  0  0  0  0  0  0  0
    3.5410   32.3030    7.8550 C   0  0  0  0  0  0  0  0  0  0  0  0
    3.7020   32.2160    6.4680 C   0  0  0  0  0  0  0  0  0  0  0  0
    3.4050   33.2110    5.5680 O   0  0  0  0  0  0  0  0  0  0  0  0
    2.0420   33.4230    5.2470 C   0  0  0  0  0  0  0  0  0  0  0  0
    1.2330   33.0500    6.2620 F   0  0  0  0  0  0  0  0  0  0  0  0
    1.8550   34.7450    5.0300 F   0  0  0  0  0  0  0  0  0  0  0  0
    1.6930   32.7620    4.1230 F   0  0  0  0  0  0  0  0  0  0  0  0
    6.6040   30.0120    4.4230 N   0  0  0  0  0  0  0  0  0  0  0  0
    9.1050   29.0800    6.8350 C   0  0  0  0  0  0  0  0  0  0  0  0
    9.2930   28.4200    8.0550 C   0  0  0  0  0  0  0  0  0  0  0  0
    9.0492   25.2104    6.9639 H   0  0  0  0  0  0  0  0  0  0  0  0
    8.7203   26.3855    4.8015 H   0  0  0  0  0  0  0  0  0  0  0  0
    9.5520   29.4580    4.0270 H   0  0  0  0  0  0  0  0  0  0  0  0
    6.3770   29.6030    0.6659 H   0  0  0  0  0  0  0  0  0  0  0  0
    4.4610   30.5894    1.8777 H   0  0  0  0  0  0  0  0  0  0  0  0
    3.5270   30.7450    4.0150 H   0  0  0  0  0  0  0  0  0  0  0  0
    4.9840   29.0466    6.2937 H   0  0  0  0  0  0  0  0  0  0  0  0
    4.6745   29.2116    8.7569 H   0  0  0  0  0  0  0  0  0  0  0  0
    3.7503   31.2957    9.7614 H   0  0  0  0  0  0  0  0  0  0  0  0
    3.1420   33.2247    8.3036 H   0  0  0  0  0  0  0  0  0  0  0  0
    9.1237   30.1796    6.8098 H   0  0  0  0  0  0  0  0  0  0  0  0
    9.4565   29.0084    8.9699 H   0  0  0  0  0  0  0  0  0  0  0  0
  1  2  2  0
  2  3  1  0
  2  4  1  0
  4  5  2  0
  5  6  1  0
  6  7  2  0
  7  8  1  0
  8  9  1  0
  9 10  2  0
 10 11  1  0
 11 12  2  0
 12 13  1  0
 13 14  1  0
 14 15  1  0
 15 16  2  0
 16 17  1  0
 17 18  2  0
 18 19  1  0
 19 20  2  0
 20 21  1  0
 21 22  1  0
 22 23  1  0
 22 24  1  0
 22 25  1  0
 13 26  2  0
  7 27  1  0
 27 28  2  0
 28  4  1  0
 26  9  1  0
 20 15  1  0
  5 29  1  0
  6 30  1  0
  8 31  1  0
 11 32  1  0
 12 33  1  0
 14 34  1  0
 16 35  1  0
 17 36  1  0
 18 37  1  0
 19 38  1  0
 27 39  1  0
 28 40  1  0
M  CHG  1   3  -1
M  END
>  <meeko>  (6) 
{"is_sidechain": [false], "free_energy": -9.076, "intermolecular_energy": -13.004, "internal_energy": -0.678}

$$$$
3up2_ligand
     RDKit          3D

 40 42  0  0  0  0  0  0  0  0999 V2000
   12.2260   26.3780   -2.0120 O   0  0  0  0  0  0  0  0  0  0  0  0
   13.0560   26.4790   -1.0540 C   0  0  0  0  0  0  0  0  0  0  0  0
   14.3200   26.5400   -1.1700 O   0  0  0  0  0  0  0  0  0  0  0  0
   12.4850   26.5340    0.3510 C   0  0  0  0  0  0  0  0  0  0  0  0
   12.9680   25.6940    1.3640 C   0  0  0  0  0  0  0  0  0  0  0  0
   12.4390   25.7440    2.6630 C   0  0  0  0  0  0  0  0  0  0  0  0
   11.4130   26.6320    2.9930 C   0  0  0  0  0  0  0  0  0  0  0  0
   10.8390   26.7320    4.2660 N   0  0  0  0  0  0  0  0  0  0  0  0
   10.2180   27.7530    4.9750 C   0  0  0  0  0  0  0  0  0  0  0  0
   10.8820   28.8330    5.4050 N   0  0  0  0  0  0  0  0  0  0  0  0
   10.1850   29.7590    6.0780 C   0  0  0  0  0  0  0  0  0  0  0  0
    8.8430   29.6520    6.3320 C   0  0  0  0  0  0  0  0  0  0  0  0
    8.2200   28.5170    5.8570 C   0  0  0  0  0  0  0  0  0  0  0  0
    6.8350   28.3750    6.1140 N   0  0  0  0  0  0  0  0  0  0  0  0
    6.0760   28.9440    7.1720 C   0  0  0  0  0  0  0  0  0  0  0  0
    5.1090   29.9320    6.9410 C   0  0  0  0  0  0  0  0  0  0  0  0
    4.3380   30.4380    7.9870 C   0  0  0  0  0  0  0  0  0  0  0  0
    4.5090   29.9450    9.2770 C   0  0  0  0  0  0  0  0  0  0  0  0
    5.4460   28.9390    9.5250 C   0  0  0  0  0  0  0  0  0  0  0  0
    6.2230   28.4260    8.4800 C   0  0  0  0  0  0  0  0  0  0  0  0
    7.1670   27.4360    8.6020 O   0  0  0  0  0  0  0  0  0  0  0  0
    8.3380   27.7300    9.3420 C   0  0  0  0  0  0  0  0  0  0  0  0
    8.2990   27.1710   10.5700 F   0  0  0  0  0  0  0  0  0  0  0  0
    9.4000   27.2130    8.6830 F   0  0  0  0  0  0  0  0  0  0  0  0
    8.5260   29.0620    9.4550 F   0  0  0  0  0  0  0  0  0  0  0  0
    8.9040   27.5710    5.1890 N   0  0  0  0  0  0  0  0  0  0  0  0
   10.9300   27.4710    1.9750 C   0  0  0  0  0  0  0  0  0  0  0  0
   11.4550   27.4240    0.6780 C   0  0  0  0  0  0  0  0  0  0  0  0
   13.7760   24.9830    1.1367 H   0  0  0  0  0  0  0  0  0  0  0  0
   12.8400   25.0713    3.4354 H   0  0  0  0  0  0  0  0  0  0  0  0
   10.8350   25.8910    4.8220 H   0  0  0  0  0  0  0  0  0  0  0  0
   10.7169   30.6493    6.4447 H   0  0  0  0  0  0  0  0  0  0  0  0
    8.2929   30.4283    6.8841 H   0  0  0  0  0  0  0  0  0  0  0  0
    6.5520   27.4090    5.9700 H   0  0  0  0  0  0  0  0  0  0  0  0
    4.9562   30.3135    5.9206 H   0  0  0  0  0  0  0  0  0  0  0  0
    3.5955   31.2260    7.7926 H   0  0  0  0  0  0  0  0  0  0  0  0
    3.9051   30.3483   10.1032 H   0  0  0  0  0  0  0  0  0  0  0  0
    5.5736   28.5486   10.5454 H   0  0  0  0  0  0  0  0  0  0  0  0
   10.1210   28.1809    2.2021 H   0  0  0  0  0  0  0  0  0  0  0  0
   11.0527   28.0956   -0.0947 H   0  0  0  0  0  0  0  0  0  0  0  0
  1  2  2  0
  2  3  1  0
  2  4  1  0
  4  5  2  0
  5  6  1  0
  6  7  2  0
  7  8  1  0
  8  9  1  0
  9 10  2  0
 10 11  1  0
 11 12  2  0
 12 13  1  0
 13 14  1  0
 14 15  1  0
 15 16  2  0
 16 17  1  0
 17 18  2  0
 18 19  1  0
 19 20  2  0
 20 21  1  0
 21 22  1  0
 22 23  1  0
 22 24  1  0
 22 25  1  0
 13 26  2  0
  7 27  1  0
 27 28  2  0
 28  4  1  0
 26  9  1  0
 20 15  1  0
  5 29  1  0
  6 30  1  0
  8 31  1  0
 11 32  1  0
 12 33  1  0
 14 34  1  0
 16 35  1  0
 17 36  1  0
 18 37  1  0
 19 38  1  0
 27 39  1  0
 28 40  1  0
M  CHG  1   3  -1
M  END
>  <meeko>  (7) 
{"is_sidechain": [false], "free_energy": -8.658, "intermolecular_energy": -12.01, "internal_energy": -1.083}

$$$$
3up2_ligand
     RDKit          3D

 40 42  0  0  0  0  0  0  0  0999 V2000
    8.4510   27.9300   10.3240 O   0  0  0  0  0  0  0  0  0  0  0  0
    8.7170   28.0380    9.0850 C   0  0  0  0  0  0  0  0  0  0  0  0
    9.8090   27.7010    8.5280 O   0  0  0  0  0  0  0  0  0  0  0  0
    7.6350   28.6190    8.1950 C   0  0  0  0  0  0  0  0  0  0  0  0
    7.9330   29.1140    6.9180 C   0  0  0  0  0  0  0  0  0  0  0  0
    6.9320   29.6530    6.0940 C   0  0  0  0  0  0  0  0  0  0  0  0
    5.6020   29.7130    6.5180 C   0  0  0  0  0  0  0  0  0  0  0  0
    4.5560   30.2390    5.7500 N   0  0  0  0  0  0  0  0  0  0  0  0
    4.4890   30.9680    4.5690 C   0  0  0  0  0  0  0  0  0  0  0  0
    4.0520   32.2330    4.5320 N   0  0  0  0  0  0  0  0  0  0  0  0
    4.0300   32.8440    3.3390 C   0  0  0  0  0  0  0  0  0  0  0  0
    4.4380   32.2400    2.1780 C   0  0  0  0  0  0  0  0  0  0  0  0
    4.8810   30.9400    2.2890 C   0  0  0  0  0  0  0  0  0  0  0  0
    5.3000   30.2880    1.1030 N   0  0  0  0  0  0  0  0  0  0  0  0
    6.4960   30.4950    0.3650 C   0  0  0  0  0  0  0  0  0  0  0  0
    6.6690   31.6100   -0.4660 C   0  0  0  0  0  0  0  0  0  0  0  0
    7.8720   31.8200   -1.1390 C   0  0  0  0  0  0  0  0  0  0  0  0
    8.9270   30.9300   -0.9720 C   0  0  0  0  0  0  0  0  0  0  0  0
    8.7880   29.8280   -0.1240 C   0  0  0  0  0  0  0  0  0  0  0  0
    7.5840   29.6100    0.5550 C   0  0  0  0  0  0  0  0  0  0  0  0
    7.3330   28.5700    1.4160 O   0  0  0  0  0  0  0  0  0  0  0  0
    7.9870   28.5810    2.6720 C   0  0  0  0  0  0  0  0  0  0  0  0
    8.1790   29.8420    3.1150 F   0  0  0  0  0  0  0  0  0  0  0  0
    7.2040   27.9390    3.5680 F   0  0  0  0  0  0  0  0  0  0  0  0
    9.1710   27.9350    2.6150 F   0  0  0  0  0  0  0  0  0  0  0  0
    4.9010   30.3060    3.4740 N   0  0  0  0  0  0  0  0  0  0  0  0
    5.3070   29.2190    7.7990 C   0  0  0  0  0  0  0  0  0  0  0  0
    6.3030   28.6820    8.6230 C   0  0  0  0  0  0  0  0  0  0  0  0
    8.9706   29.0796    6.5545 H   0  0  0  0  0  0  0  0  0  0  0  0
    7.1994   30.0346    5.0976 H   0  0  0  0  0  0  0  0  0  0  0  0
    3.6220   30.0540    6.0810 H   0  0  0  0  0  0  0  0  0  0  0  0
    3.6667   33.8811    3.2892 H   0  0  0  0  0  0  0  0  0  0  0  0
    4.4131   32.7642    1.2112 H   0  0  0  0  0  0  0  0  0  0  0  0
    4.5150   30.1900    0.4650 H   0  0  0  0  0  0  0  0  0  0  0  0
    5.8453   32.3287   -0.5889 H   0  0  0  0  0  0  0  0  0  0  0  0
    7.9864   32.6901   -1.8022 H   0  0  0  0  0  0  0  0  0  0  0  0
    9.8732   31.0937   -1.5086 H   0  0  0  0  0  0  0  0  0  0  0  0
    9.6274   29.1299    0.0101 H   0  0  0  0  0  0  0  0  0  0  0  0
    4.2696   29.2549    8.1632 H   0  0  0  0  0  0  0  0  0  0  0  0
    6.0357   28.3041    9.6209 H   0  0  0  0  0  0  0  0  0  0  0  0
  1  2  2  0
  2  3  1  0
  2  4  1  0
  4  5  2  0
  5  6  1  0
  6  7  2  0
  7  8  1  0
  8  9  1  0
  9 10  2  0
 10 11  1  0
 11 12  2  0
 12 13  1  0
 13 14  1  0
 14 15  1  0
 15 16  2  0
 16 17  1  0
 17 18  2  0
 18 19  1  0
 19 20  2  0
 20 21  1  0
 21 22  1  0
 22 23  1  0
 22 24  1  0
 22 25  1  0
 13 26  2  0
  7 27  1  0
 27 28  2  0
 28  4  1  0
 26  9  1  0
 20 15  1  0
  5 29  1  0
  6 30  1  0
  8 31  1  0
 11 32  1  0
 12 33  1  0
 14 34  1  0
 16 35  1  0
 17 36  1  0
 18 37  1  0
 19 38  1  0
 27 39  1  0
 28 40  1  0
M  CHG  1   3  -1
M  END
>  <meeko>  (8) 
{"is_sidechain": [false], "free_energy": -8.518, "intermolecular_energy": -11.397, "internal_energy": -1.499}

$$$$
3up2_ligand
     RDKit          3D

 40 42  0  0  0  0  0  0  0  0999 V2000
    9.2870   30.1150    0.0920 O   0  0  0  0  0  0  0  0  0  0  0  0
    9.8390   28.9860    0.2890 C   0  0  0  0  0  0  0  0  0  0  0  0
   10.3930   28.2660   -0.6000 O   0  0  0  0  0  0  0  0  0  0  0  0
    9.8360   28.4540    1.7090 C   0  0  0  0  0  0  0  0  0  0  0  0
   10.8140   27.5520    2.1490 C   0  0  0  0  0  0  0  0  0  0  0  0
   10.8110   27.0590    3.4640 C   0  0  0  0  0  0  0  0  0  0  0  0
    9.8340   27.4520    4.3810 C   0  0  0  0  0  0  0  0  0  0  0  0
    9.7700   26.9990    5.7040 N   0  0  0  0  0  0  0  0  0  0  0  0
    9.1300   27.4440    6.8540 C   0  0  0  0  0  0  0  0  0  0  0  0
    9.7870   27.6720    7.9980 N   0  0  0  0  0  0  0  0  0  0  0  0
    9.0710   28.1020    9.0460 C   0  0  0  0  0  0  0  0  0  0  0  0
    7.7200   28.3210    8.9940 C   0  0  0  0  0  0  0  0  0  0  0  0
    7.1060   28.0720    7.7850 C   0  0  0  0  0  0  0  0  0  0  0  0
    5.7080   28.2810    7.7050 N   0  0  0  0  0  0  0  0  0  0  0  0
    4.9880   29.4850    7.9280 C   0  0  0  0  0  0  0  0  0  0  0  0
    4.8480   30.0380    9.2080 C   0  0  0  0  0  0  0  0  0  0  0  0
    4.1830   31.2490    9.3960 C   0  0  0  0  0  0  0  0  0  0  0  0
    3.6690   31.9360    8.3010 C   0  0  0  0  0  0  0  0  0  0  0  0
    3.8230   31.4200    7.0130 C   0  0  0  0  0  0  0  0  0  0  0  0
    4.4900   30.2050    6.8160 C   0  0  0  0  0  0  0  0  0  0  0  0
    4.7070   29.6040    5.6000 O   0  0  0  0  0  0  0  0  0  0  0  0
    5.6240   30.2220    4.7150 C   0  0  0  0  0  0  0  0  0  0  0  0
    6.8240   30.4130    5.3030 F   0  0  0  0  0  0  0  0  0  0  0  0
    5.8070   29.4060    3.6520 F   0  0  0  0  0  0  0  0  0  0  0  0
    5.1490   31.4000    4.2590 F   0  0  0  0  0  0  0  0  0  0  0  0
    7.8050   27.6300    6.7240 N   0  0  0  0  0  0  0  0  0  0  0  0
    8.8540   28.3550    3.9370 C   0  0  0  0  0  0  0  0  0  0  0  0
    8.8540   28.8480    2.6270 C   0  0  0  0  0  0  0  0  0  0  0  0
   11.5987   27.2240    1.4514 H   0  0  0  0  0  0  0  0  0  0  0  0
   11.5922   26.3507    3.7772 H   0  0  0  0  0  0  0  0  0  0  0  0
   10.2720   26.1490    5.9100 H   0  0  0  0  0  0  0  0  0  0  0  0
    9.5944   28.2884    9.9954 H   0  0  0  0  0  0  0  0  0  0  0  0
    7.1558   28.6761    9.8689 H   0  0  0  0  0  0  0  0  0  0  0  0
    5.2150   27.5020    8.1330 H   0  0  0  0  0  0  0  0  0  0  0  0
    5.2685   29.5095   10.0763 H   0  0  0  0  0  0  0  0  0  0  0  0
    4.0649   31.6607   10.4092 H   0  0  0  0  0  0  0  0  0  0  0  0
    3.1397   32.8886    8.4505 H   0  0  0  0  0  0  0  0  0  0  0  0
    3.4190   31.9698    6.1502 H   0  0  0  0  0  0  0  0  0  0  0  0
    8.0688   28.6821    4.6345 H   0  0  0  0  0  0  0  0  0  0  0  0
    8.0716   29.5550    2.3139 H   0  0  0  0  0  0  0  0  0  0  0  0
  1  2  2  0
  2  3  1  0
  2  4  1  0
  4  5  2  0
  5  6  1  0
  6  7  2  0
  7  8  1  0
  8  9  1  0
  9 10  2  0
 10 11  1  0
 11 12  2  0
 12 13  1  0
 13 14  1  0
 14 15  1  0
 15 16  2  0
 16 17  1  0
 17 18  2  0
 18 19  1  0
 19 20  2  0
 20 21  1  0
 21 22  1  0
 22 23  1  0
 22 24  1  0
 22 25  1  0
 13 26  2  0
  7 27  1  0
 27 28  2  0
 28  4  1  0
 26  9  1  0
 20 15  1  0
  5 29  1  0
  6 30  1  0
  8 31  1  0
 11 32  1  0
 12 33  1  0
 14 34  1  0
 16 35  1  0
 17 36  1  0
 18 37  1  0
 19 38  1  0
 27 39  1  0
 28 40  1  0
M  CHG  1   3  -1
M  END
>  <meeko>  (9) 
{"is_sidechain": [false], "free_energy": -8.504, "intermolecular_energy": -11.82, "internal_energy": -1.056}

$$$$
