3gbb_ligand
     RDKit          3D

 34 35  0  0  0  0  0  0  0  0999 V2000
   -0.4320   42.1870    1.0190 N   0  0  0  0  0  0  0  0  0  0  0  0
   -0.4860   43.6690    0.7700 C   0  0  1  0  0  0  0  0  0  0  0  0
    0.8870   44.3150    1.0150 C   0  0  0  0  0  0  0  0  0  0  0  0
    1.2600   44.6260    2.4810 C   0  0  2  0  0  0  0  0  0  0  0  0
    0.5660   45.9720    2.9220 C   0  0  0  0  0  0  0  0  0  0  0  0
   -0.7090   45.9460    2.8890 O   0  0  0  0  0  0  0  0  0  0  0  0
    1.3250   46.9300    3.2140 O   0  0  0  0  0  0  0  0  0  0  0  0
    2.7820   44.6480    2.6930 C   0  0  0  0  0  0  0  0  0  0  0  0
    3.0830   43.2770    3.2580 C   0  0  1  0  0  0  0  0  0  0  0  0
    4.3000   43.1640    3.9890 O   0  0  0  0  0  0  0  0  0  0  0  0
    4.3010   43.8090    5.2610 C   0  0  0  0  0  0  0  0  0  0  0  0
    3.1620   43.3060    6.1360 C   0  0  0  0  0  0  0  0  0  0  0  0
    1.8270   43.5550    5.4510 C   0  0  0  0  0  0  0  0  0  0  0  0
    1.8250   42.9550    4.0480 C   0  0  1  0  0  0  0  0  0  0  0  0
    0.7390   43.4980    3.2860 O   0  0  0  0  0  0  0  0  0  0  0  0
   -1.0780   43.9580   -0.6460 C   0  0  0  0  0  0  0  0  0  0  0  0
   -1.3830   42.9740   -1.3630 O   0  0  0  0  0  0  0  0  0  0  0  0
   -1.1780   45.2110   -0.8630 O   0  0  0  0  0  0  0  0  0  0  0  0
    0.4360   41.9640    1.5620 H   0  0  0  0  0  0  0  0  0  0  0  0
   -0.3240   41.6890    0.1300 H   0  0  0  0  0  0  0  0  0  0  0  0
   -1.3150   41.9300    1.4780 H   0  0  0  0  0  0  0  0  0  0  0  0
   -1.1688   44.1409    1.4919 H   0  0  0  0  0  0  0  0  0  0  0  0
    1.6516   43.6329    0.6149 H   0  0  0  0  0  0  0  0  0  0  0  0
    0.8364   45.2947    0.5174 H   0  0  0  0  0  0  0  0  0  0  0  0
    3.3089   44.8043    1.7402 H   0  0  0  0  0  0  0  0  0  0  0  0
    3.1095   45.4638    3.3542 H   0  0  0  0  0  0  0  0  0  0  0  0
    3.2891   42.5402    2.4676 H   0  0  0  0  0  0  0  0  0  0  0  0
    5.2572   43.6056    5.7653 H   0  0  0  0  0  0  0  0  0  0  0  0
    4.1669   44.8893    5.1030 H   0  0  0  0  0  0  0  0  0  0  0  0
    3.2860   42.2269    6.3098 H   0  0  0  0  0  0  0  0  0  0  0  0
    3.1803   43.8443    7.0951 H   0  0  0  0  0  0  0  0  0  0  0  0
    1.0243   43.0920    6.0437 H   0  0  0  0  0  0  0  0  0  0  0  0
    1.6642   44.6401    5.3736 H   0  0  0  0  0  0  0  0  0  0  0  0
    1.7461   41.8676    4.1937 H   0  0  0  0  0  0  0  0  0  0  0  0
  1  2  1  0
  2  3  1  0
  4  3  1  6
  4  5  1  0
  5  6  2  0
  5  7  1  0
  4  8  1  0
  8  9  1  0
  9 10  1  0
 10 11  1  0
 11 12  1  0
 12 13  1  0
 13 14  1  0
 14 15  1  0
  2 16  1  0
 16 17  2  0
 16 18  1  0
 15  4  1  0
 14  9  1  0
  1 19  1  0
  1 20  1  0
  1 21  1  0
  2 22  1  1
  3 23  1  0
  3 24  1  0
  8 25  1  0
  8 26  1  0
  9 27  1  6
 11 28  1  0
 11 29  1  0
 12 30  1  0
 12 31  1  0
 13 32  1  0
 13 33  1  0
 14 34  1  1
M  CHG  3   1   1   7  -1  18  -1
M  END
>  <meeko>  (1) 
{"is_sidechain": [false], "free_energy": -8.446, "intermolecular_energy": -10.667, "internal_energy": -0.42}

$$$$
3gbb_ligand
     RDKit          3D

 34 35  0  0  0  0  0  0  0  0999 V2000
   -0.8820   42.4270    0.7310 N   0  0  0  0  0  0  0  0  0  0  0  0
    0.0740   43.2820    1.5160 C   0  0  1  0  0  0  0  0  0  0  0  0
    1.3810   42.5220    1.7970 C   0  0  0  0  0  0  0  0  0  0  0  0
    1.8800   42.5100    3.2580 C   0  0  2  0  0  0  0  0  0  0  0  0
    1.6480   41.0790    3.8780 C   0  0  0  0  0  0  0  0  0  0  0  0
    1.4130   40.1630    3.0220 O   0  0  0  0  0  0  0  0  0  0  0  0
    1.6750   40.9950    5.1320 O   0  0  0  0  0  0  0  0  0  0  0  0
    1.2360   43.6280    4.0930 C   0  0  0  0  0  0  0  0  0  0  0  0
    2.2830   44.7210    4.0960 C   0  0  1  0  0  0  0  0  0  0  0  0
    2.1860   45.6660    5.1550 O   0  0  0  0  0  0  0  0  0  0  0  0
    2.5460   45.1680    6.4420 C   0  0  0  0  0  0  0  0  0  0  0  0
    3.9540   44.5880    6.4370 C   0  0  0  0  0  0  0  0  0  0  0  0
    4.0510   43.4620    5.4200 C   0  0  0  0  0  0  0  0  0  0  0  0
    3.5850   43.9380    4.0460 C   0  0  1  0  0  0  0  0  0  0  0  0
    3.3290   42.8100    3.2000 O   0  0  0  0  0  0  0  0  0  0  0  0
    0.2810   44.6560    0.8030 C   0  0  0  0  0  0  0  0  0  0  0  0
    1.3270   45.2980    1.0650 O   0  0  0  0  0  0  0  0  0  0  0  0
   -0.6860   44.9220    0.0150 O   0  0  0  0  0  0  0  0  0  0  0  0
   -1.0720   41.5470    1.2670 H   0  0  0  0  0  0  0  0  0  0  0  0
   -0.4370   42.1170   -0.1390 H   0  0  0  0  0  0  0  0  0  0  0  0
   -1.7070   43.0070    0.5340 H   0  0  0  0  0  0  0  0  0  0  0  0
   -0.3559   43.5089    2.5028 H   0  0  0  0  0  0  0  0  0  0  0  0
    1.2311   41.4769    1.4882 H   0  0  0  0  0  0  0  0  0  0  0  0
    2.1551   43.0633    1.2333 H   0  0  0  0  0  0  0  0  0  0  0  0
    0.3038   43.9789    3.6263 H   0  0  0  0  0  0  0  0  0  0  0  0
    0.9599   43.2990    5.1057 H   0  0  0  0  0  0  0  0  0  0  0  0
    2.1672   45.4083    3.2450 H   0  0  0  0  0  0  0  0  0  0  0  0
    2.5001   45.9910    7.1703 H   0  0  0  0  0  0  0  0  0  0  0  0
    1.8419   44.3678    6.7140 H   0  0  0  0  0  0  0  0  0  0  0  0
    4.6723   45.3786    6.1743 H   0  0  0  0  0  0  0  0  0  0  0  0
    4.1837   44.1912    7.4369 H   0  0  0  0  0  0  0  0  0  0  0  0
    5.0962   43.1261    5.3510 H   0  0  0  0  0  0  0  0  0  0  0  0
    3.4058   42.6328    5.7460 H   0  0  0  0  0  0  0  0  0  0  0  0
    4.3917   44.5831    3.6677 H   0  0  0  0  0  0  0  0  0  0  0  0
  1  2  1  0
  2  3  1  0
  4  3  1  6
  4  5  1  0
  5  6  2  0
  5  7  1  0
  4  8  1  0
  8  9  1  0
  9 10  1  0
 10 11  1  0
 11 12  1  0
 12 13  1  0
 13 14  1  0
 14 15  1  0
  2 16  1  0
 16 17  2  0
 16 18  1  0
 15  4  1  0
 14  9  1  0
  1 19  1  0
  1 20  1  0
  1 21  1  0
  2 22  1  1
  3 23  1  0
  3 24  1  0
  8 25  1  0
  8 26  1  0
  9 27  1  6
 11 28  1  0
 11 29  1  0
 12 30  1  0
 12 31  1  0
 13 32  1  0
 13 33  1  0
 14 34  1  6
M  CHG  3   1   1   7  -1  18  -1
M  END
>  <meeko>  (2) 
{"is_sidechain": [false], "free_energy": -7.408, "intermolecular_energy": -9.377, "internal_energy": -0.399}

$$$$
3gbb_ligand
     RDKit          3D

 34 35  0  0  0  0  0  0  0  0999 V2000
   -0.9170   44.8770    2.2470 N   0  0  0  0  0  0  0  0  0  0  0  0
   -0.0350   44.3630    1.1430 C   0  0  1  0  0  0  0  0  0  0  0  0
    0.7970   43.1630    1.6220 C   0  0  0  0  0  0  0  0  0  0  0  0
    1.8810   43.4450    2.6840 C   0  0  2  0  0  0  0  0  0  0  0  0
    2.7090   44.7180    2.2590 C   0  0  0  0  0  0  0  0  0  0  0  0
    3.9750   44.5600    2.2870 O   0  0  0  0  0  0  0  0  0  0  0  0
    2.0520   45.7530    1.9820 O   0  0  0  0  0  0  0  0  0  0  0  0
    2.7710   42.2170    2.9350 C   0  0  0  0  0  0  0  0  0  0  0  0
    2.1820   41.6000    4.1850 C   0  0  1  0  0  0  0  0  0  0  0  0
    3.0530   40.7490    4.9230 O   0  0  0  0  0  0  0  0  0  0  0  0
    4.1020   41.4200    5.6180 C   0  0  0  0  0  0  0  0  0  0  0  0
    3.5530   42.4840    6.5570 C   0  0  0  0  0  0  0  0  0  0  0  0
    2.7420   43.5040    5.7740 C   0  0  0  0  0  0  0  0  0  0  0  0
    1.6640   42.8090    4.9460 C   0  0  1  0  0  0  0  0  0  0  0  0
    1.1590   43.7080    3.9500 O   0  0  0  0  0  0  0  0  0  0  0  0
   -0.8840   44.0750   -0.1360 C   0  0  0  0  0  0  0  0  0  0  0  0
   -1.2270   42.8880   -0.3550 O   0  0  0  0  0  0  0  0  0  0  0  0
   -1.1220   45.1460   -0.7880 O   0  0  0  0  0  0  0  0  0  0  0  0
   -0.7080   45.8920    2.4060 H   0  0  0  0  0  0  0  0  0  0  0  0
   -0.6740   44.4160    3.1300 H   0  0  0  0  0  0  0  0  0  0  0  0
   -1.8860   44.6650    1.9780 H   0  0  0  0  0  0  0  0  0  0  0  0
    0.6951   45.1361    0.8614 H   0  0  0  0  0  0  0  0  0  0  0  0
    0.1011   42.4238    2.0454 H   0  0  0  0  0  0  0  0  0  0  0  0
    1.3479   42.8225    0.7329 H   0  0  0  0  0  0  0  0  0  0  0  0
    2.7199   41.5155    2.0892 H   0  0  0  0  0  0  0  0  0  0  0  0
    3.8344   42.4755    3.0463 H   0  0  0  0  0  0  0  0  0  0  0  0
    1.3897   40.8730    3.9532 H   0  0  0  0  0  0  0  0  0  0  0  0
    4.6709   40.6838    6.2047 H   0  0  0  0  0  0  0  0  0  0  0  0
    4.7491   41.9122    4.8771 H   0  0  0  0  0  0  0  0  0  0  0  0
    2.9082   42.0071    7.3099 H   0  0  0  0  0  0  0  0  0  0  0  0
    4.3921   42.9947    7.0521 H   0  0  0  0  0  0  0  0  0  0  0  0
    2.2644   44.2029    6.4765 H   0  0  0  0  0  0  0  0  0  0  0  0
    3.4153   44.0486    5.0958 H   0  0  0  0  0  0  0  0  0  0  0  0
    0.8965   42.4923    5.6676 H   0  0  0  0  0  0  0  0  0  0  0  0
  1  2  1  0
  2  3  1  0
  4  3  1  6
  4  5  1  0
  5  6  2  0
  5  7  1  0
  4  8  1  0
  8  9  1  0
  9 10  1  0
 10 11  1  0
 11 12  1  0
 12 13  1  0
 13 14  1  0
 14 15  1  0
  2 16  1  0
 16 17  2  0
 16 18  1  0
 15  4  1  0
 14  9  1  0
  1 19  1  0
  1 20  1  0
  1 21  1  0
  2 22  1  6
  3 23  1  0
  3 24  1  0
  8 25  1  0
  8 26  1  0
  9 27  1  6
 11 28  1  0
 11 29  1  0
 12 30  1  0
 12 31  1  0
 13 32  1  0
 13 33  1  0
 14 34  1  1
M  CHG  3   1   1   7  -1  18  -1
M  END
>  <meeko>  (3) 
{"is_sidechain": [false], "free_energy": -6.804, "intermolecular_energy": -8.99, "internal_energy": -0.023}

$$$$
3gbb_ligand
     RDKit          3D

 34 35  0  0  0  0  0  0  0  0999 V2000
    0.8840   39.9930    5.4910 N   0  0  0  0  0  0  0  0  0  0  0  0
    1.6230   40.8420    4.4930 C   0  0  1  0  0  0  0  0  0  0  0  0
    2.5950   41.7980    5.2030 C   0  0  0  0  0  0  0  0  0  0  0  0
    2.5530   43.2800    4.7750 C   0  0  2  0  0  0  0  0  0  0  0  0
    3.2960   44.1570    5.8550 C   0  0  0  0  0  0  0  0  0  0  0  0
    2.7270   45.2690    6.1170 O   0  0  0  0  0  0  0  0  0  0  0  0
    4.3750   43.7000    6.3100 O   0  0  0  0  0  0  0  0  0  0  0  0
    1.1170   43.7600    4.5100 C   0  0  0  0  0  0  0  0  0  0  0  0
    0.9830   43.6680    3.0050 C   0  0  1  0  0  0  0  0  0  0  0  0
   -0.0370   44.4760    2.4260 O   0  0  0  0  0  0  0  0  0  0  0  0
    0.2320   45.8760    2.4260 C   0  0  0  0  0  0  0  0  0  0  0  0
    1.5500   46.1860    1.7310 C   0  0  0  0  0  0  0  0  0  0  0  0
    2.6910   45.4600    2.4250 C   0  0  0  0  0  0  0  0  0  0  0  0
    2.3930   43.9650    2.5230 C   0  0  1  0  0  0  0  0  0  0  0  0
    3.2680   43.3550    3.4810 O   0  0  0  0  0  0  0  0  0  0  0  0
    2.2980   39.9400    3.4120 C   0  0  0  0  0  0  0  0  0  0  0  0
    2.4810   40.4320    2.2720 O   0  0  0  0  0  0  0  0  0  0  0  0
    2.5850   38.7880    3.8790 O   0  0  0  0  0  0  0  0  0  0  0  0
    1.5270   39.7650    6.2870 H   0  0  0  0  0  0  0  0  0  0  0  0
    0.6500   39.0880    5.0710 H   0  0  0  0  0  0  0  0  0  0  0  0
    0.0330   40.5090    5.7480 H   0  0  0  0  0  0  0  0  0  0  0  0
    0.9119   41.4870    3.9561 H   0  0  0  0  0  0  0  0  0  0  0  0
    2.3748   41.7566    6.2799 H   0  0  0  0  0  0  0  0  0  0  0  0
    3.5991   41.4467    4.9230 H   0  0  0  0  0  0  0  0  0  0  0  0
    0.3862   43.1074    5.0100 H   0  0  0  0  0  0  0  0  0  0  0  0
    0.9270   44.7728    4.8949 H   0  0  0  0  0  0  0  0  0  0  0  0
    0.6229   42.6805    2.6807 H   0  0  0  0  0  0  0  0  0  0  0  0
   -0.5816   46.3972    1.9002 H   0  0  0  0  0  0  0  0  0  0  0  0
    0.3016   46.2161    3.4698 H   0  0  0  0  0  0  0  0  0  0  0  0
    1.4943   45.8577    0.6826 H   0  0  0  0  0  0  0  0  0  0  0  0
    1.7336   47.2697    1.7751 H   0  0  0  0  0  0  0  0  0  0  0  0
    3.6170   45.6076    1.8498 H   0  0  0  0  0  0  0  0  0  0  0  0
    2.8063   45.8670    3.4404 H   0  0  0  0  0  0  0  0  0  0  0  0
    2.5284   43.5699    1.5054 H   0  0  0  0  0  0  0  0  0  0  0  0
  1  2  1  0
  2  3  1  0
  4  3  1  1
  4  5  1  0
  5  6  2  0
  5  7  1  0
  4  8  1  0
  8  9  1  0
  9 10  1  0
 10 11  1  0
 11 12  1  0
 12 13  1  0
 13 14  1  0
 14 15  1  0
  2 16  1  0
 16 17  2  0
 16 18  1  0
 15  4  1  0
 14  9  1  0
  1 19  1  0
  1 20  1  0
  1 21  1  0
  2 22  1  6
  3 23  1  0
  3 24  1  0
  8 25  1  0
  8 26  1  0
  9 27  1  1
 11 28  1  0
 11 29  1  0
 12 30  1  0
 12 31  1  0
 13 32  1  0
 13 33  1  0
 14 34  1  6
M  CHG  3   1   1   7  -1  18  -1
M  END
>  <meeko>  (4) 
{"is_sidechain": [false], "free_energy": -6.474, "intermolecular_energy": -8.243, "internal_energy": -0.354}

$$$$
3gbb_ligand
     RDKit          3D

 34 35  0  0  0  0  0  0  0  0999 V2000
    1.3060   47.9700    3.1940 N   0  0  0  0  0  0  0  0  0  0  0  0
    1.3740   46.4710    3.2890 C   0  0  1  0  0  0  0  0  0  0  0  0
    1.4240   46.0170    4.7570 C   0  0  0  0  0  0  0  0  0  0  0  0
    2.1570   44.6910    5.0520 C   0  0  2  0  0  0  0  0  0  0  0  0
    3.2720   44.9410    6.1390 C   0  0  0  0  0  0  0  0  0  0  0  0
    3.1620   46.0470    6.7660 O   0  0  0  0  0  0  0  0  0  0  0  0
    4.1660   44.0630    6.2450 O   0  0  0  0  0  0  0  0  0  0  0  0
    2.7130   44.0460    3.7730 C   0  0  0  0  0  0  0  0  0  0  0  0
    1.6730   43.0050    3.4180 C   0  0  1  0  0  0  0  0  0  0  0  0
    2.1220   41.9440    2.5810 O   0  0  0  0  0  0  0  0  0  0  0  0
    2.9990   41.0120    3.2090 C   0  0  0  0  0  0  0  0  0  0  0  0
    2.3670   40.4110    4.4560 C   0  0  0  0  0  0  0  0  0  0  0  0
    2.0160   41.5100    5.4460 C   0  0  0  0  0  0  0  0  0  0  0  0
    1.1490   42.5750    4.7780 C   0  0  1  0  0  0  0  0  0  0  0  0
    1.1320   43.7630    5.5800 O   0  0  0  0  0  0  0  0  0  0  0  0
    0.2140   45.8250    2.4660 C   0  0  0  0  0  0  0  0  0  0  0  0
   -0.8950   45.6780    3.0350 O   0  0  0  0  0  0  0  0  0  0  0  0
    0.5860   45.5420    1.2790 O   0  0  0  0  0  0  0  0  0  0  0  0
    0.9170   48.2350    2.2580 H   0  0  0  0  0  0  0  0  0  0  0  0
    2.2530   48.3620    3.2090 H   0  0  0  0  0  0  0  0  0  0  0  0
    0.7630   48.2950    4.0040 H   0  0  0  0  0  0  0  0  0  0  0  0
    2.3108   46.1136    2.8365 H   0  0  0  0  0  0  0  0  0  0  0  0
    1.9247   46.8091    5.3332 H   0  0  0  0  0  0  0  0  0  0  0  0
    0.3760   45.8345    5.0372 H   0  0  0  0  0  0  0  0  0  0  0  0
    2.8136   44.7905    2.9695 H   0  0  0  0  0  0  0  0  0  0  0  0
    3.7165   43.6174    3.9120 H   0  0  0  0  0  0  0  0  0  0  0  0
    0.8846   43.4131    2.7684 H   0  0  0  0  0  0  0  0  0  0  0  0
    3.2304   40.2038    2.4996 H   0  0  0  0  0  0  0  0  0  0  0  0
    3.9151   41.5435    3.5061 H   0  0  0  0  0  0  0  0  0  0  0  0
    1.4521   39.8689    4.1749 H   0  0  0  0  0  0  0  0  0  0  0  0
    3.0829   39.7197    4.9247 H   0  0  0  0  0  0  0  0  0  0  0  0
    1.4649   41.0728    6.2917 H   0  0  0  0  0  0  0  0  0  0  0  0
    2.9455   41.9792    5.8008 H   0  0  0  0  0  0  0  0  0  0  0  0
    0.1549   42.1177    4.6655 H   0  0  0  0  0  0  0  0  0  0  0  0
  1  2  1  0
  2  3  1  0
  4  3  1  6
  4  5  1  0
  5  6  2  0
  5  7  1  0
  4  8  1  0
  8  9  1  0
  9 10  1  0
 10 11  1  0
 11 12  1  0
 12 13  1  0
 13 14  1  0
 14 15  1  0
  2 16  1  0
 16 17  2  0
 16 18  1  0
 15  4  1  0
 14  9  1  0
  1 19  1  0
  1 20  1  0
  1 21  1  0
  2 22  1  6
  3 23  1  0
  3 24  1  0
  8 25  1  0
  8 26  1  0
  9 27  1  6
 11 28  1  0
 11 29  1  0
 12 30  1  0
 12 31  1  0
 13 32  1  0
 13 33  1  0
 14 34  1  6
M  CHG  3   1   1   7  -1  18  -1
M  END
>  <meeko>  (5) 
{"is_sidechain": [false], "free_energy": -6.412, "intermolecular_energy": -8.38, "internal_energy": -0.139}

$$$$
3gbb_ligand
     RDKit          3D

 34 35  0  0  0  0  0  0  0  0999 V2000
    1.3410   47.1650    5.9430 N   0  0  0  0  0  0  0  0  0  0  0  0
    2.0010   45.8320    5.7260 C   0  0  1  0  0  0  0  0  0  0  0  0
    2.1910   45.5530    4.2260 C   0  0  0  0  0  0  0  0  0  0  0  0
    1.6160   44.2260    3.6860 C   0  0  2  0  0  0  0  0  0  0  0  0
    0.3600   44.5300    2.7820 C   0  0  0  0  0  0  0  0  0  0  0  0
   -0.5220   45.2690    3.3320 O   0  0  0  0  0  0  0  0  0  0  0  0
    0.3360   43.9890    1.6470 O   0  0  0  0  0  0  0  0  0  0  0  0
    1.3040   43.2330    4.8170 C   0  0  0  0  0  0  0  0  0  0  0  0
    2.5100   42.3180    4.8310 C   0  0  1  0  0  0  0  0  0  0  0  0
    2.3080   41.0410    5.4270 O   0  0  0  0  0  0  0  0  0  0  0  0
    1.5000   40.1440    4.6690 C   0  0  0  0  0  0  0  0  0  0  0  0
    2.0610   39.9420    3.2680 C   0  0  0  0  0  0  0  0  0  0  0  0
    2.1430   41.2750    2.5420 C   0  0  0  0  0  0  0  0  0  0  0  0
    2.9280   42.2900    3.3700 C   0  0  1  0  0  0  0  0  0  0  0  0
    2.6910   43.6130    2.8730 O   0  0  0  0  0  0  0  0  0  0  0  0
    3.3200   45.7400    6.5590 C   0  0  0  0  0  0  0  0  0  0  0  0
    3.8790   44.6200    6.6440 O   0  0  0  0  0  0  0  0  0  0  0  0
    3.6480   46.8750    7.0380 O   0  0  0  0  0  0  0  0  0  0  0  0
    2.0790   47.9100    5.9720 H   0  0  0  0  0  0  0  0  0  0  0  0
    0.9030   47.1900    6.8690 H   0  0  0  0  0  0  0  0  0  0  0  0
    0.6380   47.2730    5.2020 H   0  0  0  0  0  0  0  0  0  0  0  0
    1.3453   45.0300    6.0959 H   0  0  0  0  0  0  0  0  0  0  0  0
    1.7116   46.3733    3.6717 H   0  0  0  0  0  0  0  0  0  0  0  0
    3.2789   45.4741    4.0837 H   0  0  0  0  0  0  0  0  0  0  0  0
    1.1961   43.7551    5.7792 H   0  0  0  0  0  0  0  0  0  0  0  0
    0.3590   42.6918    4.6617 H   0  0  0  0  0  0  0  0  0  0  0  0
    3.3056   42.6909    5.4928 H   0  0  0  0  0  0  0  0  0  0  0  0
    1.4637   39.1726    5.1838 H   0  0  0  0  0  0  0  0  0  0  0  0
    0.4922   40.5758    4.5801 H   0  0  0  0  0  0  0  0  0  0  0  0
    3.0673   39.5035    3.3386 H   0  0  0  0  0  0  0  0  0  0  0  0
    1.3974   39.2667    2.7079 H   0  0  0  0  0  0  0  0  0  0  0  0
    2.6471   41.1298    1.5752 H   0  0  0  0  0  0  0  0  0  0  0  0
    1.1235   41.6572    2.3856 H   0  0  0  0  0  0  0  0  0  0  0  0
    3.9816   41.9842    3.2903 H   0  0  0  0  0  0  0  0  0  0  0  0
  1  2  1  0
  2  3  1  0
  4  3  1  1
  4  5  1  0
  5  6  2  0
  5  7  1  0
  4  8  1  0
  8  9  1  0
  9 10  1  0
 10 11  1  0
 11 12  1  0
 12 13  1  0
 13 14  1  0
 14 15  1  0
  2 16  1  0
 16 17  2  0
 16 18  1  0
 15  4  1  0
 14  9  1  0
  1 19  1  0
  1 20  1  0
  1 21  1  0
  2 22  1  1
  3 23  1  0
  3 24  1  0
  8 25  1  0
  8 26  1  0
  9 27  1  1
 11 28  1  0
 11 29  1  0
 12 30  1  0
 12 31  1  0
 13 32  1  0
 13 33  1  0
 14 34  1  1
M  CHG  3   1   1   7  -1  18  -1
M  END
>  <meeko>  (6) 
{"is_sidechain": [false], "free_energy": -6.248, "intermolecular_energy": -7.94, "internal_energy": -0.371}

$$$$
3gbb_ligand
     RDKit          3D

 34 35  0  0  0  0  0  0  0  0999 V2000
   -0.6420   44.9420   -0.1230 N   0  0  0  0  0  0  0  0  0  0  0  0
    0.1110   44.2370    0.9710 C   0  0  1  0  0  0  0  0  0  0  0  0
   -0.2250   44.8440    2.3430 C   0  0  0  0  0  0  0  0  0  0  0  0
    0.9610   45.3590    3.1870 C   0  0  2  0  0  0  0  0  0  0  0  0
    1.4080   46.7730    2.6520 C   0  0  0  0  0  0  0  0  0  0  0  0
    2.2180   46.7360    1.6680 O   0  0  0  0  0  0  0  0  0  0  0  0
    0.9620   47.7760    3.2660 O   0  0  0  0  0  0  0  0  0  0  0  0
    2.1190   44.3490    3.2260 C   0  0  0  0  0  0  0  0  0  0  0  0
    1.9240   43.6330    4.5450 C   0  0  1  0  0  0  0  0  0  0  0  0
    3.0790   42.9920    5.0760 O   0  0  0  0  0  0  0  0  0  0  0  0
    4.0790   43.8750    5.5790 C   0  0  0  0  0  0  0  0  0  0  0  0
    3.5120   44.8090    6.6380 C   0  0  0  0  0  0  0  0  0  0  0  0
    2.3710   45.6270    6.0570 C   0  0  0  0  0  0  0  0  0  0  0  0
    1.3220   44.7130    5.4280 C   0  0  1  0  0  0  0  0  0  0  0  0
    0.4580   45.4760    4.5750 O   0  0  0  0  0  0  0  0  0  0  0  0
   -0.1270   42.6960    0.8850 C   0  0  0  0  0  0  0  0  0  0  0  0
    0.6650   41.9470    1.5060 O   0  0  0  0  0  0  0  0  0  0  0  0
   -1.1480   42.4210    0.1710 O   0  0  0  0  0  0  0  0  0  0  0  0
   -0.6960   44.3130   -0.9590 H   0  0  0  0  0  0  0  0  0  0  0  0
   -0.1100   45.7590   -0.4400 H   0  0  0  0  0  0  0  0  0  0  0  0
   -1.5470   45.2250    0.2720 H   0  0  0  0  0  0  0  0  0  0  0  0
    1.1918   44.3896    0.8349 H   0  0  0  0  0  0  0  0  0  0  0  0
   -0.9057   45.6914    2.1740 H   0  0  0  0  0  0  0  0  0  0  0  0
   -0.6545   44.0160    2.9261 H   0  0  0  0  0  0  0  0  0  0  0  0
    2.0540   43.6446    2.3836 H   0  0  0  0  0  0  0  0  0  0  0  0
    3.1059   44.8275    3.1417 H   0  0  0  0  0  0  0  0  0  0  0  0
    1.2716   42.7529    4.4459 H   0  0  0  0  0  0  0  0  0  0  0  0
    4.8908   43.2805    6.0235 H   0  0  0  0  0  0  0  0  0  0  0  0
    4.4544   44.4850    4.7441 H   0  0  0  0  0  0  0  0  0  0  0  0
    3.1388   44.2146    7.4850 H   0  0  0  0  0  0  0  0  0  0  0  0
    4.3056   45.4901    6.9790 H   0  0  0  0  0  0  0  0  0  0  0  0
    1.9030   46.2161    6.8595 H   0  0  0  0  0  0  0  0  0  0  0  0
    2.7722   46.2945    5.2801 H   0  0  0  0  0  0  0  0  0  0  0  0
    0.7909   44.2491    6.2722 H   0  0  0  0  0  0  0  0  0  0  0  0
  1  2  1  0
  2  3  1  0
  4  3  1  6
  4  5  1  0
  5  6  2  0
  5  7  1  0
  4  8  1  0
  8  9  1  0
  9 10  1  0
 10 11  1  0
 11 12  1  0
 12 13  1  0
 13 14  1  0
 14 15  1  0
  2 16  1  0
 16 17  2  0
 16 18  1  0
 15  4  1  0
 14  9  1  0
  1 19  1  0
  1 20  1  0
  1 21  1  0
  2 22  1  6
  3 23  1  0
  3 24  1  0
  8 25  1  0
  8 26  1  0
  9 27  1  6
 11 28  1  0
 11 29  1  0
 12 30  1  0
 12 31  1  0
 13 32  1  0
 13 33  1  0
 14 34  1  1
M  CHG  3   1   1   7  -1  18  -1
M  END
>  <meeko>  (7) 
{"is_sidechain": [false], "free_energy": -6.188, "intermolecular_energy": -7.865, "internal_energy": -0.371}

$$$$
3gbb_ligand
     RDKit          3D

 34 35  0  0  0  0  0  0  0  0999 V2000
    0.8400   40.1240    5.4780 N   0  0  0  0  0  0  0  0  0  0  0  0
    1.5170   41.0390    4.4960 C   0  0  1  0  0  0  0  0  0  0  0  0
    2.4520   42.0210    5.2200 C   0  0  0  0  0  0  0  0  0  0  0  0
    2.6700   43.3970    4.5540 C   0  0  2  0  0  0  0  0  0  0  0  0
    4.0170   43.3740    3.7350 C   0  0  0  0  0  0  0  0  0  0  0  0
    5.0420   43.0270    4.4110 O   0  0  0  0  0  0  0  0  0  0  0  0
    3.9540   43.7340    2.5320 O   0  0  0  0  0  0  0  0  0  0  0  0
    2.6190   44.5430    5.5760 C   0  0  0  0  0  0  0  0  0  0  0  0
    1.2080   45.0760    5.4440 C   0  0  1  0  0  0  0  0  0  0  0  0
    1.0070   46.4100    5.8990 O   0  0  0  0  0  0  0  0  0  0  0  0
    1.5820   47.4210    5.0730 C   0  0  0  0  0  0  0  0  0  0  0  0
    1.0810   47.3160    3.6400 C   0  0  0  0  0  0  0  0  0  0  0  0
    1.4210   45.9500    3.0660 C   0  0  0  0  0  0  0  0  0  0  0  0
    0.8960   44.8410    3.9760 C   0  0  1  0  0  0  0  0  0  0  0  0
    1.5230   43.5970    3.6390 O   0  0  0  0  0  0  0  0  0  0  0  0
    2.2180   40.2060    3.3760 C   0  0  0  0  0  0  0  0  0  0  0  0
    2.2160   40.6740    2.2120 O   0  0  0  0  0  0  0  0  0  0  0  0
    2.7210   39.1300    3.8410 O   0  0  0  0  0  0  0  0  0  0  0  0
    1.1950   39.1490    5.3360 H   0  0  0  0  0  0  0  0  0  0  0  0
   -0.1630   40.0730    5.2710 H   0  0  0  0  0  0  0  0  0  0  0  0
    1.0010   40.5190    6.4120 H   0  0  0  0  0  0  0  0  0  0  0  0
    0.7647   41.6628    3.9911 H   0  0  0  0  0  0  0  0  0  0  0  0
    2.0353   42.1991    6.2223 H   0  0  0  0  0  0  0  0  0  0  0  0
    3.4399   41.5373    5.2096 H   0  0  0  0  0  0  0  0  0  0  0  0
    2.8041   44.1697    6.5940 H   0  0  0  0  0  0  0  0  0  0  0  0
    3.3847   45.3116    5.3945 H   0  0  0  0  0  0  0  0  0  0  0  0
    0.5058   44.5599    6.1153 H   0  0  0  0  0  0  0  0  0  0  0  0
    1.3123   48.4086    5.4753 H   0  0  0  0  0  0  0  0  0  0  0  0
    2.6738   47.2869    5.0696 H   0  0  0  0  0  0  0  0  0  0  0  0
   -0.0100   47.4556    3.6250 H   0  0  0  0  0  0  0  0  0  0  0  0
    1.5664   48.0931    3.0313 H   0  0  0  0  0  0  0  0  0  0  0  0
    0.9609   45.8505    2.0718 H   0  0  0  0  0  0  0  0  0  0  0  0
    2.5145   45.8589    2.9889 H   0  0  0  0  0  0  0  0  0  0  0  0
   -0.1937   44.8270    3.8263 H   0  0  0  0  0  0  0  0  0  0  0  0
  1  2  1  0
  2  3  1  0
  4  3  1  1
  4  5  1  0
  5  6  2  0
  5  7  1  0
  4  8  1  0
  8  9  1  0
  9 10  1  0
 10 11  1  0
 11 12  1  0
 12 13  1  0
 13 14  1  0
 14 15  1  0
  2 16  1  0
 16 17  2  0
 16 18  1  0
 15  4  1  0
 14  9  1  0
  1 19  1  0
  1 20  1  0
  1 21  1  0
  2 22  1  6
  3 23  1  0
  3 24  1  0
  8 25  1  0
  8 26  1  0
  9 27  1  1
 11 28  1  0
 11 29  1  0
 12 30  1  0
 12 31  1  0
 13 32  1  0
 13 33  1  0
 14 34  1  1
M  CHG  3   1   1   7  -1  18  -1
M  END
>  <meeko>  (8) 
{"is_sidechain": [false], "free_energy": -6.187, "intermolecular_energy": -7.706, "internal_energy": -0.529}

$$$$
3gbb_ligand
     RDKit          3D

 34 35  0  0  0  0  0  0  0  0999 V2000
    4.4620   41.0780    6.3020 N   0  0  0  0  0  0  0  0  0  0  0  0
    3.2450   41.7080    5.6820 C   0  0  1  0  0  0  0  0  0  0  0  0
    3.6280   42.9600    4.8760 C   0  0  0  0  0  0  0  0  0  0  0  0
    2.4690   43.8400    4.3610 C   0  0  2  0  0  0  0  0  0  0  0  0
    1.9160   44.7210    5.5460 C   0  0  0  0  0  0  0  0  0  0  0  0
    2.8130   45.1830    6.3270 O   0  0  0  0  0  0  0  0  0  0  0  0
    0.6670   44.8410    5.6260 O   0  0  0  0  0  0  0  0  0  0  0  0
    1.3720   43.0040    3.6830 C   0  0  0  0  0  0  0  0  0  0  0  0
    1.6840   43.1350    2.2080 C   0  0  1  0  0  0  0  0  0  0  0  0
    0.5990   42.8790    1.3230 O   0  0  0  0  0  0  0  0  0  0  0  0
   -0.4150   43.8810    1.3080 C   0  0  0  0  0  0  0  0  0  0  0  0
    0.1630   45.2500    0.9830 C   0  0  0  0  0  0  0  0  0  0  0  0
    1.2220   45.6270    2.0070 C   0  0  0  0  0  0  0  0  0  0  0  0
    2.2790   44.5300    2.1130 C   0  0  1  0  0  0  0  0  0  0  0  0
    3.0470   44.7080    3.3100 O   0  0  0  0  0  0  0  0  0  0  0  0
    2.4460   40.6460    4.8610 C   0  0  0  0  0  0  0  0  0  0  0  0
    3.0060   40.1420    3.8580 O   0  0  0  0  0  0  0  0  0  0  0  0
    1.2950   40.4350    5.3670 O   0  0  0  0  0  0  0  0  0  0  0  0
    4.1900   40.1610    6.7300 H   0  0  0  0  0  0  0  0  0  0  0  0
    4.7880   41.6510    7.0870 H   0  0  0  0  0  0  0  0  0  0  0  0
    5.1770   41.0240    5.5660 H   0  0  0  0  0  0  0  0  0  0  0  0
    2.5668   42.0607    6.4729 H   0  0  0  0  0  0  0  0  0  0  0  0
    4.2620   43.5882    5.5190 H   0  0  0  0  0  0  0  0  0  0  0  0
    4.1227   42.5783    3.9707 H   0  0  0  0  0  0  0  0  0  0  0  0
    1.4247   41.9531    4.0036 H   0  0  0  0  0  0  0  0  0  0  0  0
    0.3573   43.3446    3.9368 H   0  0  0  0  0  0  0  0  0  0  0  0
    2.3757   42.3537    1.8598 H   0  0  0  0  0  0  0  0  0  0  0  0
   -1.1654   43.6195    0.5474 H   0  0  0  0  0  0  0  0  0  0  0  0
   -0.8720   43.9263    2.3075 H   0  0  0  0  0  0  0  0  0  0  0  0
    0.6179   45.2244   -0.0182 H   0  0  0  0  0  0  0  0  0  0  0  0
   -0.6443   45.9968    1.0085 H   0  0  0  0  0  0  0  0  0  0  0  0
    1.7048   46.5662    1.6992 H   0  0  0  0  0  0  0  0  0  0  0  0
    0.7397   45.7518    2.9877 H   0  0  0  0  0  0  0  0  0  0  0  0
    2.8842   44.6133    1.1982 H   0  0  0  0  0  0  0  0  0  0  0  0
  1  2  1  0
  2  3  1  0
  4  3  1  1
  4  5  1  0
  5  6  2  0
  5  7  1  0
  4  8  1  0
  8  9  1  0
  9 10  1  0
 10 11  1  0
 11 12  1  0
 12 13  1  0
 13 14  1  0
 14 15  1  0
  2 16  1  0
 16 17  2  0
 16 18  1  0
 15  4  1  0
 14  9  1  0
  1 19  1  0
  1 20  1  0
  1 21  1  0
  2 22  1  1
  3 23  1  0
  3 24  1  0
  8 25  1  0
  8 26  1  0
  9 27  1  6
 11 28  1  0
 11 29  1  0
 12 30  1  0
 12 31  1  0
 13 32  1  0
 13 33  1  0
 14 34  1  6
M  CHG  3   1   1   7  -1  18  -1
M  END
>  <meeko>  (9) 
{"is_sidechain": [false], "free_energy": -6.125, "intermolecular_energy": -8.673, "internal_energy": 0.518}

$$$$
