3uri_ligand
     RDKit          3D

131134  0  0  0  0  0  0  0  0999 V2000
    8.7760   27.2680   22.6930 C   0  0  0  0  0  0  0  0  0  0  0  0
    7.4710   26.8450   21.5090 S   0  0  0  0  0  0  0  0  0  0  0  0
    6.2570   26.1850   22.6920 C   0  0  0  0  0  0  0  0  0  0  0  0
    4.9320   25.9180   21.9740 C   0  0  0  0  0  0  0  0  0  0  0  0
    4.4270   27.0680   21.0890 C   0  0  2  0  0  0  0  0  0  0  0  0
    3.9230   28.2280   21.9000 N   0  0  0  0  0  0  0  0  0  0  0  0
    4.6960   29.4880   21.9310 C   0  0  0  0  0  0  0  0  0  0  0  0
    5.3040   29.8970   20.5520 C   0  0  2  0  0  0  0  0  0  0  0  0
    6.2160   31.1520   20.5610 C   0  0  0  0  0  0  0  0  0  0  0  0
    7.6060   31.0050   19.9790 C   0  0  0  0  0  0  0  0  0  0  0  0
    8.0070   29.8700   19.2670 C   0  0  0  0  0  0  0  0  0  0  0  0
    9.2920   29.7910   18.7240 C   0  0  0  0  0  0  0  0  0  0  0  0
   10.1940   30.8380   18.8980 C   0  0  0  0  0  0  0  0  0  0  0  0
    9.8180   31.9620   19.6260 C   0  0  0  0  0  0  0  0  0  0  0  0
    8.5350   32.0430   20.1680 C   0  0  0  0  0  0  0  0  0  0  0  0
    4.2820   30.0430   19.4980 N   0  0  0  0  0  0  0  0  0  0  0  0
    4.4520   29.5220   18.2270 C   0  0  0  0  0  0  0  0  0  0  0  0
    5.3970   28.7920   17.9410 O   0  0  0  0  0  0  0  0  0  0  0  0
    3.4710   30.0560   17.1660 C   0  0  2  0  0  0  0  0  0  0  0  0
    2.7830   28.8560   16.5040 C   0  0  0  0  0  0  0  0  0  0  0  0
    3.3510   27.6380   17.0160 O   0  0  0  0  0  0  0  0  0  0  0  0
    4.1610   30.8550   16.1460 N   0  0  0  0  0  0  0  0  0  0  0  0
    4.0040   32.2170   16.0670 C   0  0  0  0  0  0  0  0  0  0  0  0
    3.2570   32.8240   16.8350 O   0  0  0  0  0  0  0  0  0  0  0  0
    4.7530   32.9190   14.8960 C   0  0  2  0  0  0  0  0  0  0  0  0
    6.0600   33.6190   15.3140 C   0  0  0  0  0  0  0  0  0  0  0  0
    6.9050   32.9390   16.4150 C   0  0  0  0  0  0  0  0  0  0  0  0
    8.0840   32.1470   15.8490 C   0  0  0  0  0  0  0  0  0  0  0  0
    7.3830   33.8970   17.5060 C   0  0  0  0  0  0  0  0  0  0  0  0
    3.7920   33.7580   14.1760 N   0  0  0  0  0  0  0  0  0  0  0  0
    4.0290   34.2130   12.8940 C   0  0  0  0  0  0  0  0  0  0  0  0
    4.9420   33.7940   12.1850 O   0  0  0  0  0  0  0  0  0  0  0  0
    3.1570   35.4010   12.4350 C   0  0  2  0  0  0  0  0  0  0  0  0
    2.1230   34.9100   11.3950 C   0  0  0  0  0  0  0  0  0  0  0  0
    0.7120   35.0530   11.8700 C   0  0  0  0  0  0  0  0  0  0  0  0
   -0.2630   35.9990   11.6390 C   0  0  0  0  0  0  0  0  0  0  0  0
   -1.4580   35.5960   12.1630 N   0  0  0  0  0  0  0  0  0  0  0  0
   -1.1950   34.5000   12.8380 C   0  0  0  0  0  0  0  0  0  0  0  0
    0.1140   34.1360   12.7040 N   0  0  0  0  0  0  0  0  0  0  0  0
    3.9040   36.6190   12.0220 N   0  0  0  0  0  0  0  0  0  0  0  0
    3.6100   37.8720   12.5310 C   0  0  0  0  0  0  0  0  0  0  0  0
    2.5370   38.1390   13.0610 O   0  0  0  0  0  0  0  0  0  0  0  0
    4.7170   38.9210   12.2770 C   0  0  2  0  0  0  0  0  0  0  0  0
    4.5520   40.1940   13.0990 C   0  0  0  0  0  0  0  0  0  0  0  0
    3.7080   41.0920   12.2130 C   0  0  0  0  0  0  0  0  0  0  0  0
    4.2870   40.8620   10.8350 C   0  0  0  0  0  0  0  0  0  0  0  0
    4.6690   39.4100   10.8320 N   0  0  0  0  0  0  0  0  0  0  0  0
    3.3290   26.6090   20.0890 C   0  0  0  0  0  0  0  0  0  0  0  0
    3.3760   25.5470   19.4730 O   0  0  0  0  0  0  0  0  0  0  0  0
    2.2340   27.4530   20.0020 N   0  0  0  0  0  0  0  0  0  0  0  0
    0.9650   27.0560   19.3740 C   0  0  1  0  0  0  0  0  0  0  0  0
    0.1160   26.0930   20.1930 C   0  0  0  0  0  0  0  0  0  0  0  0
    0.1990   28.3210   18.9190 C   0  0  0  0  0  0  0  0  0  0  0  0
    0.5510   29.4510   19.2570 O   0  0  0  0  0  0  0  0  0  0  0  0
   -0.9210   28.0940   18.1410 N   0  0  0  0  0  0  0  0  0  0  0  0
   -2.0780   29.0250   18.2240 C   0  0  1  0  0  0  0  0  0  0  0  0
   -2.4610   29.5500   16.8400 C   0  0  0  0  0  0  0  0  0  0  0  0
   -1.3200   30.1240   16.0830 C   0  0  0  0  0  0  0  0  0  0  0  0
   -0.6420   29.7270   14.9530 C   0  0  0  0  0  0  0  0  0  0  0  0
    0.3480   30.6580   14.7240 N   0  0  0  0  0  0  0  0  0  0  0  0
    0.3160   31.6100   15.6590 C   0  0  0  0  0  0  0  0  0  0  0  0
   -0.6850   31.2970   16.4830 N   0  0  0  0  0  0  0  0  0  0  0  0
   -3.3140   28.3510   18.8920 C   0  0  0  0  0  0  0  0  0  0  0  0
   -3.6720   27.2260   18.4660 O   0  0  0  0  0  0  0  0  0  0  0  0
   -3.8080   28.9820   19.8830 O   0  0  0  0  0  0  0  0  0  0  0  0
    8.3955   27.1447   23.7177 H   0  0  0  0  0  0  0  0  0  0  0  0
    9.6393   26.6037   22.5400 H   0  0  0  0  0  0  0  0  0  0  0  0
    9.0854   28.3124   22.5400 H   0  0  0  0  0  0  0  0  0  0  0  0
    6.6368   25.2457   23.1204 H   0  0  0  0  0  0  0  0  0  0  0  0
    6.0952   26.9180   23.4961 H   0  0  0  0  0  0  0  0  0  0  0  0
    5.0621   25.0302   21.3377 H   0  0  0  0  0  0  0  0  0  0  0  0
    4.1774   25.7846   22.7632 H   0  0  0  0  0  0  0  0  0  0  0  0
    5.3010   27.4010   20.5100 H   0  0  0  0  0  0  0  0  0  0  0  0
    2.9570   28.4120   21.6180 H   0  0  0  0  0  0  0  0  0  0  0  0
    3.7000   27.8740   22.8750 H   0  0  0  0  0  0  0  0  0  0  0  0
    4.0281   30.2949   22.2670 H   0  0  0  0  0  0  0  0  0  0  0  0
    5.5420   29.3244   22.6147 H   0  0  0  0  0  0  0  0  0  0  0  0
    5.9575   29.0428   20.3213 H   0  0  0  0  0  0  0  0  0  0  0  0
    5.7007   31.9389   19.9908 H   0  0  0  0  0  0  0  0  0  0  0  0
    6.3781   31.3754   21.6258 H   0  0  0  0  0  0  0  0  0  0  0  0
    7.3055   29.0333   19.1335 H   0  0  0  0  0  0  0  0  0  0  0  0
    9.5926   28.8979   18.1565 H   0  0  0  0  0  0  0  0  0  0  0  0
   11.2014   30.7761   18.4607 H   0  0  0  0  0  0  0  0  0  0  0  0
   10.5314   32.7861   19.7742 H   0  0  0  0  0  0  0  0  0  0  0  0
    8.2467   32.9304   20.7506 H   0  0  0  0  0  0  0  0  0  0  0  0
    3.7450   30.9070   19.4990 H   0  0  0  0  0  0  0  0  0  0  0  0
    2.7347   30.7103   17.6558 H   0  0  0  0  0  0  0  0  0  0  0  0
    1.7062   28.8811   16.7273 H   0  0  0  0  0  0  0  0  0  0  0  0
    2.9317   28.9017   15.4151 H   0  0  0  0  0  0  0  0  0  0  0  0
    3.8030   27.8770   17.8490 H   0  0  0  0  0  0  0  0  0  0  0  0
    4.7700   30.3450   15.5160 H   0  0  0  0  0  0  0  0  0  0  0  0
    5.1328   32.1603   14.1959 H   0  0  0  0  0  0  0  0  0  0  0  0
    6.6914   33.7036   14.4172 H   0  0  0  0  0  0  0  0  0  0  0  0
    5.7411   34.5763   15.7522 H   0  0  0  0  0  0  0  0  0  0  0  0
    6.2114   32.2304   16.8913 H   0  0  0  0  0  0  0  0  0  0  0  0
    8.6854   31.7430   16.6767 H   0  0  0  0  0  0  0  0  0  0  0  0
    7.7066   31.3186   15.2316 H   0  0  0  0  0  0  0  0  0  0  0  0
    8.7082   32.8097   15.2316 H   0  0  0  0  0  0  0  0  0  0  0  0
    7.1672   33.4645   18.4941 H   0  0  0  0  0  0  0  0  0  0  0  0
    8.4666   34.0570   17.4045 H   0  0  0  0  0  0  0  0  0  0  0  0
    6.8592   34.8590   17.4045 H   0  0  0  0  0  0  0  0  0  0  0  0
    3.2920   34.4220   14.7680 H   0  0  0  0  0  0  0  0  0  0  0  0
    2.6160   35.7650   13.3209 H   0  0  0  0  0  0  0  0  0  0  0  0
    2.2450   35.4978   10.4732 H   0  0  0  0  0  0  0  0  0  0  0  0
    2.3082   33.8394   11.2231 H   0  0  0  0  0  0  0  0  0  0  0  0
   -0.1011   36.9476   11.1062 H   0  0  0  0  0  0  0  0  0  0  0  0
   -1.9348   33.9464   13.4348 H   0  0  0  0  0  0  0  0  0  0  0  0
    0.5530   33.3300   13.1330 H   0  0  0  0  0  0  0  0  0  0  0  0
    4.8860   36.4210   11.8670 H   0  0  0  0  0  0  0  0  0  0  0  0
    5.6495   38.4012   12.5420 H   0  0  0  0  0  0  0  0  0  0  0  0
    4.0365   39.9835   14.0477 H   0  0  0  0  0  0  0  0  0  0  0  0
    5.5146   40.6507   13.3727 H   0  0  0  0  0  0  0  0  0  0  0  0
    2.6485   40.7987   12.2495 H   0  0  0  0  0  0  0  0  0  0  0  0
    3.7334   42.1478   12.5205 H   0  0  0  0  0  0  0  0  0  0  0  0
    3.5371   41.0695   10.0574 H   0  0  0  0  0  0  0  0  0  0  0  0
    5.1407   41.5221   10.6218 H   0  0  0  0  0  0  0  0  0  0  0  0
    3.9730   38.8630   10.3040 H   0  0  0  0  0  0  0  0  0  0  0  0
    5.5750   39.2780   10.3640 H   0  0  0  0  0  0  0  0  0  0  0  0
    2.2090   28.3270   20.5140 H   0  0  0  0  0  0  0  0  0  0  0  0
    1.2155   26.4546   18.4877 H   0  0  0  0  0  0  0  0  0  0  0  0
    0.2804   26.2795   21.2645 H   0  0  0  0  0  0  0  0  0  0  0  0
   -0.9466   26.2459   19.9530 H   0  0  0  0  0  0  0  0  0  0  0  0
    0.4009   25.0580   19.9530 H   0  0  0  0  0  0  0  0  0  0  0  0
   -1.1980   27.1100   18.0790 H   0  0  0  0  0  0  0  0  0  0  0  0
   -1.7637   29.8706   18.8534 H   0  0  0  0  0  0  0  0  0  0  0  0
   -2.8811   28.7174   16.2567 H   0  0  0  0  0  0  0  0  0  0  0  0
   -3.1863   30.3626   16.9937 H   0  0  0  0  0  0  0  0  0  0  0  0
   -0.8512   28.8337   14.3462 H   0  0  0  0  0  0  0  0  0  0  0  0
    1.0120   30.6270   13.9560 H   0  0  0  0  0  0  0  0  0  0  0  0
    0.9836   32.4810   15.7350 H   0  0  0  0  0  0  0  0  0  0  0  0
   -0.9500   31.8390   17.3030 H   0  0  0  0  0  0  0  0  0  0  0  0
  1  2  1  0
  2  3  1  0
  3  4  1  0
  4  5  1  0
  5  6  1  0
  6  7  1  0
  7  8  1  0
  8  9  1  0
  9 10  1  0
 10 11  2  0
 11 12  1  0
 12 13  2  0
 13 14  1  0
 14 15  2  0
  8 16  1  0
 16 17  1  0
 17 18  2  0
 17 19  1  0
 19 20  1  0
 20 21  1  0
 19 22  1  0
 22 23  1  0
 23 24  2  0
 23 25  1  0
 25 26  1  0
 26 27  1  0
 27 28  1  0
 27 29  1  0
 25 30  1  0
 30 31  1  0
 31 32  2  0
 31 33  1  0
 33 34  1  0
 34 35  1  0
 35 36  2  0
 36 37  1  0
 37 38  2  0
 38 39  1  0
 33 40  1  0
 40 41  1  0
 41 42  2  0
 41 43  1  0
 43 44  1  0
 44 45  1  0
 45 46  1  0
 46 47  1  0
  5 48  1  0
 48 49  2  0
 48 50  1  0
 50 51  1  0
 51 52  1  0
 51 53  1  0
 53 54  2  0
 53 55  1  0
 55 56  1  0
 56 57  1  0
 57 58  1  0
 58 59  2  0
 59 60  1  0
 60 61  2  0
 61 62  1  0
 56 63  1  0
 63 64  2  0
 63 65  1  0
 15 10  1  0
 39 35  1  0
 47 43  1  0
 62 58  1  0
  1 66  1  0
  1 67  1  0
  1 68  1  0
  3 69  1  0
  3 70  1  0
  4 71  1  0
  4 72  1  0
  5 73  1  6
  6 74  1  0
  6 75  1  0
  7 76  1  0
  7 77  1  0
  8 78  1  6
  9 79  1  0
  9 80  1  0
 11 81  1  0
 12 82  1  0
 13 83  1  0
 14 84  1  0
 15 85  1  0
 16 86  1  0
 19 87  1  1
 20 88  1  0
 20 89  1  0
 21 90  1  0
 22 91  1  0
 25 92  1  6
 26 93  1  0
 26 94  1  0
 27 95  1  0
 28 96  1  0
 28 97  1  0
 28 98  1  0
 29 99  1  0
 29100  1  0
 29101  1  0
 30102  1  0
 33103  1  1
 34104  1  0
 34105  1  0
 36106  1  0
 38107  1  0
 39108  1  0
 40109  1  0
 43110  1  1
 44111  1  0
 44112  1  0
 45113  1  0
 45114  1  0
 46115  1  0
 46116  1  0
 47117  1  0
 47118  1  0
 50119  1  0
 51120  1  6
 52121  1  0
 52122  1  0
 52123  1  0
 55124  1  0
 56125  1  1
 57126  1  0
 57127  1  0
 59128  1  0
 60129  1  0
 61130  1  0
 62131  1  0
M  CHG  4   6   1  47   1  60   1  65  -1
M  END
>  <meeko>  (1) 
{"is_sidechain": [false], "free_energy": -8.37, "intermolecular_energy": -22.314, "internal_energy": -5.981}

$$$$
3uri_ligand
     RDKit          3D

131134  0  0  0  0  0  0  0  0999 V2000
    8.6320   27.5360   22.6890 C   0  0  0  0  0  0  0  0  0  0  0  0
    7.3770   26.7660   21.6320 S   0  0  0  0  0  0  0  0  0  0  0  0
    6.7000   25.5960   22.8500 C   0  0  0  0  0  0  0  0  0  0  0  0
    5.1980   25.8370   23.0140 C   0  0  0  0  0  0  0  0  0  0  0  0
    4.4790   26.3510   21.7570 C   0  0  2  0  0  0  0  0  0  0  0  0
    3.5050   27.4500   22.0700 N   0  0  0  0  0  0  0  0  0  0  0  0
    3.9990   28.8290   22.2700 C   0  0  0  0  0  0  0  0  0  0  0  0
    4.7860   29.4080   21.0510 C   0  0  2  0  0  0  0  0  0  0  0  0
    5.6830   30.6370   21.3490 C   0  0  0  0  0  0  0  0  0  0  0  0
    6.9930   30.7400   20.5950 C   0  0  0  0  0  0  0  0  0  0  0  0
    8.0110   31.6210   20.9760 C   0  0  0  0  0  0  0  0  0  0  0  0
    9.2150   31.6610   20.2660 C   0  0  0  0  0  0  0  0  0  0  0  0
    9.4070   30.8350   19.1610 C   0  0  0  0  0  0  0  0  0  0  0  0
    8.3920   29.9730   18.7560 C   0  0  0  0  0  0  0  0  0  0  0  0
    7.1910   29.9300   19.4640 C   0  0  0  0  0  0  0  0  0  0  0  0
    3.9140   29.7060   19.8990 N   0  0  0  0  0  0  0  0  0  0  0  0
    3.8600   28.8900   18.7820 C   0  0  0  0  0  0  0  0  0  0  0  0
    4.4260   27.8010   18.7420 O   0  0  0  0  0  0  0  0  0  0  0  0
    3.1840   29.5150   17.5480 C   0  0  2  0  0  0  0  0  0  0  0  0
    2.8940   28.3950   16.5430 C   0  0  0  0  0  0  0  0  0  0  0  0
    2.2460   27.3030   17.2190 O   0  0  0  0  0  0  0  0  0  0  0  0
    4.0380   30.5320   16.9210 N   0  0  0  0  0  0  0  0  0  0  0  0
    3.5100   31.6520   16.3260 C   0  0  0  0  0  0  0  0  0  0  0  0
    2.2940   31.8380   16.2720 O   0  0  0  0  0  0  0  0  0  0  0  0
    4.5360   32.6100   15.6540 C   0  0  2  0  0  0  0  0  0  0  0  0
    5.4010   33.4080   16.6490 C   0  0  0  0  0  0  0  0  0  0  0  0
    6.8320   32.8900   16.9140 C   0  0  0  0  0  0  0  0  0  0  0  0
    7.5980   32.5900   15.6260 C   0  0  0  0  0  0  0  0  0  0  0  0
    7.6570   33.7990   17.8250 C   0  0  0  0  0  0  0  0  0  0  0  0
    3.8270   33.4100   14.6530 N   0  0  0  0  0  0  0  0  0  0  0  0
    4.3030   33.5690   13.3660 C   0  0  0  0  0  0  0  0  0  0  0  0
    5.2230   32.9020   12.8970 O   0  0  0  0  0  0  0  0  0  0  0  0
    3.7020   34.7480   12.5720 C   0  0  2  0  0  0  0  0  0  0  0  0
    3.5370   35.9690   13.5080 C   0  0  0  0  0  0  0  0  0  0  0  0
    3.1560   37.2140   12.7730 C   0  0  0  0  0  0  0  0  0  0  0  0
    2.1310   38.1200   12.9340 C   0  0  0  0  0  0  0  0  0  0  0  0
    2.3080   39.1980   12.1140 N   0  0  0  0  0  0  0  0  0  0  0  0
    3.3340   38.8950   11.3510 C   0  0  0  0  0  0  0  0  0  0  0  0
    3.8750   37.6920   11.7020 N   0  0  0  0  0  0  0  0  0  0  0  0
    2.4890   34.4280   11.7720 N   0  0  0  0  0  0  0  0  0  0  0  0
    1.3210   33.9680   12.3540 C   0  0  0  0  0  0  0  0  0  0  0  0
    1.2900   33.4630   13.4710 O   0  0  0  0  0  0  0  0  0  0  0  0
    0.0880   34.0570   11.4260 C   0  0  2  0  0  0  0  0  0  0  0  0
   -0.0140   35.3770   10.6720 C   0  0  0  0  0  0  0  0  0  0  0  0
   -0.8320   36.2620   11.5950 C   0  0  0  0  0  0  0  0  0  0  0  0
   -1.8990   35.3250   12.1140 C   0  0  0  0  0  0  0  0  0  0  0  0
   -1.2010   34.0030   12.2430 N   0  0  0  0  0  0  0  0  0  0  0  0
    3.7580   25.2130   20.9800 C   0  0  0  0  0  0  0  0  0  0  0  0
    3.9980   24.9370   19.8080 O   0  0  0  0  0  0  0  0  0  0  0  0
    2.8720   24.4650   21.7380 N   0  0  0  0  0  0  0  0  0  0  0  0
    2.3370   23.1690   21.2960 C   0  0  1  0  0  0  0  0  0  0  0  0
    2.2020   22.1210   22.3930 C   0  0  0  0  0  0  0  0  0  0  0  0
    1.0310   23.3980   20.4980 C   0  0  0  0  0  0  0  0  0  0  0  0
    0.7900   22.7890   19.4570 O   0  0  0  0  0  0  0  0  0  0  0  0
    0.1750   24.3540   21.0150 N   0  0  0  0  0  0  0  0  0  0  0  0
   -0.6740   25.1580   20.0950 C   0  0  1  0  0  0  0  0  0  0  0  0
   -1.9430   25.6370   20.7980 C   0  0  0  0  0  0  0  0  0  0  0  0
   -3.1770   25.4550   19.9910 C   0  0  0  0  0  0  0  0  0  0  0  0
   -4.4440   25.9850   20.0710 C   0  0  0  0  0  0  0  0  0  0  0  0
   -5.1830   25.4300   19.0500 N   0  0  0  0  0  0  0  0  0  0  0  0
   -4.4350   24.5810   18.3420 C   0  0  0  0  0  0  0  0  0  0  0  0
   -3.2240   24.5890   18.9020 N   0  0  0  0  0  0  0  0  0  0  0  0
    0.1010   26.3800   19.5160 C   0  0  0  0  0  0  0  0  0  0  0  0
   -0.2960   26.8650   18.4280 O   0  0  0  0  0  0  0  0  0  0  0  0
    1.0350   26.8320   20.2550 O   0  0  0  0  0  0  0  0  0  0  0  0
    8.3704   27.3755   23.7453 H   0  0  0  0  0  0  0  0  0  0  0  0
    9.6133   27.0844   22.4816 H   0  0  0  0  0  0  0  0  0  0  0  0
    8.6739   28.6155   22.4816 H   0  0  0  0  0  0  0  0  0  0  0  0
    6.8696   24.5664   22.5020 H   0  0  0  0  0  0  0  0  0  0  0  0
    7.2015   25.7452   23.8176 H   0  0  0  0  0  0  0  0  0  0  0  0
    4.7305   24.8860   23.3090 H   0  0  0  0  0  0  0  0  0  0  0  0
    5.0957   26.6288   23.7706 H   0  0  0  0  0  0  0  0  0  0  0  0
    5.2692   26.7610   21.1109 H   0  0  0  0  0  0  0  0  0  0  0  0
    2.7750   27.4360   21.3530 H   0  0  0  0  0  0  0  0  0  0  0  0
    2.8930   27.1270   22.8730 H   0  0  0  0  0  0  0  0  0  0  0  0
    3.1345   29.4808   22.4641 H   0  0  0  0  0  0  0  0  0  0  0  0
    4.7031   28.7942   23.1144 H   0  0  0  0  0  0  0  0  0  0  0  0
    5.4684   28.5832   20.7978 H   0  0  0  0  0  0  0  0  0  0  0  0
    5.0965   31.5382   21.1171 H   0  0  0  0  0  0  0  0  0  0  0  0
    5.9725   30.5262   22.4044 H   0  0  0  0  0  0  0  0  0  0  0  0
    7.8633   32.2863   21.8394 H   0  0  0  0  0  0  0  0  0  0  0  0
   10.0141   32.3479   20.5815 H   0  0  0  0  0  0  0  0  0  0  0  0
   10.3585   30.8639   18.6098 H   0  0  0  0  0  0  0  0  0  0  0  0
    8.5369   29.3261   17.8782 H   0  0  0  0  0  0  0  0  0  0  0  0
    6.3891   29.2538   19.1329 H   0  0  0  0  0  0  0  0  0  0  0  0
    3.7750   30.6880   19.6730 H   0  0  0  0  0  0  0  0  0  0  0  0
    2.2543   30.0118   17.8625 H   0  0  0  0  0  0  0  0  0  0  0  0
    2.2366   28.7765   15.7479 H   0  0  0  0  0  0  0  0  0  0  0  0
    3.8381   28.0449   16.1002 H   0  0  0  0  0  0  0  0  0  0  0  0
    1.9560   27.6520   18.0850 H   0  0  0  0  0  0  0  0  0  0  0  0
    5.0370   30.3660   16.9680 H   0  0  0  0  0  0  0  0  0  0  0  0
    5.3040   32.0183   15.1343 H   0  0  0  0  0  0  0  0  0  0  0  0
    5.4868   34.4347   16.2635 H   0  0  0  0  0  0  0  0  0  0  0  0
    4.8822   33.3141   17.6144 H   0  0  0  0  0  0  0  0  0  0  0  0
    6.6842   31.9431   17.4540 H   0  0  0  0  0  0  0  0  0  0  0  0
    8.5956   32.1993   15.8752 H   0  0  0  0  0  0  0  0  0  0  0  0
    7.0473   31.8411   15.0379 H   0  0  0  0  0  0  0  0  0  0  0  0
    7.7024   33.5137   15.0379 H   0  0  0  0  0  0  0  0  0  0  0  0
    7.4395   33.5594   18.8763 H   0  0  0  0  0  0  0  0  0  0  0  0
    8.7276   33.6423   17.6271 H   0  0  0  0  0  0  0  0  0  0  0  0
    7.3975   34.8495   17.6271 H   0  0  0  0  0  0  0  0  0  0  0  0
    3.3650   34.2380   15.0310 H   0  0  0  0  0  0  0  0  0  0  0  0
    4.4241   35.0055   11.7831 H   0  0  0  0  0  0  0  0  0  0  0  0
    2.7535   35.7428   14.2462 H   0  0  0  0  0  0  0  0  0  0  0  0
    4.5093   36.1521   13.9887 H   0  0  0  0  0  0  0  0  0  0  0  0
    1.2865   37.9929   13.6273 H   0  0  0  0  0  0  0  0  0  0  0  0
    3.7088   39.5294   10.5343 H   0  0  0  0  0  0  0  0  0  0  0  0
    4.6700   37.2470   11.2580 H   0  0  0  0  0  0  0  0  0  0  0  0
    2.3760   35.0680   10.9930 H   0  0  0  0  0  0  0  0  0  0  0  0
    0.2114   33.2151   10.7288 H   0  0  0  0  0  0  0  0  0  0  0  0
    0.9835   35.8074   10.4996 H   0  0  0  0  0  0  0  0  0  0  0  0
   -0.4709   35.2636    9.6778 H   0  0  0  0  0  0  0  0  0  0  0  0
   -0.2145   36.6514   12.4179 H   0  0  0  0  0  0  0  0  0  0  0  0
   -1.2439   37.1483   11.0903 H   0  0  0  0  0  0  0  0  0  0  0  0
   -2.2741   35.6645   13.0907 H   0  0  0  0  0  0  0  0  0  0  0  0
   -2.7739   35.2751   11.4491 H   0  0  0  0  0  0  0  0  0  0  0  0
   -0.9770   33.8160   13.2310 H   0  0  0  0  0  0  0  0  0  0  0  0
   -1.8130   33.2400   11.9220 H   0  0  0  0  0  0  0  0  0  0  0  0
    2.6810   24.7060   22.7040 H   0  0  0  0  0  0  0  0  0  0  0  0
    3.0872   22.7185   20.6295 H   0  0  0  0  0  0  0  0  0  0  0  0
    2.2649   22.6095   23.3766 H   0  0  0  0  0  0  0  0  0  0  0  0
    1.2310   21.6131   22.2973 H   0  0  0  0  0  0  0  0  0  0  0  0
    3.0126   21.3836   22.2973 H   0  0  0  0  0  0  0  0  0  0  0  0
    0.5720   24.9040   21.7820 H   0  0  0  0  0  0  0  0  0  0  0  0
   -0.9543   24.4996   19.2596 H   0  0  0  0  0  0  0  0  0  0  0  0
   -2.0547   25.0728   21.7357 H   0  0  0  0  0  0  0  0  0  0  0  0
   -1.8274   26.7173   20.9698 H   0  0  0  0  0  0  0  0  0  0  0  0
   -4.8003   26.7156   20.8121 H   0  0  0  0  0  0  0  0  0  0  0  0
   -6.1600   25.6330   18.8600 H   0  0  0  0  0  0  0  0  0  0  0  0
   -4.7538   23.9915   17.4697 H   0  0  0  0  0  0  0  0  0  0  0  0
   -2.4350   24.0310   18.5820 H   0  0  0  0  0  0  0  0  0  0  0  0
  1  2  1  0
  2  3  1  0
  3  4  1  0
  4  5  1  0
  5  6  1  0
  6  7  1  0
  7  8  1  0
  8  9  1  0
  9 10  1  0
 10 11  2  0
 11 12  1  0
 12 13  2  0
 13 14  1  0
 14 15  2  0
  8 16  1  0
 16 17  1  0
 17 18  2  0
 17 19  1  0
 19 20  1  0
 20 21  1  0
 19 22  1  0
 22 23  1  0
 23 24  2  0
 23 25  1  0
 25 26  1  0
 26 27  1  0
 27 28  1  0
 27 29  1  0
 25 30  1  0
 30 31  1  0
 31 32  2  0
 31 33  1  0
 33 34  1  0
 34 35  1  0
 35 36  2  0
 36 37  1  0
 37 38  2  0
 38 39  1  0
 33 40  1  0
 40 41  1  0
 41 42  2  0
 41 43  1  0
 43 44  1  0
 44 45  1  0
 45 46  1  0
 46 47  1  0
  5 48  1  0
 48 49  2  0
 48 50  1  0
 50 51  1  0
 51 52  1  0
 51 53  1  0
 53 54  2  0
 53 55  1  0
 55 56  1  0
 56 57  1  0
 57 58  1  0
 58 59  2  0
 59 60  1  0
 60 61  2  0
 61 62  1  0
 56 63  1  0
 63 64  2  0
 63 65  1  0
 15 10  1  0
 39 35  1  0
 47 43  1  0
 62 58  1  0
  1 66  1  0
  1 67  1  0
  1 68  1  0
  3 69  1  0
  3 70  1  0
  4 71  1  0
  4 72  1  0
  5 73  1  6
  6 74  1  0
  6 75  1  0
  7 76  1  0
  7 77  1  0
  8 78  1  6
  9 79  1  0
  9 80  1  0
 11 81  1  0
 12 82  1  0
 13 83  1  0
 14 84  1  0
 15 85  1  0
 16 86  1  0
 19 87  1  1
 20 88  1  0
 20 89  1  0
 21 90  1  0
 22 91  1  0
 25 92  1  6
 26 93  1  0
 26 94  1  0
 27 95  1  0
 28 96  1  0
 28 97  1  0
 28 98  1  0
 29 99  1  0
 29100  1  0
 29101  1  0
 30102  1  0
 33103  1  6
 34104  1  0
 34105  1  0
 36106  1  0
 38107  1  0
 39108  1  0
 40109  1  0
 43110  1  6
 44111  1  0
 44112  1  0
 45113  1  0
 45114  1  0
 46115  1  0
 46116  1  0
 47117  1  0
 47118  1  0
 50119  1  0
 51120  1  6
 52121  1  0
 52122  1  0
 52123  1  0
 55124  1  0
 56125  1  6
 57126  1  0
 57127  1  0
 59128  1  0
 60129  1  0
 61130  1  0
 62131  1  0
M  CHG  4   6   1  47   1  60   1  65  -1
M  END
>  <meeko>  (2) 
{"is_sidechain": [false], "free_energy": -8.326, "intermolecular_energy": -22.145, "internal_energy": -6.035}

$$$$
3uri_ligand
     RDKit          3D

131134  0  0  0  0  0  0  0  0999 V2000
    5.0590   29.2750   22.8210 C   0  0  0  0  0  0  0  0  0  0  0  0
    3.4730   28.8610   23.5950 S   0  0  0  0  0  0  0  0  0  0  0  0
    2.4610   28.7970   22.0850 C   0  0  0  0  0  0  0  0  0  0  0  0
    3.3460   28.4420   20.8880 C   0  0  0  0  0  0  0  0  0  0  0  0
    3.3120   26.9640   20.4690 C   0  0  2  0  0  0  0  0  0  0  0  0
    4.3690   26.6380   19.4530 N   0  0  0  0  0  0  0  0  0  0  0  0
    5.6090   27.4430   19.4050 C   0  0  0  0  0  0  0  0  0  0  0  0
    5.8240   28.2030   18.0580 C   0  0  2  0  0  0  0  0  0  0  0  0
    7.2240   28.8390   17.8580 C   0  0  0  0  0  0  0  0  0  0  0  0
    7.6300   29.9430   18.8120 C   0  0  0  0  0  0  0  0  0  0  0  0
    6.7420   30.5000   19.7380 C   0  0  0  0  0  0  0  0  0  0  0  0
    7.1690   31.4980   20.6170 C   0  0  0  0  0  0  0  0  0  0  0  0
    8.4820   31.9600   20.5720 C   0  0  0  0  0  0  0  0  0  0  0  0
    9.3700   31.4330   19.6380 C   0  0  0  0  0  0  0  0  0  0  0  0
    8.9450   30.4360   18.7600 C   0  0  0  0  0  0  0  0  0  0  0  0
    4.7850   29.2190   17.8040 N   0  0  0  0  0  0  0  0  0  0  0  0
    3.6350   28.9370   17.0870 C   0  0  0  0  0  0  0  0  0  0  0  0
    3.3460   27.7950   16.7400 O   0  0  0  0  0  0  0  0  0  0  0  0
    2.8390   30.1690   16.6170 C   0  0  2  0  0  0  0  0  0  0  0  0
    1.5770   29.6770   15.8990 C   0  0  0  0  0  0  0  0  0  0  0  0
    0.6970   29.0540   16.8510 O   0  0  0  0  0  0  0  0  0  0  0  0
    3.6290   31.0090   15.7100 N   0  0  0  0  0  0  0  0  0  0  0  0
    3.5710   32.3810   15.7600 C   0  0  0  0  0  0  0  0  0  0  0  0
    2.8330   32.9640   16.5550 O   0  0  0  0  0  0  0  0  0  0  0  0
    4.4200   33.1350   14.6960 C   0  0  2  0  0  0  0  0  0  0  0  0
    5.7420   33.7120   15.2370 C   0  0  0  0  0  0  0  0  0  0  0  0
    6.4980   32.8750   16.2940 C   0  0  0  0  0  0  0  0  0  0  0  0
    7.8170   32.3120   15.7660 C   0  0  0  0  0  0  0  0  0  0  0  0
    6.7230   33.6090   17.6150 C   0  0  0  0  0  0  0  0  0  0  0  0
    3.5500   34.0920   14.0100 N   0  0  0  0  0  0  0  0  0  0  0  0
    3.9170   34.7060   12.8290 C   0  0  0  0  0  0  0  0  0  0  0  0
    4.8850   34.3560   12.1570 O   0  0  0  0  0  0  0  0  0  0  0  0
    3.1160   35.9720   12.4570 C   0  0  2  0  0  0  0  0  0  0  0  0
    2.2970   35.7050   11.1720 C   0  0  0  0  0  0  0  0  0  0  0  0
    0.9430   35.1380   11.4570 C   0  0  0  0  0  0  0  0  0  0  0  0
    0.0510   34.4150   10.6950 C   0  0  0  0  0  0  0  0  0  0  0  0
   -0.9890   33.9720   11.4620 N   0  0  0  0  0  0  0  0  0  0  0  0
   -0.8260   34.5380   12.6360 C   0  0  0  0  0  0  0  0  0  0  0  0
    0.3260   35.2690   12.6800 N   0  0  0  0  0  0  0  0  0  0  0  0
    3.8980   37.2360   12.4270 N   0  0  0  0  0  0  0  0  0  0  0  0
    3.3620   38.4450   12.8350 C   0  0  0  0  0  0  0  0  0  0  0  0
    2.1540   38.6450   12.9100 O   0  0  0  0  0  0  0  0  0  0  0  0
    4.4220   39.5420   13.0860 C   0  0  2  0  0  0  0  0  0  0  0  0
    3.9190   40.9530   12.8040 C   0  0  0  0  0  0  0  0  0  0  0  0
    4.2550   41.1730   11.3400 C   0  0  0  0  0  0  0  0  0  0  0  0
    5.6300   40.5590   11.2050 C   0  0  0  0  0  0  0  0  0  0  0  0
    5.6000   39.3760   12.1280 N   0  0  0  0  0  0  0  0  0  0  0  0
    1.9170   26.5320   19.9330 C   0  0  0  0  0  0  0  0  0  0  0  0
    1.2600   27.2020   19.1410 O   0  0  0  0  0  0  0  0  0  0  0  0
    1.4980   25.2800   20.3520 N   0  0  0  0  0  0  0  0  0  0  0  0
    0.3830   24.5570   19.7220 C   0  0  1  0  0  0  0  0  0  0  0  0
    0.5960   23.0570   19.5640 C   0  0  0  0  0  0  0  0  0  0  0  0
   -0.9370   24.9200   20.4440 C   0  0  0  0  0  0  0  0  0  0  0  0
   -1.2830   24.3630   21.4850 O   0  0  0  0  0  0  0  0  0  0  0  0
   -1.7110   25.8830   19.8240 N   0  0  0  0  0  0  0  0  0  0  0  0
   -3.1930   25.8310   19.9500 C   0  0  1  0  0  0  0  0  0  0  0  0
   -3.7830   27.2350   20.0770 C   0  0  0  0  0  0  0  0  0  0  0  0
   -3.1430   28.2340   19.1850 C   0  0  0  0  0  0  0  0  0  0  0  0
   -2.1480   29.1660   19.3720 C   0  0  0  0  0  0  0  0  0  0  0  0
   -1.9830   29.8310   18.1770 N   0  0  0  0  0  0  0  0  0  0  0  0
   -2.8280   29.3570   17.2600 C   0  0  0  0  0  0  0  0  0  0  0  0
   -3.5320   28.3940   17.8580 N   0  0  0  0  0  0  0  0  0  0  0  0
   -3.8480   25.0920   18.7440 C   0  0  0  0  0  0  0  0  0  0  0  0
   -4.9480   25.5220   18.3180 O   0  0  0  0  0  0  0  0  0  0  0  0
   -3.1540   24.1490   18.2410 O   0  0  0  0  0  0  0  0  0  0  0  0
    5.8083   29.4706   23.6022 H   0  0  0  0  0  0  0  0  0  0  0  0
    5.3924   28.4338   22.1955 H   0  0  0  0  0  0  0  0  0  0  0  0
    4.9387   30.1718   22.1955 H   0  0  0  0  0  0  0  0  0  0  0  0
    1.6784   28.0327   22.2010 H   0  0  0  0  0  0  0  0  0  0  0  0
    1.9949   29.7789   21.9160 H   0  0  0  0  0  0  0  0  0  0  0  0
    3.0179   29.0472   20.0301 H   0  0  0  0  0  0  0  0  0  0  0  0
    4.3805   28.6488   21.1994 H   0  0  0  0  0  0  0  0  0  0  0  0
    3.5212   26.3922   21.3851 H   0  0  0  0  0  0  0  0  0  0  0  0
    4.5950   25.6440   19.5420 H   0  0  0  0  0  0  0  0  0  0  0  0
    3.9020   26.5720   18.5030 H   0  0  0  0  0  0  0  0  0  0  0  0
    5.5717   28.1837   20.2174 H   0  0  0  0  0  0  0  0  0  0  0  0
    6.4481   26.7395   19.5097 H   0  0  0  0  0  0  0  0  0  0  0  0
    5.7436   27.3945   17.3164 H   0  0  0  0  0  0  0  0  0  0  0  0
    7.9682   28.0341   17.9488 H   0  0  0  0  0  0  0  0  0  0  0  0
    7.1750   29.3232   16.8715 H   0  0  0  0  0  0  0  0  0  0  0  0
    5.6999   30.1496   19.7743 H   0  0  0  0  0  0  0  0  0  0  0  0
    6.4647   31.9211   21.3484 H   0  0  0  0  0  0  0  0  0  0  0  0
    8.8167   32.7393   21.2725 H   0  0  0  0  0  0  0  0  0  0  0  0
   10.4051   31.8024   19.5926 H   0  0  0  0  0  0  0  0  0  0  0  0
    9.6480   30.0305   18.0175 H   0  0  0  0  0  0  0  0  0  0  0  0
    5.1040   30.1760   17.6710 H   0  0  0  0  0  0  0  0  0  0  0  0
    2.5791   30.7829   17.4920 H   0  0  0  0  0  0  0  0  0  0  0  0
    1.0653   30.5305   15.4303 H   0  0  0  0  0  0  0  0  0  0  0  0
    1.8561   28.9472   15.1247 H   0  0  0  0  0  0  0  0  0  0  0  0
    1.2120   28.9610   17.6770 H   0  0  0  0  0  0  0  0  0  0  0  0
    4.2290   30.5180   15.0570 H   0  0  0  0  0  0  0  0  0  0  0  0
    4.7915   32.4180   13.9491 H   0  0  0  0  0  0  0  0  0  0  0  0
    6.4175   33.8512   14.3801 H   0  0  0  0  0  0  0  0  0  0  0  0
    5.4551   34.6364   15.7596 H   0  0  0  0  0  0  0  0  0  0  0  0
    5.8250   32.0313   16.5067 H   0  0  0  0  0  0  0  0  0  0  0  0
    8.4630   32.0363   16.6125 H   0  0  0  0  0  0  0  0  0  0  0  0
    7.6161   31.4212   15.1527 H   0  0  0  0  0  0  0  0  0  0  0  0
    8.3213   33.0733   15.1527 H   0  0  0  0  0  0  0  0  0  0  0  0
    6.5142   32.9279   18.4531 H   0  0  0  0  0  0  0  0  0  0  0  0
    7.7671   33.9506   17.6715 H   0  0  0  0  0  0  0  0  0  0  0  0
    6.0497   34.4770   17.6715 H   0  0  0  0  0  0  0  0  0  0  0  0
    3.0080   34.6880   14.6380 H   0  0  0  0  0  0  0  0  0  0  0  0
    2.4169   36.1653   13.2840 H   0  0  0  0  0  0  0  0  0  0  0  0
    2.1739   36.6541   10.6298 H   0  0  0  0  0  0  0  0  0  0  0  0
    2.8484   34.9636   10.5751 H   0  0  0  0  0  0  0  0  0  0  0  0
    0.1612   34.2213    9.6178 H   0  0  0  0  0  0  0  0  0  0  0  0
   -1.5282   34.4360   13.4765 H   0  0  0  0  0  0  0  0  0  0  0  0
    0.6630   35.7980   13.4760 H   0  0  0  0  0  0  0  0  0  0  0  0
    4.8720   37.0790   12.6630 H   0  0  0  0  0  0  0  0  0  0  0  0
    4.6881   39.4251   14.1469 H   0  0  0  0  0  0  0  0  0  0  0  0
    2.8341   41.0228   12.9716 H   0  0  0  0  0  0  0  0  0  0  0  0
    4.3758   41.7064   13.4626 H   0  0  0  0  0  0  0  0  0  0  0  0
    3.5299   40.6638   10.6881 H   0  0  0  0  0  0  0  0  0  0  0  0
    4.2247   42.2323   11.0450 H   0  0  0  0  0  0  0  0  0  0  0  0
    5.8143   40.2400   10.1685 H   0  0  0  0  0  0  0  0  0  0  0  0
    6.4332   41.2675   11.4558 H   0  0  0  0  0  0  0  0  0  0  0  0
    5.4850   38.5070   11.5860 H   0  0  0  0  0  0  0  0  0  0  0  0
    6.4880   39.2980   12.6410 H   0  0  0  0  0  0  0  0  0  0  0  0
    2.0490   24.7390   21.0080 H   0  0  0  0  0  0  0  0  0  0  0  0
    0.3234   24.8982   18.6780 H   0  0  0  0  0  0  0  0  0  0  0  0
    0.6624   22.5894   20.5575 H   0  0  0  0  0  0  0  0  0  0  0  0
   -0.2495   22.6229   19.0102 H   0  0  0  0  0  0  0  0  0  0  0  0
    1.5289   22.8755   19.0102 H   0  0  0  0  0  0  0  0  0  0  0  0
   -1.3950   26.1370   18.8840 H   0  0  0  0  0  0  0  0  0  0  0  0
   -3.4169   25.2645   20.8659 H   0  0  0  0  0  0  0  0  0  0  0  0
   -4.8539   27.1853   19.8308 H   0  0  0  0  0  0  0  0  0  0  0  0
   -3.6050   27.5663   21.1107 H   0  0  0  0  0  0  0  0  0  0  0  0
   -1.5889   29.3463   20.3020 H   0  0  0  0  0  0  0  0  0  0  0  0
   -1.3150   30.5790   18.0130 H   0  0  0  0  0  0  0  0  0  0  0  0
   -2.9252   29.6934   16.2172 H   0  0  0  0  0  0  0  0  0  0  0  0
   -4.2640   27.8490   17.4080 H   0  0  0  0  0  0  0  0  0  0  0  0
  1  2  1  0
  2  3  1  0
  3  4  1  0
  4  5  1  0
  5  6  1  0
  6  7  1  0
  7  8  1  0
  8  9  1  0
  9 10  1  0
 10 11  2  0
 11 12  1  0
 12 13  2  0
 13 14  1  0
 14 15  2  0
  8 16  1  0
 16 17  1  0
 17 18  2  0
 17 19  1  0
 19 20  1  0
 20 21  1  0
 19 22  1  0
 22 23  1  0
 23 24  2  0
 23 25  1  0
 25 26  1  0
 26 27  1  0
 27 28  1  0
 27 29  1  0
 25 30  1  0
 30 31  1  0
 31 32  2  0
 31 33  1  0
 33 34  1  0
 34 35  1  0
 35 36  2  0
 36 37  1  0
 37 38  2  0
 38 39  1  0
 33 40  1  0
 40 41  1  0
 41 42  2  0
 41 43  1  0
 43 44  1  0
 44 45  1  0
 45 46  1  0
 46 47  1  0
  5 48  1  0
 48 49  2  0
 48 50  1  0
 50 51  1  0
 51 52  1  0
 51 53  1  0
 53 54  2  0
 53 55  1  0
 55 56  1  0
 56 57  1  0
 57 58  1  0
 58 59  2  0
 59 60  1  0
 60 61  2  0
 61 62  1  0
 56 63  1  0
 63 64  2  0
 63 65  1  0
 15 10  1  0
 39 35  1  0
 47 43  1  0
 62 58  1  0
  1 66  1  0
  1 67  1  0
  1 68  1  0
  3 69  1  0
  3 70  1  0
  4 71  1  0
  4 72  1  0
  5 73  1  1
  6 74  1  0
  6 75  1  0
  7 76  1  0
  7 77  1  0
  8 78  1  6
  9 79  1  0
  9 80  1  0
 11 81  1  0
 12 82  1  0
 13 83  1  0
 14 84  1  0
 15 85  1  0
 16 86  1  0
 19 87  1  1
 20 88  1  0
 20 89  1  0
 21 90  1  0
 22 91  1  0
 25 92  1  6
 26 93  1  0
 26 94  1  0
 27 95  1  0
 28 96  1  0
 28 97  1  0
 28 98  1  0
 29 99  1  0
 29100  1  0
 29101  1  0
 30102  1  0
 33103  1  1
 34104  1  0
 34105  1  0
 36106  1  0
 38107  1  0
 39108  1  0
 40109  1  0
 43110  1  1
 44111  1  0
 44112  1  0
 45113  1  0
 45114  1  0
 46115  1  0
 46116  1  0
 47117  1  0
 47118  1  0
 50119  1  0
 51120  1  6
 52121  1  0
 52122  1  0
 52123  1  0
 55124  1  0
 56125  1  1
 57126  1  0
 57127  1  0
 59128  1  0
 60129  1  0
 61130  1  0
 62131  1  0
M  CHG  4   6   1  47   1  60   1  65  -1
M  END
>  <meeko>  (3) 
{"is_sidechain": [false], "free_energy": -8.206, "intermolecular_energy": -22.221, "internal_energy": -5.639}

$$$$
3uri_ligand
     RDKit          3D

131134  0  0  0  0  0  0  0  0999 V2000
    1.6870   30.1240   23.5270 C   0  0  0  0  0  0  0  0  0  0  0  0
    2.7980   29.9390   22.1070 S   0  0  0  0  0  0  0  0  0  0  0  0
    3.0030   28.1330   22.1780 C   0  0  0  0  0  0  0  0  0  0  0  0
    3.2050   27.5830   20.7640 C   0  0  0  0  0  0  0  0  0  0  0  0
    4.0090   26.2760   20.6820 C   0  0  2  0  0  0  0  0  0  0  0  0
    5.0960   26.3430   19.6480 N   0  0  0  0  0  0  0  0  0  0  0  0
    5.9860   27.5240   19.5990 C   0  0  0  0  0  0  0  0  0  0  0  0
    6.1190   28.1640   18.1810 C   0  0  2  0  0  0  0  0  0  0  0  0
    7.4820   28.8330   17.8670 C   0  0  0  0  0  0  0  0  0  0  0  0
    7.9470   29.9340   18.7970 C   0  0  0  0  0  0  0  0  0  0  0  0
    7.1560   30.4160   19.8450 C   0  0  0  0  0  0  0  0  0  0  0  0
    7.6390   31.4150   20.6950 C   0  0  0  0  0  0  0  0  0  0  0  0
    8.9090   31.9510   20.4990 C   0  0  0  0  0  0  0  0  0  0  0  0
    9.6970   31.4990   19.4440 C   0  0  0  0  0  0  0  0  0  0  0  0
    9.2170   30.5020   18.5960 C   0  0  0  0  0  0  0  0  0  0  0  0
    5.0280   29.1100   17.8760 N   0  0  0  0  0  0  0  0  0  0  0  0
    3.8200   28.6980   17.3410 C   0  0  0  0  0  0  0  0  0  0  0  0
    3.5320   27.5110   17.2160 O   0  0  0  0  0  0  0  0  0  0  0  0
    2.9430   29.8250   16.7640 C   0  0  2  0  0  0  0  0  0  0  0  0
    1.7530   29.1820   16.0420 C   0  0  0  0  0  0  0  0  0  0  0  0
    1.0210   30.1970   15.3330 O   0  0  0  0  0  0  0  0  0  0  0  0
    3.6940   30.6690   15.8270 N   0  0  0  0  0  0  0  0  0  0  0  0
    3.5180   32.0310   15.7810 C   0  0  0  0  0  0  0  0  0  0  0  0
    2.7040   32.5990   16.5100 O   0  0  0  0  0  0  0  0  0  0  0  0
    4.3410   32.7840   14.6960 C   0  0  2  0  0  0  0  0  0  0  0  0
    5.6170   33.4640   15.2300 C   0  0  0  0  0  0  0  0  0  0  0  0
    6.3990   32.7250   16.3400 C   0  0  0  0  0  0  0  0  0  0  0  0
    7.8180   32.3510   15.9120 C   0  0  0  0  0  0  0  0  0  0  0  0
    6.4240   33.4680   17.6750 C   0  0  0  0  0  0  0  0  0  0  0  0
    3.4290   33.6550   13.9520 N   0  0  0  0  0  0  0  0  0  0  0  0
    3.8050   34.2900   12.7850 C   0  0  0  0  0  0  0  0  0  0  0  0
    4.8360   34.0230   12.1710 O   0  0  0  0  0  0  0  0  0  0  0  0
    2.9170   35.4770   12.3550 C   0  0  2  0  0  0  0  0  0  0  0  0
    1.8940   35.0000   11.2970 C   0  0  0  0  0  0  0  0  0  0  0  0
    0.4950   34.9610   11.8230 C   0  0  0  0  0  0  0  0  0  0  0  0
   -0.5960   35.7820   11.6420 C   0  0  0  0  0  0  0  0  0  0  0  0
   -1.7140   35.2280   12.1990 N   0  0  0  0  0  0  0  0  0  0  0  0
   -1.2940   34.1640   12.8450 C   0  0  0  0  0  0  0  0  0  0  0  0
    0.0440   33.9660   12.6600 N   0  0  0  0  0  0  0  0  0  0  0  0
    3.6470   36.7170   11.9770 N   0  0  0  0  0  0  0  0  0  0  0  0
    3.5520   37.8830   12.7170 C   0  0  0  0  0  0  0  0  0  0  0  0
    2.6310   38.1030   13.4960 O   0  0  0  0  0  0  0  0  0  0  0  0
    4.6550   38.9170   12.3910 C   0  0  2  0  0  0  0  0  0  0  0  0
    4.4230   40.2790   13.0330 C   0  0  0  0  0  0  0  0  0  0  0  0
    3.6150   41.0380   11.9960 C   0  0  0  0  0  0  0  0  0  0  0  0
    4.2750   40.6490   10.6920 C   0  0  0  0  0  0  0  0  0  0  0  0
    4.6800   39.2180   10.8940 N   0  0  0  0  0  0  0  0  0  0  0  0
    3.1050   25.0390   20.4140 C   0  0  0  0  0  0  0  0  0  0  0  0
    2.9060   24.1550   21.2430 O   0  0  0  0  0  0  0  0  0  0  0  0
    2.4600   25.0470   19.1880 N   0  0  0  0  0  0  0  0  0  0  0  0
    1.3340   24.1560   18.8700 C   0  0  1  0  0  0  0  0  0  0  0  0
    1.5390   22.6980   19.2590 C   0  0  0  0  0  0  0  0  0  0  0  0
    0.0250   24.7650   19.4250 C   0  0  0  0  0  0  0  0  0  0  0  0
   -1.0200   24.1180   19.4820 O   0  0  0  0  0  0  0  0  0  0  0  0
    0.1020   26.0880   19.8200 N   0  0  0  0  0  0  0  0  0  0  0  0
   -1.0920   26.9660   19.6920 C   0  0  1  0  0  0  0  0  0  0  0  0
   -1.6990   27.2720   21.0610 C   0  0  0  0  0  0  0  0  0  0  0  0
   -2.6650   26.2460   21.5280 C   0  0  0  0  0  0  0  0  0  0  0  0
   -4.0380   26.1600   21.4990 C   0  0  0  0  0  0  0  0  0  0  0  0
   -4.3850   24.9700   22.0990 N   0  0  0  0  0  0  0  0  0  0  0  0
   -3.2930   24.3160   22.5010 C   0  0  0  0  0  0  0  0  0  0  0  0
   -2.2510   25.0770   22.1610 N   0  0  0  0  0  0  0  0  0  0  0  0
   -0.7520   28.2980   18.9580 C   0  0  0  0  0  0  0  0  0  0  0  0
    0.1890   28.9950   19.4100 O   0  0  0  0  0  0  0  0  0  0  0  0
   -1.4230   28.5220   17.8980 O   0  0  0  0  0  0  0  0  0  0  0  0
    2.2637   30.0280   24.4587 H   0  0  0  0  0  0  0  0  0  0  0  0
    1.2090   31.1141   23.4920 H   0  0  0  0  0  0  0  0  0  0  0  0
    0.9140   29.3422   23.4920 H   0  0  0  0  0  0  0  0  0  0  0  0
    3.8803   27.8881   22.7948 H   0  0  0  0  0  0  0  0  0  0  0  0
    2.1035   27.6805   22.6209 H   0  0  0  0  0  0  0  0  0  0  0  0
    2.2133   27.4013   20.3241 H   0  0  0  0  0  0  0  0  0  0  0  0
    3.7926   28.3388   20.2222 H   0  0  0  0  0  0  0  0  0  0  0  0
    4.4751   26.1537   21.6709 H   0  0  0  0  0  0  0  0  0  0  0  0
    5.6500   25.4860   19.7180 H   0  0  0  0  0  0  0  0  0  0  0  0
    4.6640   26.1330   18.7030 H   0  0  0  0  0  0  0  0  0  0  0  0
    5.5876   28.2855   20.2856 H   0  0  0  0  0  0  0  0  0  0  0  0
    6.9897   27.1768   19.8856 H   0  0  0  0  0  0  0  0  0  0  0  0
    6.0466   27.2872   17.5207 H   0  0  0  0  0  0  0  0  0  0  0  0
    8.2481   28.0438   17.8805 H   0  0  0  0  0  0  0  0  0  0  0  0
    7.3361   29.3276   16.8953 H   0  0  0  0  0  0  0  0  0  0  0  0
    6.1472   30.0062   20.0013 H   0  0  0  0  0  0  0  0  0  0  0  0
    7.0128   31.7794   21.5227 H   0  0  0  0  0  0  0  0  0  0  0  0
    9.2890   32.7300   21.1763 H   0  0  0  0  0  0  0  0  0  0  0  0
   10.6966   31.9278   19.2798 H   0  0  0  0  0  0  0  0  0  0  0  0
    9.8403   30.1552   17.7586 H   0  0  0  0  0  0  0  0  0  0  0  0
    5.3020   30.0360   17.5570 H   0  0  0  0  0  0  0  0  0  0  0  0
    2.6015   30.4702   17.5868 H   0  0  0  0  0  0  0  0  0  0  0  0
    2.1194   28.4282   15.3296 H   0  0  0  0  0  0  0  0  0  0  0  0
    1.0934   28.6988   16.7778 H   0  0  0  0  0  0  0  0  0  0  0  0
    0.8070   29.8170   14.4570 H   0  0  0  0  0  0  0  0  0  0  0  0
    4.3570   30.1900   15.2290 H   0  0  0  0  0  0  0  0  0  0  0  0
    4.7679   32.0563   13.9901 H   0  0  0  0  0  0  0  0  0  0  0  0
    6.3002   33.6008   14.3788 H   0  0  0  0  0  0  0  0  0  0  0  0
    5.2669   34.3944   15.7009 H   0  0  0  0  0  0  0  0  0  0  0  0
    5.8325   31.7959   16.5006 H   0  0  0  0  0  0  0  0  0  0  0  0
    8.4392   32.1873   16.8049 H   0  0  0  0  0  0  0  0  0  0  0  0
    7.7891   31.4298   15.3115 H   0  0  0  0  0  0  0  0  0  0  0  0
    8.2469   33.1668   15.3115 H   0  0  0  0  0  0  0  0  0  0  0  0
    6.3995   32.7407   18.4999 H   0  0  0  0  0  0  0  0  0  0  0  0
    7.3429   34.0689   17.7431 H   0  0  0  0  0  0  0  0  0  0  0  0
    5.5476   34.1293   17.7431 H   0  0  0  0  0  0  0  0  0  0  0  0
    2.8030   34.2050   14.5420 H   0  0  0  0  0  0  0  0  0  0  0  0
    2.3682   35.8077   13.2491 H   0  0  0  0  0  0  0  0  0  0  0  0
    1.9283   35.6878   10.4392 H   0  0  0  0  0  0  0  0  0  0  0  0
    2.1688   33.9748   11.0079 H   0  0  0  0  0  0  0  0  0  0  0  0
   -0.5708   36.7504   11.1208 H   0  0  0  0  0  0  0  0  0  0  0  0
   -1.9382   33.5154   13.4569 H   0  0  0  0  0  0  0  0  0  0  0  0
    0.5930   33.2150   13.0590 H   0  0  0  0  0  0  0  0  0  0  0  0
    4.5610   36.5090   11.5900 H   0  0  0  0  0  0  0  0  0  0  0  0
    5.5795   38.4569   12.7700 H   0  0  0  0  0  0  0  0  0  0  0  0
    3.8588   40.1782   13.9719 H   0  0  0  0  0  0  0  0  0  0  0  0
    5.3611   40.7892   13.2967 H   0  0  0  0  0  0  0  0  0  0  0  0
    2.5601   40.7267   12.0125 H   0  0  0  0  0  0  0  0  0  0  0  0
    3.6049   42.1245   12.1673 H   0  0  0  0  0  0  0  0  0  0  0  0
    3.5672   40.7392    9.8548 H   0  0  0  0  0  0  0  0  0  0  0  0
    5.1289   41.2964   10.4435 H   0  0  0  0  0  0  0  0  0  0  0  0
    4.0240   38.5930   10.4040 H   0  0  0  0  0  0  0  0  0  0  0  0
    5.6130   39.0490   10.4970 H   0  0  0  0  0  0  0  0  0  0  0  0
    2.6360   25.7810   18.5120 H   0  0  0  0  0  0  0  0  0  0  0  0
    1.2628   24.1003   17.7737 H   0  0  0  0  0  0  0  0  0  0  0  0
    1.5515   22.6093   20.3553 H   0  0  0  0  0  0  0  0  0  0  0  0
    0.7174   22.0907   18.8513 H   0  0  0  0  0  0  0  0  0  0  0  0
    2.4962   22.3408   18.8513 H   0  0  0  0  0  0  0  0  0  0  0  0
    0.9760   26.5540   19.5620 H   0  0  0  0  0  0  0  0  0  0  0  0
   -1.8293   26.4166   19.0882 H   0  0  0  0  0  0  0  0  0  0  0  0
   -0.8829   27.3404   21.7954 H   0  0  0  0  0  0  0  0  0  0  0  0
   -2.2550   28.2160   20.9625 H   0  0  0  0  0  0  0  0  0  0  0  0
   -4.7295   26.9032   21.0755 H   0  0  0  0  0  0  0  0  0  0  0  0
   -5.3360   24.6340   22.2250 H   0  0  0  0  0  0  0  0  0  0  0  0
   -3.2589   23.3423   23.0116 H   0  0  0  0  0  0  0  0  0  0  0  0
   -1.2780   24.8410   22.3450 H   0  0  0  0  0  0  0  0  0  0  0  0
  1  2  1  0
  2  3  1  0
  3  4  1  0
  4  5  1  0
  5  6  1  0
  6  7  1  0
  7  8  1  0
  8  9  1  0
  9 10  1  0
 10 11  2  0
 11 12  1  0
 12 13  2  0
 13 14  1  0
 14 15  2  0
  8 16  1  0
 16 17  1  0
 17 18  2  0
 17 19  1  0
 19 20  1  0
 20 21  1  0
 19 22  1  0
 22 23  1  0
 23 24  2  0
 23 25  1  0
 25 26  1  0
 26 27  1  0
 27 28  1  0
 27 29  1  0
 25 30  1  0
 30 31  1  0
 31 32  2  0
 31 33  1  0
 33 34  1  0
 34 35  1  0
 35 36  2  0
 36 37  1  0
 37 38  2  0
 38 39  1  0
 33 40  1  0
 40 41  1  0
 41 42  2  0
 41 43  1  0
 43 44  1  0
 44 45  1  0
 45 46  1  0
 46 47  1  0
  5 48  1  0
 48 49  2  0
 48 50  1  0
 50 51  1  0
 51 52  1  0
 51 53  1  0
 53 54  2  0
 53 55  1  0
 55 56  1  0
 56 57  1  0
 57 58  1  0
 58 59  2  0
 59 60  1  0
 60 61  2  0
 61 62  1  0
 56 63  1  0
 63 64  2  0
 63 65  1  0
 15 10  1  0
 39 35  1  0
 47 43  1  0
 62 58  1  0
  1 66  1  0
  1 67  1  0
  1 68  1  0
  3 69  1  0
  3 70  1  0
  4 71  1  0
  4 72  1  0
  5 73  1  1
  6 74  1  0
  6 75  1  0
  7 76  1  0
  7 77  1  0
  8 78  1  6
  9 79  1  0
  9 80  1  0
 11 81  1  0
 12 82  1  0
 13 83  1  0
 14 84  1  0
 15 85  1  0
 16 86  1  0
 19 87  1  1
 20 88  1  0
 20 89  1  0
 21 90  1  0
 22 91  1  0
 25 92  1  6
 26 93  1  0
 26 94  1  0
 27 95  1  0
 28 96  1  0
 28 97  1  0
 28 98  1  0
 29 99  1  0
 29100  1  0
 29101  1  0
 30102  1  0
 33103  1  1
 34104  1  0
 34105  1  0
 36106  1  0
 38107  1  0
 39108  1  0
 40109  1  0
 43110  1  1
 44111  1  0
 44112  1  0
 45113  1  0
 45114  1  0
 46115  1  0
 46116  1  0
 47117  1  0
 47118  1  0
 50119  1  0
 51120  1  6
 52121  1  0
 52122  1  0
 52123  1  0
 55124  1  0
 56125  1  6
 57126  1  0
 57127  1  0
 59128  1  0
 60129  1  0
 61130  1  0
 62131  1  0
M  CHG  4   6   1  47   1  60   1  65  -1
M  END
>  <meeko>  (4) 
{"is_sidechain": [false], "free_energy": -8.163, "intermolecular_energy": -23.303, "internal_energy": -4.442}

$$$$
3uri_ligand
     RDKit          3D

131134  0  0  0  0  0  0  0  0999 V2000
    2.4140   22.3670   22.2060 C   0  0  0  0  0  0  0  0  0  0  0  0
    0.7130   21.9420   21.7450 S   0  0  0  0  0  0  0  0  0  0  0  0
    0.6080   22.9270   20.2190 C   0  0  0  0  0  0  0  0  0  0  0  0
    2.0160   23.3130   19.7590 C   0  0  0  0  0  0  0  0  0  0  0  0
    2.1750   24.7710   19.3010 C   0  0  2  0  0  0  0  0  0  0  0  0
    2.7470   25.6450   20.3800 N   0  0  0  0  0  0  0  0  0  0  0  0
    4.2100   25.6780   20.5940 C   0  0  0  0  0  0  0  0  0  0  0  0
    4.9110   26.9470   20.0130 C   0  0  2  0  0  0  0  0  0  0  0  0
    5.6680   27.8310   21.0390 C   0  0  0  0  0  0  0  0  0  0  0  0
    6.7120   28.7840   20.4980 C   0  0  0  0  0  0  0  0  0  0  0  0
    7.8990   28.3410   19.9040 C   0  0  0  0  0  0  0  0  0  0  0  0
    8.8220   29.2580   19.3940 C   0  0  0  0  0  0  0  0  0  0  0  0
    8.5770   30.6260   19.4860 C   0  0  0  0  0  0  0  0  0  0  0  0
    7.4130   31.0820   20.0980 C   0  0  0  0  0  0  0  0  0  0  0  0
    6.4900   30.1680   20.6060 C   0  0  0  0  0  0  0  0  0  0  0  0
    3.9970   27.7920   19.2210 N   0  0  0  0  0  0  0  0  0  0  0  0
    4.3030   28.2130   17.9390 C   0  0  0  0  0  0  0  0  0  0  0  0
    5.2870   27.7960   17.3330 O   0  0  0  0  0  0  0  0  0  0  0  0
    3.4230   29.3540   17.3970 C   0  0  2  0  0  0  0  0  0  0  0  0
    2.4650   28.7660   16.3540 C   0  0  0  0  0  0  0  0  0  0  0  0
    2.4190   27.3370   16.5010 O   0  0  0  0  0  0  0  0  0  0  0  0
    4.2310   30.4150   16.7830 N   0  0  0  0  0  0  0  0  0  0  0  0
    3.6810   31.6140   16.4010 C   0  0  0  0  0  0  0  0  0  0  0  0
    2.4770   31.8400   16.5350 O   0  0  0  0  0  0  0  0  0  0  0  0
    4.6510   32.6170   15.7110 C   0  0  2  0  0  0  0  0  0  0  0  0
    5.5160   33.4330   16.6910 C   0  0  0  0  0  0  0  0  0  0  0  0
    6.9490   32.9200   16.9630 C   0  0  0  0  0  0  0  0  0  0  0  0
    7.6680   32.4780   15.6890 C   0  0  0  0  0  0  0  0  0  0  0  0
    7.8150   33.9020   17.7510 C   0  0  0  0  0  0  0  0  0  0  0  0
    3.8840   33.4040   14.7440 N   0  0  0  0  0  0  0  0  0  0  0  0
    4.2810   33.5430   13.4280 C   0  0  0  0  0  0  0  0  0  0  0  0
    5.1710   32.8680   12.9150 O   0  0  0  0  0  0  0  0  0  0  0  0
    3.6340   34.7120   12.6560 C   0  0  2  0  0  0  0  0  0  0  0  0
    3.4560   35.9220   13.6040 C   0  0  0  0  0  0  0  0  0  0  0  0
    3.2930   37.2130   12.8690 C   0  0  0  0  0  0  0  0  0  0  0  0
    2.3070   38.1760   12.8750 C   0  0  0  0  0  0  0  0  0  0  0  0
    2.6980   39.2700   12.1550 N   0  0  0  0  0  0  0  0  0  0  0  0
    3.8320   38.9300   11.5870 C   0  0  0  0  0  0  0  0  0  0  0  0
    4.2300   37.6830   11.9770 N   0  0  0  0  0  0  0  0  0  0  0  0
    2.4150   34.3670   11.8760 N   0  0  0  0  0  0  0  0  0  0  0  0
    1.3080   33.7770   12.4620 C   0  0  0  0  0  0  0  0  0  0  0  0
    1.3600   33.1850   13.5340 O   0  0  0  0  0  0  0  0  0  0  0  0
    0.0330   33.8460   11.5890 C   0  0  2  0  0  0  0  0  0  0  0  0
    0.0750   34.9460   10.5350 C   0  0  0  0  0  0  0  0  0  0  0  0
   -0.5240   36.1490   11.2400 C   0  0  0  0  0  0  0  0  0  0  0  0
   -1.6770   35.5550   12.0180 C   0  0  0  0  0  0  0  0  0  0  0  0
   -1.1800   34.2050   12.4430 N   0  0  0  0  0  0  0  0  0  0  0  0
    0.8400   25.3790   18.7840 C   0  0  0  0  0  0  0  0  0  0  0  0
    0.4520   25.2680   17.6240 O   0  0  0  0  0  0  0  0  0  0  0  0
    0.0660   25.9890   19.7570 N   0  0  0  0  0  0  0  0  0  0  0  0
   -1.3480   26.3370   19.5520 C   0  0  1  0  0  0  0  0  0  0  0  0
   -2.3380   25.4970   20.3480 C   0  0  0  0  0  0  0  0  0  0  0  0
   -1.5350   27.8610   19.7470 C   0  0  0  0  0  0  0  0  0  0  0  0
   -1.2460   28.4220   20.8030 O   0  0  0  0  0  0  0  0  0  0  0  0
   -2.0760   28.5380   18.6700 N   0  0  0  0  0  0  0  0  0  0  0  0
   -2.9290   29.7340   18.9050 C   0  0  1  0  0  0  0  0  0  0  0  0
   -2.1230   31.0230   18.7500 C   0  0  0  0  0  0  0  0  0  0  0  0
   -1.5880   31.2310   17.3800 C   0  0  0  0  0  0  0  0  0  0  0  0
   -0.4420   30.8170   16.7420 C   0  0  0  0  0  0  0  0  0  0  0  0
   -0.4770   31.3350   15.4660 N   0  0  0  0  0  0  0  0  0  0  0  0
   -1.5870   32.0520   15.2850 C   0  0  0  0  0  0  0  0  0  0  0  0
   -2.2640   31.9960   16.4330 N   0  0  0  0  0  0  0  0  0  0  0  0
   -4.1580   29.7630   17.9460 C   0  0  0  0  0  0  0  0  0  0  0  0
   -4.4190   28.7230   17.2940 O   0  0  0  0  0  0  0  0  0  0  0  0
   -4.8450   30.8360   17.9750 O   0  0  0  0  0  0  0  0  0  0  0  0
    2.5022   22.3890   23.3022 H   0  0  0  0  0  0  0  0  0  0  0  0
    3.1037   21.6136   21.7977 H   0  0  0  0  0  0  0  0  0  0  0  0
    2.6683   23.3563   21.7977 H   0  0  0  0  0  0  0  0  0  0  0  0
    0.1160   22.3342   19.4338 H   0  0  0  0  0  0  0  0  0  0  0  0
    0.0241   23.8389   20.4123 H   0  0  0  0  0  0  0  0  0  0  0  0
    2.7073   23.1418   20.5973 H   0  0  0  0  0  0  0  0  0  0  0  0
    2.2323   22.6899   18.8787 H   0  0  0  0  0  0  0  0  0  0  0  0
    2.8867   24.7416   18.4628 H   0  0  0  0  0  0  0  0  0  0  0  0
    2.3880   26.5930   20.2400 H   0  0  0  0  0  0  0  0  0  0  0  0
    2.2190   25.4460   21.2780 H   0  0  0  0  0  0  0  0  0  0  0  0
    4.4016   25.6426   21.6766 H   0  0  0  0  0  0  0  0  0  0  0  0
    4.6283   24.8121   20.0600 H   0  0  0  0  0  0  0  0  0  0  0  0
    5.6784   26.5107   19.3566 H   0  0  0  0  0  0  0  0  0  0  0  0
    4.9180   28.4318   21.5742 H   0  0  0  0  0  0  0  0  0  0  0  0
    6.2305   27.1207   21.6627 H   0  0  0  0  0  0  0  0  0  0  0  0
    8.1071   27.2629   19.8380 H   0  0  0  0  0  0  0  0  0  0  0  0
    9.7459   28.8979   18.9179 H   0  0  0  0  0  0  0  0  0  0  0  0
    9.3019   31.3445   19.0759 H   0  0  0  0  0  0  0  0  0  0  0  0
    7.2213   32.1620   20.1809 H   0  0  0  0  0  0  0  0  0  0  0  0
    5.5767   30.5347   21.0974 H   0  0  0  0  0  0  0  0  0  0  0  0
    3.4440   28.4740   19.7350 H   0  0  0  0  0  0  0  0  0  0  0  0
    2.8665   29.8039   18.2324 H   0  0  0  0  0  0  0  0  0  0  0  0
    1.4582   29.1831   16.5039 H   0  0  0  0  0  0  0  0  0  0  0  0
    2.8195   29.0206   15.3443 H   0  0  0  0  0  0  0  0  0  0  0  0
    1.6710   27.1480   17.1010 H   0  0  0  0  0  0  0  0  0  0  0  0
    5.2190   30.2160   16.6730 H   0  0  0  0  0  0  0  0  0  0  0  0
    5.4227   32.0600   15.1595 H   0  0  0  0  0  0  0  0  0  0  0  0
    5.6004   34.4530   16.2878 H   0  0  0  0  0  0  0  0  0  0  0  0
    4.9984   33.3559   17.6585 H   0  0  0  0  0  0  0  0  0  0  0  0
    6.8065   32.0352   17.6008 H   0  0  0  0  0  0  0  0  0  0  0  0
    8.5771   31.9192   15.9561 H   0  0  0  0  0  0  0  0  0  0  0  0
    7.0019   31.8332   15.0969 H   0  0  0  0  0  0  0  0  0  0  0  0
    7.9426   33.3635   15.0969 H   0  0  0  0  0  0  0  0  0  0  0  0
    7.6691   33.7365   18.8286 H   0  0  0  0  0  0  0  0  0  0  0  0
    8.8733   33.7441   17.4958 H   0  0  0  0  0  0  0  0  0  0  0  0
    7.5260   34.9322   17.4958 H   0  0  0  0  0  0  0  0  0  0  0  0
    3.4460   34.2380   15.1370 H   0  0  0  0  0  0  0  0  0  0  0  0
    4.3342   34.9941   11.8559 H   0  0  0  0  0  0  0  0  0  0  0  0
    2.5626   35.7549   14.2236 H   0  0  0  0  0  0  0  0  0  0  0  0
    4.3670   36.0012   14.2155 H   0  0  0  0  0  0  0  0  0  0  0  0
    1.3391   38.0777   13.3883 H   0  0  0  0  0  0  0  0  0  0  0  0
    4.3903   39.5682   10.8863 H   0  0  0  0  0  0  0  0  0  0  0  0
    5.0690   37.2060   11.6710 H   0  0  0  0  0  0  0  0  0  0  0  0
    2.2240   35.0550   11.1570 H   0  0  0  0  0  0  0  0  0  0  0  0
   -0.0291   32.8535   11.1187 H   0  0  0  0  0  0  0  0  0  0  0  0
    1.1099   35.1502   10.2232 H   0  0  0  0  0  0  0  0  0  0  0  0
   -0.4698   34.6765    9.6182 H   0  0  0  0  0  0  0  0  0  0  0  0
    0.2085   36.6157   11.9150 H   0  0  0  0  0  0  0  0  0  0  0  0
   -0.8356   36.9442   10.5468 H   0  0  0  0  0  0  0  0  0  0  0  0
   -1.9169   36.1756   12.8940 H   0  0  0  0  0  0  0  0  0  0  0  0
   -2.5998   35.4950   11.4222 H   0  0  0  0  0  0  0  0  0  0  0  0
   -0.9100   34.2250   13.4380 H   0  0  0  0  0  0  0  0  0  0  0  0
   -1.9240   33.5010   12.3460 H   0  0  0  0  0  0  0  0  0  0  0  0
    0.4000   26.0750   20.7090 H   0  0  0  0  0  0  0  0  0  0  0  0
   -1.5994   26.0780   18.5129 H   0  0  0  0  0  0  0  0  0  0  0  0
   -2.1630   25.6455   21.4238 H   0  0  0  0  0  0  0  0  0  0  0  0
   -3.3641   25.8042   20.0976 H   0  0  0  0  0  0  0  0  0  0  0  0
   -2.2019   24.4346   20.0976 H   0  0  0  0  0  0  0  0  0  0  0  0
   -2.4280   27.9310   17.9240 H   0  0  0  0  0  0  0  0  0  0  0  0
   -3.2985   29.6652   19.9388 H   0  0  0  0  0  0  0  0  0  0  0  0
   -2.7750   31.8727   19.0010 H   0  0  0  0  0  0  0  0  0  0  0  0
   -1.2578   30.9445   19.4247 H   0  0  0  0  0  0  0  0  0  0  0  0
    0.3536   30.1897   17.1704 H   0  0  0  0  0  0  0  0  0  0  0  0
    0.2410   31.1960   14.7600 H   0  0  0  0  0  0  0  0  0  0  0  0
   -1.8853   32.5844   14.3698 H   0  0  0  0  0  0  0  0  0  0  0  0
   -3.1560   32.4560   16.6020 H   0  0  0  0  0  0  0  0  0  0  0  0
  1  2  1  0
  2  3  1  0
  3  4  1  0
  4  5  1  0
  5  6  1  0
  6  7  1  0
  7  8  1  0
  8  9  1  0
  9 10  1  0
 10 11  2  0
 11 12  1  0
 12 13  2  0
 13 14  1  0
 14 15  2  0
  8 16  1  0
 16 17  1  0
 17 18  2  0
 17 19  1  0
 19 20  1  0
 20 21  1  0
 19 22  1  0
 22 23  1  0
 23 24  2  0
 23 25  1  0
 25 26  1  0
 26 27  1  0
 27 28  1  0
 27 29  1  0
 25 30  1  0
 30 31  1  0
 31 32  2  0
 31 33  1  0
 33 34  1  0
 34 35  1  0
 35 36  2  0
 36 37  1  0
 37 38  2  0
 38 39  1  0
 33 40  1  0
 40 41  1  0
 41 42  2  0
 41 43  1  0
 43 44  1  0
 44 45  1  0
 45 46  1  0
 46 47  1  0
  5 48  1  0
 48 49  2  0
 48 50  1  0
 50 51  1  0
 51 52  1  0
 51 53  1  0
 53 54  2  0
 53 55  1  0
 55 56  1  0
 56 57  1  0
 57 58  1  0
 58 59  2  0
 59 60  1  0
 60 61  2  0
 61 62  1  0
 56 63  1  0
 63 64  2  0
 63 65  1  0
 15 10  1  0
 39 35  1  0
 47 43  1  0
 62 58  1  0
  1 66  1  0
  1 67  1  0
  1 68  1  0
  3 69  1  0
  3 70  1  0
  4 71  1  0
  4 72  1  0
  5 73  1  6
  6 74  1  0
  6 75  1  0
  7 76  1  0
  7 77  1  0
  8 78  1  6
  9 79  1  0
  9 80  1  0
 11 81  1  0
 12 82  1  0
 13 83  1  0
 14 84  1  0
 15 85  1  0
 16 86  1  0
 19 87  1  1
 20 88  1  0
 20 89  1  0
 21 90  1  0
 22 91  1  0
 25 92  1  6
 26 93  1  0
 26 94  1  0
 27 95  1  0
 28 96  1  0
 28 97  1  0
 28 98  1  0
 29 99  1  0
 29100  1  0
 29101  1  0
 30102  1  0
 33103  1  6
 34104  1  0
 34105  1  0
 36106  1  0
 38107  1  0
 39108  1  0
 40109  1  0
 43110  1  6
 44111  1  0
 44112  1  0
 45113  1  0
 45114  1  0
 46115  1  0
 46116  1  0
 47117  1  0
 47118  1  0
 50119  1  0
 51120  1  6
 52121  1  0
 52122  1  0
 52123  1  0
 55124  1  0
 56125  1  1
 57126  1  0
 57127  1  0
 59128  1  0
 60129  1  0
 61130  1  0
 62131  1  0
M  CHG  4   6   1  47   1  60   1  65  -1
M  END
>  <meeko>  (5) 
{"is_sidechain": [false], "free_energy": -8.142, "intermolecular_energy": -22.308, "internal_energy": -5.381}

$$$$
3uri_ligand
     RDKit          3D

131134  0  0  0  0  0  0  0  0999 V2000
    7.7010   27.8120   22.9070 C   0  0  0  0  0  0  0  0  0  0  0  0
    7.2460   26.0640   22.7450 S   0  0  0  0  0  0  0  0  0  0  0  0
    5.4900   26.2150   23.1960 C   0  0  0  0  0  0  0  0  0  0  0  0
    4.6910   26.7120   21.9900 C   0  0  0  0  0  0  0  0  0  0  0  0
    4.5860   25.7170   20.8230 C   0  0  2  0  0  0  0  0  0  0  0  0
    4.9630   26.3410   19.5100 N   0  0  0  0  0  0  0  0  0  0  0  0
    5.9240   27.4640   19.4840 C   0  0  0  0  0  0  0  0  0  0  0  0
    6.0270   28.1850   18.1030 C   0  0  2  0  0  0  0  0  0  0  0  0
    7.3630   28.9200   17.8210 C   0  0  0  0  0  0  0  0  0  0  0  0
    7.7850   29.9940   18.8000 C   0  0  0  0  0  0  0  0  0  0  0  0
    9.0390   30.6130   18.7430 C   0  0  0  0  0  0  0  0  0  0  0  0
    9.3740   31.6200   19.6520 C   0  0  0  0  0  0  0  0  0  0  0  0
    8.4680   32.0090   20.6360 C   0  0  0  0  0  0  0  0  0  0  0  0
    7.2280   31.3840   20.7210 C   0  0  0  0  0  0  0  0  0  0  0  0
    6.8910   30.3800   19.8140 C   0  0  0  0  0  0  0  0  0  0  0  0
    4.9000   29.1050   17.8540 N   0  0  0  0  0  0  0  0  0  0  0  0
    3.7580   28.7110   17.1800 C   0  0  0  0  0  0  0  0  0  0  0  0
    3.5540   27.5400   16.8720 O   0  0  0  0  0  0  0  0  0  0  0  0
    2.8500   29.8600   16.7030 C   0  0  2  0  0  0  0  0  0  0  0  0
    1.6360   29.2480   15.9960 C   0  0  0  0  0  0  0  0  0  0  0  0
    0.5080   30.1280   16.1370 O   0  0  0  0  0  0  0  0  0  0  0  0
    3.5570   30.7600   15.7840 N   0  0  0  0  0  0  0  0  0  0  0  0
    3.3160   32.1130   15.7690 C   0  0  0  0  0  0  0  0  0  0  0  0
    2.4780   32.6240   16.5130 O   0  0  0  0  0  0  0  0  0  0  0  0
    4.0980   32.9290   14.6990 C   0  0  2  0  0  0  0  0  0  0  0  0
    5.3840   33.5930   15.2280 C   0  0  0  0  0  0  0  0  0  0  0  0
    6.2060   32.8060   16.2740 C   0  0  0  0  0  0  0  0  0  0  0  0
    7.6230   32.4930   15.7950 C   0  0  0  0  0  0  0  0  0  0  0  0
    6.2440   33.4670   17.6520 C   0  0  0  0  0  0  0  0  0  0  0  0
    3.1550   33.8280   14.0310 N   0  0  0  0  0  0  0  0  0  0  0  0
    3.4740   34.4940   12.8630 C   0  0  0  0  0  0  0  0  0  0  0  0
    4.4690   34.2370   12.1880 O   0  0  0  0  0  0  0  0  0  0  0  0
    2.5760   35.6990   12.5150 C   0  0  2  0  0  0  0  0  0  0  0  0
    3.0680   36.9490   13.2830 C   0  0  0  0  0  0  0  0  0  0  0  0
    3.6000   38.0120   12.3750 C   0  0  0  0  0  0  0  0  0  0  0  0
    4.5970   38.9520   12.5180 C   0  0  0  0  0  0  0  0  0  0  0  0
    4.8280   39.5920   11.3330 N   0  0  0  0  0  0  0  0  0  0  0  0
    3.8910   39.1690   10.5160 C   0  0  0  0  0  0  0  0  0  0  0  0
    3.1090   38.2190   11.1070 N   0  0  0  0  0  0  0  0  0  0  0  0
    1.1120   35.4580   12.6230 N   0  0  0  0  0  0  0  0  0  0  0  0
    0.1930   36.1380   11.8430 C   0  0  0  0  0  0  0  0  0  0  0  0
    0.4510   37.1990   11.2850 O   0  0  0  0  0  0  0  0  0  0  0  0
   -1.2110   35.4890   11.8300 C   0  0  2  0  0  0  0  0  0  0  0  0
   -2.3500   36.4980   11.9090 C   0  0  0  0  0  0  0  0  0  0  0  0
   -2.5990   36.6500   13.3990 C   0  0  0  0  0  0  0  0  0  0  0  0
   -2.4840   35.2330   13.9140 C   0  0  0  0  0  0  0  0  0  0  0  0
   -1.4080   34.6170   13.0670 N   0  0  0  0  0  0  0  0  0  0  0  0
    3.1720   25.0770   20.7150 C   0  0  0  0  0  0  0  0  0  0  0  0
    2.2990   25.2190   21.5670 O   0  0  0  0  0  0  0  0  0  0  0  0
    2.9330   24.3970   19.5320 N   0  0  0  0  0  0  0  0  0  0  0  0
    1.5860   24.0000   19.0950 C   0  0  1  0  0  0  0  0  0  0  0  0
    0.7770   23.2270   20.1280 C   0  0  0  0  0  0  0  0  0  0  0  0
    0.8450   25.2350   18.5290 C   0  0  0  0  0  0  0  0  0  0  0  0
    0.8650   25.5120   17.3310 O   0  0  0  0  0  0  0  0  0  0  0  0
    0.1910   26.0180   19.4630 N   0  0  0  0  0  0  0  0  0  0  0  0
    0.0690   27.4840   19.2390 C   0  0  1  0  0  0  0  0  0  0  0  0
   -1.3610   27.9600   19.4870 C   0  0  0  0  0  0  0  0  0  0  0  0
   -1.7620   29.1120   18.6400 C   0  0  0  0  0  0  0  0  0  0  0  0
   -2.5350   29.2260   17.5080 C   0  0  0  0  0  0  0  0  0  0  0  0
   -2.5420   30.5580   17.1520 N   0  0  0  0  0  0  0  0  0  0  0  0
   -1.8090   31.2710   18.0080 C   0  0  0  0  0  0  0  0  0  0  0  0
   -1.3340   30.4090   18.9090 N   0  0  0  0  0  0  0  0  0  0  0  0
    1.0560   28.2890   20.1380 C   0  0  0  0  0  0  0  0  0  0  0  0
    0.5830   28.9060   21.1230 O   0  0  0  0  0  0  0  0  0  0  0  0
    2.2870   28.1780   19.8290 O   0  0  0  0  0  0  0  0  0  0  0  0
    7.7697   28.0758   23.9727 H   0  0  0  0  0  0  0  0  0  0  0  0
    8.6738   27.9840   22.4233 H   0  0  0  0  0  0  0  0  0  0  0  0
    6.9355   28.4365   22.4233 H   0  0  0  0  0  0  0  0  0  0  0  0
    5.1068   25.2327   23.5093 H   0  0  0  0  0  0  0  0  0  0  0  0
    5.3859   26.9321   24.0236 H   0  0  0  0  0  0  0  0  0  0  0  0
    3.6717   26.9474   22.3300 H   0  0  0  0  0  0  0  0  0  0  0  0
    5.2352   27.5850   21.6005 H   0  0  0  0  0  0  0  0  0  0  0  0
    5.3083   24.9188   21.0491 H   0  0  0  0  0  0  0  0  0  0  0  0
    5.2750   25.5930   18.8850 H   0  0  0  0  0  0  0  0  0  0  0  0
    4.0690   26.5710   18.9870 H   0  0  0  0  0  0  0  0  0  0  0  0
    5.6118   28.2029   20.2367 H   0  0  0  0  0  0  0  0  0  0  0  0
    6.9159   27.0367   19.6928 H   0  0  0  0  0  0  0  0  0  0  0  0
    5.9846   27.3435   17.3959 H   0  0  0  0  0  0  0  0  0  0  0  0
    8.1592   28.1613   17.7995 H   0  0  0  0  0  0  0  0  0  0  0  0
    7.1976   29.4520   16.8725 H   0  0  0  0  0  0  0  0  0  0  0  0
    9.7660   30.3046   17.9772 H   0  0  0  0  0  0  0  0  0  0  0  0
   10.3579   32.1079   19.5902 H   0  0  0  0  0  0  0  0  0  0  0  0
    8.7323   32.8083   21.3440 H   0  0  0  0  0  0  0  0  0  0  0  0
    6.5140   31.6816   21.5031 H   0  0  0  0  0  0  0  0  0  0  0  0
    5.9127   29.8834   19.8929 H   0  0  0  0  0  0  0  0  0  0  0  0
    5.1360   30.0810   17.6870 H   0  0  0  0  0  0  0  0  0  0  0  0
    2.5378   30.4556   17.5735 H   0  0  0  0  0  0  0  0  0  0  0  0
    1.8634   29.1109   14.9285 H   0  0  0  0  0  0  0  0  0  0  0  0
    1.4004   28.2731   16.4477 H   0  0  0  0  0  0  0  0  0  0  0  0
    0.5470   30.4790   17.0490 H   0  0  0  0  0  0  0  0  0  0  0  0
    4.2400   30.3280   15.1740 H   0  0  0  0  0  0  0  0  0  0  0  0
    4.5086   32.2438   13.9428 H   0  0  0  0  0  0  0  0  0  0  0  0
    6.0393   33.7799   14.3645 H   0  0  0  0  0  0  0  0  0  0  0  0
    5.0410   34.4946   15.7566 H   0  0  0  0  0  0  0  0  0  0  0  0
    5.6639   31.8558   16.3886 H   0  0  0  0  0  0  0  0  0  0  0  0
    8.2804   32.3478   16.6649 H   0  0  0  0  0  0  0  0  0  0  0  0
    7.6106   31.5760   15.1877 H   0  0  0  0  0  0  0  0  0  0  0  0
    7.9980   33.3300   15.1877 H   0  0  0  0  0  0  0  0  0  0  0  0
    6.1995   32.6923   18.4316 H   0  0  0  0  0  0  0  0  0  0  0  0
    7.1766   34.0406   17.7579 H   0  0  0  0  0  0  0  0  0  0  0  0
    5.3833   34.1437   17.7579 H   0  0  0  0  0  0  0  0  0  0  0  0
    2.5660   34.3650   14.6680 H   0  0  0  0  0  0  0  0  0  0  0  0
    2.6900   35.8827   11.4365 H   0  0  0  0  0  0  0  0  0  0  0  0
    2.2256   37.3644   13.8555 H   0  0  0  0  0  0  0  0  0  0  0  0
    3.8904   36.6322   13.9413 H   0  0  0  0  0  0  0  0  0  0  0  0
    5.1329   39.1587   13.4562 H   0  0  0  0  0  0  0  0  0  0  0  0
    3.7539   39.5335    9.4872 H   0  0  0  0  0  0  0  0  0  0  0  0
    2.3220   37.7480   10.6770 H   0  0  0  0  0  0  0  0  0  0  0  0
    0.9070   34.4810   12.8030 H   0  0  0  0  0  0  0  0  0  0  0  0
   -1.2449   34.9330   10.8815 H   0  0  0  0  0  0  0  0  0  0  0  0
   -2.0541   37.4583   11.4615 H   0  0  0  0  0  0  0  0  0  0  0  0
   -3.2455   36.1714   11.3600 H   0  0  0  0  0  0  0  0  0  0  0  0
   -1.8419   37.3005   13.8612 H   0  0  0  0  0  0  0  0  0  0  0  0
   -3.5686   37.1157   13.6294 H   0  0  0  0  0  0  0  0  0  0  0  0
   -2.1960   35.2263   14.9756 H   0  0  0  0  0  0  0  0  0  0  0  0
   -3.4351   34.6840   13.8503 H   0  0  0  0  0  0  0  0  0  0  0  0
   -0.5270   34.5650   13.5980 H   0  0  0  0  0  0  0  0  0  0  0  0
   -1.6630   33.6550   12.8070 H   0  0  0  0  0  0  0  0  0  0  0  0
    3.6640   24.2850   18.8390 H   0  0  0  0  0  0  0  0  0  0  0  0
    1.7103   23.2604   18.2903 H   0  0  0  0  0  0  0  0  0  0  0  0
    1.0908   23.5269   21.1387 H   0  0  0  0  0  0  0  0  0  0  0  0
   -0.2926   23.4472   19.9957 H   0  0  0  0  0  0  0  0  0  0  0  0
    0.9484   22.1485   19.9957 H   0  0  0  0  0  0  0  0  0  0  0  0
    0.3970   25.7740   20.4350 H   0  0  0  0  0  0  0  0  0  0  0  0
    0.3305   27.6699   18.1868 H   0  0  0  0  0  0  0  0  0  0  0  0
   -2.0457   27.1237   19.2827 H   0  0  0  0  0  0  0  0  0  0  0  0
   -1.4108   28.2972   20.5329 H   0  0  0  0  0  0  0  0  0  0  0  0
   -3.0511   28.4076   16.9846 H   0  0  0  0  0  0  0  0  0  0  0  0
   -3.0310   30.9450   16.3500 H   0  0  0  0  0  0  0  0  0  0  0  0
   -1.6310   32.3561   17.9773 H   0  0  0  0  0  0  0  0  0  0  0  0
   -0.7320   30.6610   19.6900 H   0  0  0  0  0  0  0  0  0  0  0  0
  1  2  1  0
  2  3  1  0
  3  4  1  0
  4  5  1  0
  5  6  1  0
  6  7  1  0
  7  8  1  0
  8  9  1  0
  9 10  1  0
 10 11  2  0
 11 12  1  0
 12 13  2  0
 13 14  1  0
 14 15  2  0
  8 16  1  0
 16 17  1  0
 17 18  2  0
 17 19  1  0
 19 20  1  0
 20 21  1  0
 19 22  1  0
 22 23  1  0
 23 24  2  0
 23 25  1  0
 25 26  1  0
 26 27  1  0
 27 28  1  0
 27 29  1  0
 25 30  1  0
 30 31  1  0
 31 32  2  0
 31 33  1  0
 33 34  1  0
 34 35  1  0
 35 36  2  0
 36 37  1  0
 37 38  2  0
 38 39  1  0
 33 40  1  0
 40 41  1  0
 41 42  2  0
 41 43  1  0
 43 44  1  0
 44 45  1  0
 45 46  1  0
 46 47  1  0
  5 48  1  0
 48 49  2  0
 48 50  1  0
 50 51  1  0
 51 52  1  0
 51 53  1  0
 53 54  2  0
 53 55  1  0
 55 56  1  0
 56 57  1  0
 57 58  1  0
 58 59  2  0
 59 60  1  0
 60 61  2  0
 61 62  1  0
 56 63  1  0
 63 64  2  0
 63 65  1  0
 15 10  1  0
 39 35  1  0
 47 43  1  0
 62 58  1  0
  1 66  1  0
  1 67  1  0
  1 68  1  0
  3 69  1  0
  3 70  1  0
  4 71  1  0
  4 72  1  0
  5 73  1  1
  6 74  1  0
  6 75  1  0
  7 76  1  0
  7 77  1  0
  8 78  1  6
  9 79  1  0
  9 80  1  0
 11 81  1  0
 12 82  1  0
 13 83  1  0
 14 84  1  0
 15 85  1  0
 16 86  1  0
 19 87  1  1
 20 88  1  0
 20 89  1  0
 21 90  1  0
 22 91  1  0
 25 92  1  6
 26 93  1  0
 26 94  1  0
 27 95  1  0
 28 96  1  0
 28 97  1  0
 28 98  1  0
 29 99  1  0
 29100  1  0
 29101  1  0
 30102  1  0
 33103  1  6
 34104  1  0
 34105  1  0
 36106  1  0
 38107  1  0
 39108  1  0
 40109  1  0
 43110  1  6
 44111  1  0
 44112  1  0
 45113  1  0
 45114  1  0
 46115  1  0
 46116  1  0
 47117  1  0
 47118  1  0
 50119  1  0
 51120  1  6
 52121  1  0
 52122  1  0
 52123  1  0
 55124  1  0
 56125  1  6
 57126  1  0
 57127  1  0
 59128  1  0
 60129  1  0
 61130  1  0
 62131  1  0
M  CHG  4   6   1  47   1  60   1  65  -1
M  END
>  <meeko>  (6) 
{"is_sidechain": [false], "free_energy": -8.136, "intermolecular_energy": -22.228, "internal_energy": -5.446}

$$$$
3uri_ligand
     RDKit          3D

131134  0  0  0  0  0  0  0  0999 V2000
    6.4200   27.5020   25.5510 C   0  0  0  0  0  0  0  0  0  0  0  0
    4.8480   26.6460   25.2660 S   0  0  0  0  0  0  0  0  0  0  0  0
    5.2650   25.8670   23.6770 C   0  0  0  0  0  0  0  0  0  0  0  0
    4.0100   25.7710   22.8060 C   0  0  0  0  0  0  0  0  0  0  0  0
    3.9410   26.7800   21.6490 C   0  0  2  0  0  0  0  0  0  0  0  0
    3.4360   28.1220   22.0960 N   0  0  0  0  0  0  0  0  0  0  0  0
    4.4000   29.2090   22.3750 C   0  0  0  0  0  0  0  0  0  0  0  0
    5.1790   29.7080   21.1170 C   0  0  2  0  0  0  0  0  0  0  0  0
    6.0370   30.9850   21.3170 C   0  0  0  0  0  0  0  0  0  0  0  0
    7.3490   31.0650   20.5660 C   0  0  0  0  0  0  0  0  0  0  0  0
    8.4020   31.8890   20.9790 C   0  0  0  0  0  0  0  0  0  0  0  0
    9.6060   31.9090   20.2690 C   0  0  0  0  0  0  0  0  0  0  0  0
    9.7650   31.1190   19.1330 C   0  0  0  0  0  0  0  0  0  0  0  0
    8.7170   30.3150   18.6960 C   0  0  0  0  0  0  0  0  0  0  0  0
    7.5150   30.2920   19.4040 C   0  0  0  0  0  0  0  0  0  0  0  0
    4.3090   29.8840   19.9390 N   0  0  0  0  0  0  0  0  0  0  0  0
    4.4550   29.1230   18.7920 C   0  0  0  0  0  0  0  0  0  0  0  0
    5.2240   28.1670   18.7370 O   0  0  0  0  0  0  0  0  0  0  0  0
    3.7160   29.6610   17.5520 C   0  0  2  0  0  0  0  0  0  0  0  0
    3.5470   28.5060   16.5580 C   0  0  0  0  0  0  0  0  0  0  0  0
    3.0530   27.3470   17.2520 O   0  0  0  0  0  0  0  0  0  0  0  0
    4.4550   30.7570   16.9150 N   0  0  0  0  0  0  0  0  0  0  0  0
    3.8110   31.7840   16.2700 C   0  0  0  0  0  0  0  0  0  0  0  0
    2.5830   31.8160   16.1770 O   0  0  0  0  0  0  0  0  0  0  0  0
    4.7310   32.8420   15.5930 C   0  0  2  0  0  0  0  0  0  0  0  0
    5.5590   33.6840   16.5830 C   0  0  0  0  0  0  0  0  0  0  0  0
    7.0970   33.6360   16.4360 C   0  0  0  0  0  0  0  0  0  0  0  0
    7.8230   33.8820   17.7590 C   0  0  0  0  0  0  0  0  0  0  0  0
    7.6120   32.3570   15.7760 C   0  0  0  0  0  0  0  0  0  0  0  0
    3.9240   33.6060   14.6390 N   0  0  0  0  0  0  0  0  0  0  0  0
    4.3110   33.7860   13.3250 C   0  0  0  0  0  0  0  0  0  0  0  0
    5.2320   33.1630   12.8000 O   0  0  0  0  0  0  0  0  0  0  0  0
    3.6060   34.9340   12.5720 C   0  0  2  0  0  0  0  0  0  0  0  0
    3.3580   36.1120   13.5440 C   0  0  0  0  0  0  0  0  0  0  0  0
    3.4760   37.4450   12.8770 C   0  0  0  0  0  0  0  0  0  0  0  0
    2.7100   38.5900   12.9300 C   0  0  0  0  0  0  0  0  0  0  0  0
    3.3290   39.6130   12.2700 N   0  0  0  0  0  0  0  0  0  0  0  0
    4.3780   39.0760   11.6910 C   0  0  0  0  0  0  0  0  0  0  0  0
    4.5030   37.7560   12.0160 N   0  0  0  0  0  0  0  0  0  0  0  0
    2.4120   34.5390   11.7780 N   0  0  0  0  0  0  0  0  0  0  0  0
    1.3010   33.9520   12.3580 C   0  0  0  0  0  0  0  0  0  0  0  0
    1.3370   33.4000   13.4530 O   0  0  0  0  0  0  0  0  0  0  0  0
    0.0470   33.9670   11.4540 C   0  0  2  0  0  0  0  0  0  0  0  0
   -0.1460   35.2780   10.7020 C   0  0  0  0  0  0  0  0  0  0  0  0
   -0.9970   36.1140   11.6410 C   0  0  0  0  0  0  0  0  0  0  0  0
   -1.9970   35.1170   12.1810 C   0  0  0  0  0  0  0  0  0  0  0  0
   -1.2200   33.8380   12.2960 N   0  0  0  0  0  0  0  0  0  0  0  0
    3.0800   26.2620   20.4620 C   0  0  0  0  0  0  0  0  0  0  0  0
    3.4540   25.3880   19.6860 O   0  0  0  0  0  0  0  0  0  0  0  0
    1.8070   26.8040   20.3910 N   0  0  0  0  0  0  0  0  0  0  0  0
    0.7390   26.2300   19.5580 C   0  0  1  0  0  0  0  0  0  0  0  0
    0.0190   25.0350   20.1690 C   0  0  0  0  0  0  0  0  0  0  0  0
   -0.2170   27.3580   19.1010 C   0  0  0  0  0  0  0  0  0  0  0  0
   -1.4310   27.2980   19.2900 O   0  0  0  0  0  0  0  0  0  0  0  0
    0.3800   28.4140   18.4380 N   0  0  0  0  0  0  0  0  0  0  0  0
   -0.3750   29.1450   17.3850 C   0  0  1  0  0  0  0  0  0  0  0  0
   -0.3350   30.6530   17.6260 C   0  0  0  0  0  0  0  0  0  0  0  0
   -1.6560   31.3160   17.4780 C   0  0  0  0  0  0  0  0  0  0  0  0
   -2.4140   31.6760   16.3880 C   0  0  0  0  0  0  0  0  0  0  0  0
   -3.5550   32.2800   16.8670 N   0  0  0  0  0  0  0  0  0  0  0  0
   -3.5400   32.3130   18.2010 C   0  0  0  0  0  0  0  0  0  0  0  0
   -2.3980   31.7350   18.5790 N   0  0  0  0  0  0  0  0  0  0  0  0
    0.1690   28.8260   15.9590 C   0  0  0  0  0  0  0  0  0  0  0  0
    0.2920   29.7770   15.1500 O   0  0  0  0  0  0  0  0  0  0  0  0
    0.5220   27.6160   15.7700 O   0  0  0  0  0  0  0  0  0  0  0  0
    6.5948   27.5972   26.6328 H   0  0  0  0  0  0  0  0  0  0  0  0
    7.2391   26.9254   25.0966 H   0  0  0  0  0  0  0  0  0  0  0  0
    6.3801   28.5029   25.0966 H   0  0  0  0  0  0  0  0  0  0  0  0
    6.0236   26.4732   23.1602 H   0  0  0  0  0  0  0  0  0  0  0  0
    5.6612   24.8570   23.8586 H   0  0  0  0  0  0  0  0  0  0  0  0
    3.9688   24.7585   22.3781 H   0  0  0  0  0  0  0  0  0  0  0  0
    3.1608   26.0026   23.4656 H   0  0  0  0  0  0  0  0  0  0  0  0
    4.9765   26.8978   21.2970 H   0  0  0  0  0  0  0  0  0  0  0  0
    2.7360   28.4360   21.4190 H   0  0  0  0  0  0  0  0  0  0  0  0
    2.7670   27.9680   22.9040 H   0  0  0  0  0  0  0  0  0  0  0  0
    3.8476   30.0603   22.7995 H   0  0  0  0  0  0  0  0  0  0  0  0
    5.1480   28.7993   23.0697 H   0  0  0  0  0  0  0  0  0  0  0  0
    5.8866   28.8852   20.9375 H   0  0  0  0  0  0  0  0  0  0  0  0
    5.4259   31.8455   21.0070 H   0  0  0  0  0  0  0  0  0  0  0  0
    6.3205   30.9710   22.3797 H   0  0  0  0  0  0  0  0  0  0  0  0
    8.2815   32.5252   21.8682 H   0  0  0  0  0  0  0  0  0  0  0  0
   10.4315   32.5515   20.6090 H   0  0  0  0  0  0  0  0  0  0  0  0
   10.7172   31.1307   18.5824 H   0  0  0  0  0  0  0  0  0  0  0  0
    8.8360   29.6980   17.7931 H   0  0  0  0  0  0  0  0  0  0  0  0
    6.6871   29.6611   19.0484 H   0  0  0  0  0  0  0  0  0  0  0  0
    3.9900   30.8300   19.7430 H   0  0  0  0  0  0  0  0  0  0  0  0
    2.7387   30.0591   17.8626 H   0  0  0  0  0  0  0  0  0  0  0  0
    2.8316   28.7975   15.7749 H   0  0  0  0  0  0  0  0  0  0  0  0
    4.5183   28.2724   16.0975 H   0  0  0  0  0  0  0  0  0  0  0  0
    3.7890   27.0310   17.8130 H   0  0  0  0  0  0  0  0  0  0  0  0
    5.4650   30.7190   16.9940 H   0  0  0  0  0  0  0  0  0  0  0  0
    5.5271   32.3304   15.0322 H   0  0  0  0  0  0  0  0  0  0  0  0
    5.2479   34.7326   16.4666 H   0  0  0  0  0  0  0  0  0  0  0  0
    5.3543   33.2440   17.5702 H   0  0  0  0  0  0  0  0  0  0  0  0
    7.3332   34.4668   15.7549 H   0  0  0  0  0  0  0  0  0  0  0  0
    7.1472   33.6530   18.5962 H   0  0  0  0  0  0  0  0  0  0  0  0
    8.7103   33.2343   17.8163 H   0  0  0  0  0  0  0  0  0  0  0  0
    8.1338   34.9356   17.8163 H   0  0  0  0  0  0  0  0  0  0  0  0
    7.9028   31.6348   16.5531 H   0  0  0  0  0  0  0  0  0  0  0  0
    6.8188   31.9224   15.1500 H   0  0  0  0  0  0  0  0  0  0  0  0
    8.4850   32.5934   15.1500 H   0  0  0  0  0  0  0  0  0  0  0  0
    3.4470   34.4110   15.0460 H   0  0  0  0  0  0  0  0  0  0  0  0
    4.2931   35.2707   11.7817 H   0  0  0  0  0  0  0  0  0  0  0  0
    2.3451   36.0161   13.9620 H   0  0  0  0  0  0  0  0  0  0  0  0
    4.1279   36.0635   14.3282 H   0  0  0  0  0  0  0  0  0  0  0  0
    1.7354   38.6687   13.4340 H   0  0  0  0  0  0  0  0  0  0  0  0
    5.0677   39.6200   11.0289 H   0  0  0  0  0  0  0  0  0  0  0  0
    5.2310   37.1310   11.6890 H   0  0  0  0  0  0  0  0  0  0  0  0
    2.2270   35.1970   11.0290 H   0  0  0  0  0  0  0  0  0  0  0  0
    0.2053   33.1330   10.7545 H   0  0  0  0  0  0  0  0  0  0  0  0
    0.8212   35.7659   10.5110 H   0  0  0  0  0  0  0  0  0  0  0  0
   -0.6138   35.1375    9.7164 H   0  0  0  0  0  0  0  0  0  0  0  0
   -0.3876   36.5400   12.4517 H   0  0  0  0  0  0  0  0  0  0  0  0
   -1.4703   36.9737   11.1441 H   0  0  0  0  0  0  0  0  0  0  0  0
   -2.3719   35.4351   13.1650 H   0  0  0  0  0  0  0  0  0  0  0  0
   -2.8806   35.0153   11.5338 H   0  0  0  0  0  0  0  0  0  0  0  0
   -0.9660   33.6660   13.2800 H   0  0  0  0  0  0  0  0  0  0  0  0
   -1.7920   33.0410   11.9870 H   0  0  0  0  0  0  0  0  0  0  0  0
    1.5120   27.5270   21.0370 H   0  0  0  0  0  0  0  0  0  0  0  0
    1.2194   25.7892   18.6721 H   0  0  0  0  0  0  0  0  0  0  0  0
    0.0604   25.1037   21.2661 H   0  0  0  0  0  0  0  0  0  0  0  0
   -1.0310   25.0326   19.8411 H   0  0  0  0  0  0  0  0  0  0  0  0
    0.5076   24.1056   19.8411 H   0  0  0  0  0  0  0  0  0  0  0  0
    1.3620   28.2590   18.1970 H   0  0  0  0  0  0  0  0  0  0  0  0
   -1.4182   28.8008   17.4429 H   0  0  0  0  0  0  0  0  0  0  0  0
    0.0310   30.8319   18.6478 H   0  0  0  0  0  0  0  0  0  0  0  0
    0.3285   31.0835   16.8615 H   0  0  0  0  0  0  0  0  0  0  0  0
   -2.1567   31.5120   15.3312 H   0  0  0  0  0  0  0  0  0  0  0  0
   -4.3050   32.6530   16.2900 H   0  0  0  0  0  0  0  0  0  0  0  0
   -4.3152   32.7333   18.8586 H   0  0  0  0  0  0  0  0  0  0  0  0
   -2.1020   31.6180   19.5460 H   0  0  0  0  0  0  0  0  0  0  0  0
  1  2  1  0
  2  3  1  0
  3  4  1  0
  4  5  1  0
  5  6  1  0
  6  7  1  0
  7  8  1  0
  8  9  1  0
  9 10  1  0
 10 11  2  0
 11 12  1  0
 12 13  2  0
 13 14  1  0
 14 15  2  0
  8 16  1  0
 16 17  1  0
 17 18  2  0
 17 19  1  0
 19 20  1  0
 20 21  1  0
 19 22  1  0
 22 23  1  0
 23 24  2  0
 23 25  1  0
 25 26  1  0
 26 27  1  0
 27 28  1  0
 27 29  1  0
 25 30  1  0
 30 31  1  0
 31 32  2  0
 31 33  1  0
 33 34  1  0
 34 35  1  0
 35 36  2  0
 36 37  1  0
 37 38  2  0
 38 39  1  0
 33 40  1  0
 40 41  1  0
 41 42  2  0
 41 43  1  0
 43 44  1  0
 44 45  1  0
 45 46  1  0
 46 47  1  0
  5 48  1  0
 48 49  2  0
 48 50  1  0
 50 51  1  0
 51 52  1  0
 51 53  1  0
 53 54  2  0
 53 55  1  0
 55 56  1  0
 56 57  1  0
 57 58  1  0
 58 59  2  0
 59 60  1  0
 60 61  2  0
 61 62  1  0
 56 63  1  0
 63 64  2  0
 63 65  1  0
 15 10  1  0
 39 35  1  0
 47 43  1  0
 62 58  1  0
  1 66  1  0
  1 67  1  0
  1 68  1  0
  3 69  1  0
  3 70  1  0
  4 71  1  0
  4 72  1  0
  5 73  1  6
  6 74  1  0
  6 75  1  0
  7 76  1  0
  7 77  1  0
  8 78  1  6
  9 79  1  0
  9 80  1  0
 11 81  1  0
 12 82  1  0
 13 83  1  0
 14 84  1  0
 15 85  1  0
 16 86  1  0
 19 87  1  1
 20 88  1  0
 20 89  1  0
 21 90  1  0
 22 91  1  0
 25 92  1  6
 26 93  1  0
 26 94  1  0
 27 95  1  0
 28 96  1  0
 28 97  1  0
 28 98  1  0
 29 99  1  0
 29100  1  0
 29101  1  0
 30102  1  0
 33103  1  6
 34104  1  0
 34105  1  0
 36106  1  0
 38107  1  0
 39108  1  0
 40109  1  0
 43110  1  6
 44111  1  0
 44112  1  0
 45113  1  0
 45114  1  0
 46115  1  0
 46116  1  0
 47117  1  0
 47118  1  0
 50119  1  0
 51120  1  6
 52121  1  0
 52122  1  0
 52123  1  0
 55124  1  0
 56125  1  6
 57126  1  0
 57127  1  0
 59128  1  0
 60129  1  0
 61130  1  0
 62131  1  0
M  CHG  4   6   1  47   1  60   1  65  -1
M  END
>  <meeko>  (7) 
{"is_sidechain": [false], "free_energy": -8.063, "intermolecular_energy": -21.292, "internal_energy": -6.186}

$$$$
3uri_ligand
     RDKit          3D

131134  0  0  0  0  0  0  0  0999 V2000
    0.9490   22.1790   20.7770 C   0  0  0  0  0  0  0  0  0  0  0  0
    2.0450   22.5670   22.1670 S   0  0  0  0  0  0  0  0  0  0  0  0
    1.3520   24.1940   22.5920 C   0  0  0  0  0  0  0  0  0  0  0  0
    1.2810   25.0660   21.3360 C   0  0  0  0  0  0  0  0  0  0  0  0
    1.1570   26.5760   21.5970 C   0  0  2  0  0  0  0  0  0  0  0  0
    0.9080   27.3510   20.3350 N   0  0  0  0  0  0  0  0  0  0  0  0
    0.2060   28.6510   20.4020 C   0  0  0  0  0  0  0  0  0  0  0  0
    0.2760   29.4820   19.0820 C   0  0  2  0  0  0  0  0  0  0  0  0
   -1.0440   29.5770   18.2730 C   0  0  0  0  0  0  0  0  0  0  0  0
   -0.9500   30.0740   16.8460 C   0  0  0  0  0  0  0  0  0  0  0  0
   -0.6740   29.2240   15.7700 C   0  0  0  0  0  0  0  0  0  0  0  0
   -0.6240   29.7240   14.4660 C   0  0  0  0  0  0  0  0  0  0  0  0
   -0.8340   31.0790   14.2250 C   0  0  0  0  0  0  0  0  0  0  0  0
   -1.0830   31.9420   15.2880 C   0  0  0  0  0  0  0  0  0  0  0  0
   -1.1350   31.4440   16.5900 C   0  0  0  0  0  0  0  0  0  0  0  0
    1.3670   29.0470   18.1900 N   0  0  0  0  0  0  0  0  0  0  0  0
    2.6990   29.2800   18.4820 C   0  0  0  0  0  0  0  0  0  0  0  0
    3.0600   29.7390   19.5630 O   0  0  0  0  0  0  0  0  0  0  0  0
    3.6720   29.0830   17.3040 C   0  0  2  0  0  0  0  0  0  0  0  0
    4.8090   28.1680   17.7720 C   0  0  0  0  0  0  0  0  0  0  0  0
    4.3170   27.2730   18.7840 O   0  0  0  0  0  0  0  0  0  0  0  0
    4.2240   30.3610   16.8390 N   0  0  0  0  0  0  0  0  0  0  0  0
    3.5350   31.1730   15.9720 C   0  0  0  0  0  0  0  0  0  0  0  0
    2.4320   30.8510   15.5290 O   0  0  0  0  0  0  0  0  0  0  0  0
    4.2750   32.4670   15.5230 C   0  0  2  0  0  0  0  0  0  0  0  0
    4.9900   33.2140   16.6650 C   0  0  0  0  0  0  0  0  0  0  0  0
    6.4460   33.6670   16.4100 C   0  0  0  0  0  0  0  0  0  0  0  0
    7.2220   33.9140   17.7030 C   0  0  0  0  0  0  0  0  0  0  0  0
    7.2290   32.7310   15.4890 C   0  0  0  0  0  0  0  0  0  0  0  0
    3.3450   33.2740   14.7300 N   0  0  0  0  0  0  0  0  0  0  0  0
    3.6980   33.8190   13.5110 C   0  0  0  0  0  0  0  0  0  0  0  0
    4.7210   33.5110   12.9030 O   0  0  0  0  0  0  0  0  0  0  0  0
    2.7960   34.9650   13.0060 C   0  0  2  0  0  0  0  0  0  0  0  0
    1.6660   34.3810   12.1250 C   0  0  0  0  0  0  0  0  0  0  0  0
    0.3250   34.9580   12.4490 C   0  0  0  0  0  0  0  0  0  0  0  0
   -0.9230   34.3950   12.6070 C   0  0  0  0  0  0  0  0  0  0  0  0
   -1.8120   35.3210   13.0750 N   0  0  0  0  0  0  0  0  0  0  0  0
   -1.1700   36.4660   13.0580 C   0  0  0  0  0  0  0  0  0  0  0  0
    0.1290   36.3020   12.6700 N   0  0  0  0  0  0  0  0  0  0  0  0
    3.5100   36.1170   12.3930 N   0  0  0  0  0  0  0  0  0  0  0  0
    3.4210   37.3990   12.9090 C   0  0  0  0  0  0  0  0  0  0  0  0
    2.5130   37.7530   13.6530 O   0  0  0  0  0  0  0  0  0  0  0  0
    4.5090   38.3590   12.3780 C   0  0  2  0  0  0  0  0  0  0  0  0
    4.5300   39.7090   13.0840 C   0  0  0  0  0  0  0  0  0  0  0  0
    3.5850   40.5650   12.2600 C   0  0  0  0  0  0  0  0  0  0  0  0
    3.9210   40.1790   10.8370 C   0  0  0  0  0  0  0  0  0  0  0  0
    4.2420   38.7150   10.9170 N   0  0  0  0  0  0  0  0  0  0  0  0
    2.3990   27.1540   22.3330 C   0  0  0  0  0  0  0  0  0  0  0  0
    2.3300   27.7690   23.3940 O   0  0  0  0  0  0  0  0  0  0  0  0
    3.6160   26.8490   21.7450 N   0  0  0  0  0  0  0  0  0  0  0  0
    4.9030   27.0180   22.4360 C   0  0  1  0  0  0  0  0  0  0  0  0
    5.6170   25.7210   22.7920 C   0  0  0  0  0  0  0  0  0  0  0  0
    5.7850   28.0110   21.6420 C   0  0  0  0  0  0  0  0  0  0  0  0
    6.9460   27.7460   21.3340 O   0  0  0  0  0  0  0  0  0  0  0  0
    5.1920   29.2210   21.3320 N   0  0  0  0  0  0  0  0  0  0  0  0
    6.0270   30.4490   21.2420 C   0  0  1  0  0  0  0  0  0  0  0  0
    6.2730   30.8400   19.7850 C   0  0  0  0  0  0  0  0  0  0  0  0
    7.7100   30.9950   19.4440 C   0  0  0  0  0  0  0  0  0  0  0  0
    8.4890   30.5350   18.4070 C   0  0  0  0  0  0  0  0  0  0  0  0
    9.7710   30.9880   18.6280 N   0  0  0  0  0  0  0  0  0  0  0  0
    9.8240   31.7040   19.7530 C   0  0  0  0  0  0  0  0  0  0  0  0
    8.5860   31.7130   20.2530 N   0  0  0  0  0  0  0  0  0  0  0  0
    5.3800   31.6440   22.0050 C   0  0  0  0  0  0  0  0  0  0  0  0
    4.4250   31.3980   22.7830 O   0  0  0  0  0  0  0  0  0  0  0  0
    5.9430   32.7730   21.8260 O   0  0  0  0  0  0  0  0  0  0  0  0
   -0.0227   21.8350   21.1611 H   0  0  0  0  0  0  0  0  0  0  0  0
    0.8025   23.0799   20.1631 H   0  0  0  0  0  0  0  0  0  0  0  0
    1.4019   21.3866   20.1631 H   0  0  0  0  0  0  0  0  0  0  0  0
    0.3409   24.0646   23.0054 H   0  0  0  0  0  0  0  0  0  0  0  0
    1.9957   24.6813   23.3391 H   0  0  0  0  0  0  0  0  0  0  0  0
    2.1964   24.8954   20.7504 H   0  0  0  0  0  0  0  0  0  0  0  0
    0.3622   24.7696   20.8087 H   0  0  0  0  0  0  0  0  0  0  0  0
    0.2829   26.6917   22.2547 H   0  0  0  0  0  0  0  0  0  0  0  0
    1.8030   27.4570   19.8490 H   0  0  0  0  0  0  0  0  0  0  0  0
    0.4630   26.6960   19.6300 H   0  0  0  0  0  0  0  0  0  0  0  0
   -0.8521   28.4606   20.6347 H   0  0  0  0  0  0  0  0  0  0  0  0
    0.7114   29.2448   21.1779 H   0  0  0  0  0  0  0  0  0  0  0  0
    0.4827   30.4963   19.4541 H   0  0  0  0  0  0  0  0  0  0  0  0
   -1.4867   28.5704   18.2438 H   0  0  0  0  0  0  0  0  0  0  0  0
   -1.6424   30.3364   18.7975 H   0  0  0  0  0  0  0  0  0  0  0  0
   -0.4950   28.1540   15.9516 H   0  0  0  0  0  0  0  0  0  0  0  0
   -0.4178   29.0440   13.6263 H   0  0  0  0  0  0  0  0  0  0  0  0
   -0.8032   31.4668   13.1961 H   0  0  0  0  0  0  0  0  0  0  0  0
   -1.2385   33.0149   15.1018 H   0  0  0  0  0  0  0  0  0  0  0  0
   -1.3232   32.1321   17.4273 H   0  0  0  0  0  0  0  0  0  0  0  0
    1.1760   29.0680   17.1910 H   0  0  0  0  0  0  0  0  0  0  0  0
    3.1274   28.6333   16.4606 H   0  0  0  0  0  0  0  0  0  0  0  0
    5.1858   27.5852   16.9185 H   0  0  0  0  0  0  0  0  0  0  0  0
    5.6244   28.7786   18.1870 H   0  0  0  0  0  0  0  0  0  0  0  0
    4.8490   26.4560   18.7080 H   0  0  0  0  0  0  0  0  0  0  0  0
    5.1340   30.6130   17.2070 H   0  0  0  0  0  0  0  0  0  0  0  0
    5.1259   32.1975   14.8801 H   0  0  0  0  0  0  0  0  0  0  0  0
    4.3989   34.1131   16.8934 H   0  0  0  0  0  0  0  0  0  0  0  0
    5.0599   32.4817   17.4828 H   0  0  0  0  0  0  0  0  0  0  0  0
    6.3451   34.6269   15.8824 H   0  0  0  0  0  0  0  0  0  0  0  0
    6.5720   33.7071   18.5660 H   0  0  0  0  0  0  0  0  0  0  0  0
    8.0987   33.2505   17.7369 H   0  0  0  0  0  0  0  0  0  0  0  0
    7.5539   34.9622   17.7369 H   0  0  0  0  0  0  0  0  0  0  0  0
    7.8176   32.0273   16.0959 H   0  0  0  0  0  0  0  0  0  0  0  0
    6.5275   32.1698   14.8542 H   0  0  0  0  0  0  0  0  0  0  0  0
    7.9052   33.3224   14.8542 H   0  0  0  0  0  0  0  0  0  0  0  0
    2.7240   33.8630   15.2860 H   0  0  0  0  0  0  0  0  0  0  0  0
    2.3433   35.4332   13.8925 H   0  0  0  0  0  0  0  0  0  0  0  0
    1.8957   34.5947   11.0707 H   0  0  0  0  0  0  0  0  0  0  0  0
    1.6182   33.2994   12.3197 H   0  0  0  0  0  0  0  0  0  0  0  0
   -1.1692   33.3457   12.3869 H   0  0  0  0  0  0  0  0  0  0  0  0
   -1.6208   37.4339   13.3225 H   0  0  0  0  0  0  0  0  0  0  0  0
    0.8180   37.0380   12.5790 H   0  0  0  0  0  0  0  0  0  0  0  0
    4.4180   35.8450   12.0320 H   0  0  0  0  0  0  0  0  0  0  0  0
    5.4519   37.8165   12.5410 H   0  0  0  0  0  0  0  0  0  0  0  0
    4.1711   39.6150   14.1195 H   0  0  0  0  0  0  0  0  0  0  0  0
    5.5410   40.1371   13.1520 H   0  0  0  0  0  0  0  0  0  0  0  0
    2.5358   40.3321   12.4946 H   0  0  0  0  0  0  0  0  0  0  0  0
    3.6990   41.6419   12.4532 H   0  0  0  0  0  0  0  0  0  0  0  0
    3.0621   40.3541   10.1724 H   0  0  0  0  0  0  0  0  0  0  0  0
    4.7526   40.7702   10.4259 H   0  0  0  0  0  0  0  0  0  0  0  0
    3.4490   38.1590   10.5650 H   0  0  0  0  0  0  0  0  0  0  0  0
    5.0540   38.4920   10.3260 H   0  0  0  0  0  0  0  0  0  0  0  0
    3.6570   26.3430   20.8690 H   0  0  0  0  0  0  0  0  0  0  0  0
    4.6868   27.4472   23.4255 H   0  0  0  0  0  0  0  0  0  0  0  0
    5.6720   25.6211   23.8861 H   0  0  0  0  0  0  0  0  0  0  0  0
    5.0606   24.8694   22.3735 H   0  0  0  0  0  0  0  0  0  0  0  0
    6.6342   25.7356   22.3735 H   0  0  0  0  0  0  0  0  0  0  0  0
    4.2910   29.3780   21.7920 H   0  0  0  0  0  0  0  0  0  0  0  0
    6.9907   30.2160   21.7184 H   0  0  0  0  0  0  0  0  0  0  0  0
    5.8447   30.0596   19.1388 H   0  0  0  0  0  0  0  0  0  0  0  0
    5.7979   31.8199   19.6301 H   0  0  0  0  0  0  0  0  0  0  0  0
    8.1510   29.9203   17.5597 H   0  0  0  0  0  0  0  0  0  0  0  0
   10.5680   30.8030   18.0250 H   0  0  0  0  0  0  0  0  0  0  0  0
   10.7119   32.1904   20.1832 H   0  0  0  0  0  0  0  0  0  0  0  0
    8.3150   32.1790   21.1160 H   0  0  0  0  0  0  0  0  0  0  0  0
  1  2  1  0
  2  3  1  0
  3  4  1  0
  4  5  1  0
  5  6  1  0
  6  7  1  0
  7  8  1  0
  8  9  1  0
  9 10  1  0
 10 11  2  0
 11 12  1  0
 12 13  2  0
 13 14  1  0
 14 15  2  0
  8 16  1  0
 16 17  1  0
 17 18  2  0
 17 19  1  0
 19 20  1  0
 20 21  1  0
 19 22  1  0
 22 23  1  0
 23 24  2  0
 23 25  1  0
 25 26  1  0
 26 27  1  0
 27 28  1  0
 27 29  1  0
 25 30  1  0
 30 31  1  0
 31 32  2  0
 31 33  1  0
 33 34  1  0
 34 35  1  0
 35 36  2  0
 36 37  1  0
 37 38  2  0
 38 39  1  0
 33 40  1  0
 40 41  1  0
 41 42  2  0
 41 43  1  0
 43 44  1  0
 44 45  1  0
 45 46  1  0
 46 47  1  0
  5 48  1  0
 48 49  2  0
 48 50  1  0
 50 51  1  0
 51 52  1  0
 51 53  1  0
 53 54  2  0
 53 55  1  0
 55 56  1  0
 56 57  1  0
 57 58  1  0
 58 59  2  0
 59 60  1  0
 60 61  2  0
 61 62  1  0
 56 63  1  0
 63 64  2  0
 63 65  1  0
 15 10  1  0
 39 35  1  0
 47 43  1  0
 62 58  1  0
  1 66  1  0
  1 67  1  0
  1 68  1  0
  3 69  1  0
  3 70  1  0
  4 71  1  0
  4 72  1  0
  5 73  1  1
  6 74  1  0
  6 75  1  0
  7 76  1  0
  7 77  1  0
  8 78  1  1
  9 79  1  0
  9 80  1  0
 11 81  1  0
 12 82  1  0
 13 83  1  0
 14 84  1  0
 15 85  1  0
 16 86  1  0
 19 87  1  6
 20 88  1  0
 20 89  1  0
 21 90  1  0
 22 91  1  0
 25 92  1  6
 26 93  1  0
 26 94  1  0
 27 95  1  0
 28 96  1  0
 28 97  1  0
 28 98  1  0
 29 99  1  0
 29100  1  0
 29101  1  0
 30102  1  0
 33103  1  1
 34104  1  0
 34105  1  0
 36106  1  0
 38107  1  0
 39108  1  0
 40109  1  0
 43110  1  6
 44111  1  0
 44112  1  0
 45113  1  0
 45114  1  0
 46115  1  0
 46116  1  0
 47117  1  0
 47118  1  0
 50119  1  0
 51120  1  1
 52121  1  0
 52122  1  0
 52123  1  0
 55124  1  0
 56125  1  1
 57126  1  0
 57127  1  0
 59128  1  0
 60129  1  0
 61130  1  0
 62131  1  0
M  CHG  4   6   1  47   1  60   1  65  -1
M  END
>  <meeko>  (8) 
{"is_sidechain": [false], "free_energy": -8.029, "intermolecular_energy": -21.062, "internal_energy": -6.326}

$$$$
3uri_ligand
     RDKit          3D

131134  0  0  0  0  0  0  0  0999 V2000
    1.9820   23.4750   19.5360 C   0  0  0  0  0  0  0  0  0  0  0  0
    0.3390   24.2420   19.5370 S   0  0  0  0  0  0  0  0  0  0  0  0
    0.7590   25.7450   20.4700 C   0  0  0  0  0  0  0  0  0  0  0  0
    2.2800   25.8600   20.6010 C   0  0  0  0  0  0  0  0  0  0  0  0
    2.9050   27.0710   19.8900 C   0  0  2  0  0  0  0  0  0  0  0  0
    4.1690   26.7110   19.1620 N   0  0  0  0  0  0  0  0  0  0  0  0
    5.3440   27.6040   19.2540 C   0  0  0  0  0  0  0  0  0  0  0  0
    5.6430   28.4010   17.9450 C   0  0  2  0  0  0  0  0  0  0  0  0
    7.0700   28.9970   17.8270 C   0  0  0  0  0  0  0  0  0  0  0  0
    7.4730   30.0420   18.8460 C   0  0  0  0  0  0  0  0  0  0  0  0
    6.5450   30.6820   19.6740 C   0  0  0  0  0  0  0  0  0  0  0  0
    6.9680   31.6210   20.6190 C   0  0  0  0  0  0  0  0  0  0  0  0
    8.3180   31.9400   20.7370 C   0  0  0  0  0  0  0  0  0  0  0  0
    9.2500   31.3300   19.9020 C   0  0  0  0  0  0  0  0  0  0  0  0
    8.8300   30.3920   18.9590 C   0  0  0  0  0  0  0  0  0  0  0  0
    4.6480   29.4590   17.6810 N   0  0  0  0  0  0  0  0  0  0  0  0
    3.5140   29.2340   16.9210 C   0  0  0  0  0  0  0  0  0  0  0  0
    3.1960   28.1110   16.5380 O   0  0  0  0  0  0  0  0  0  0  0  0
    2.7760   30.5030   16.4550 C   0  0  2  0  0  0  0  0  0  0  0  0
    1.4790   30.0750   15.7590 C   0  0  0  0  0  0  0  0  0  0  0  0
    0.9600   31.1770   14.9960 O   0  0  0  0  0  0  0  0  0  0  0  0
    3.5960   31.2950   15.5300 N   0  0  0  0  0  0  0  0  0  0  0  0
    3.8340   32.6320   15.7390 C   0  0  0  0  0  0  0  0  0  0  0  0
    3.3490   33.2290   16.7000 O   0  0  0  0  0  0  0  0  0  0  0  0
    4.6720   33.3510   14.6410 C   0  0  2  0  0  0  0  0  0  0  0  0
    6.1080   33.7040   15.0730 C   0  0  0  0  0  0  0  0  0  0  0  0
    6.7230   32.8750   16.2240 C   0  0  0  0  0  0  0  0  0  0  0  0
    7.9920   32.1340   15.8030 C   0  0  0  0  0  0  0  0  0  0  0  0
    6.9750   33.6820   17.4970 C   0  0  0  0  0  0  0  0  0  0  0  0
    3.8800   34.4660   14.1180 N   0  0  0  0  0  0  0  0  0  0  0  0
    2.7340   34.2690   13.3710 C   0  0  0  0  0  0  0  0  0  0  0  0
    2.1780   33.1780   13.2610 O   0  0  0  0  0  0  0  0  0  0  0  0
    2.2560   35.4840   12.5490 C   0  0  2  0  0  0  0  0  0  0  0  0
    1.3290   35.0020   11.4080 C   0  0  0  0  0  0  0  0  0  0  0  0
   -0.1030   35.3730   11.6320 C   0  0  0  0  0  0  0  0  0  0  0  0
   -1.2100   34.6470   12.0120 C   0  0  0  0  0  0  0  0  0  0  0  0
   -2.2700   35.4740   12.2500 N   0  0  0  0  0  0  0  0  0  0  0  0
   -1.8740   36.6690   11.8760 C   0  0  0  0  0  0  0  0  0  0  0  0
   -0.5690   36.6580   11.4770 N   0  0  0  0  0  0  0  0  0  0  0  0
    3.3260   36.4180   12.1080 N   0  0  0  0  0  0  0  0  0  0  0  0
    3.1640   37.7920   12.1370 C   0  0  0  0  0  0  0  0  0  0  0  0
    2.0630   38.3300   12.1800 O   0  0  0  0  0  0  0  0  0  0  0  0
    4.4900   38.5770   12.0070 C   0  0  2  0  0  0  0  0  0  0  0  0
    4.6410   39.6940   13.0320 C   0  0  0  0  0  0  0  0  0  0  0  0
    4.0330   40.9030   12.3460 C   0  0  0  0  0  0  0  0  0  0  0  0
    4.5310   40.7810   10.9240 C   0  0  0  0  0  0  0  0  0  0  0  0
    4.5520   39.3030   10.6650 N   0  0  0  0  0  0  0  0  0  0  0  0
    3.1770   28.2540   20.8620 C   0  0  0  0  0  0  0  0  0  0  0  0
    3.2480   29.4250   20.4990 O   0  0  0  0  0  0  0  0  0  0  0  0
    3.2500   27.9000   22.2000 N   0  0  0  0  0  0  0  0  0  0  0  0
    3.1800   28.8810   23.2920 C   0  0  1  0  0  0  0  0  0  0  0  0
    2.1400   28.5790   24.3630 C   0  0  0  0  0  0  0  0  0  0  0  0
    4.6000   29.1190   23.8610 C   0  0  0  0  0  0  0  0  0  0  0  0
    5.1460   30.2200   23.8070 O   0  0  0  0  0  0  0  0  0  0  0  0
    5.2210   28.0070   24.3990 N   0  0  0  0  0  0  0  0  0  0  0  0
    6.7010   27.8800   24.3220 C   0  0  1  0  0  0  0  0  0  0  0  0
    7.1880   26.6530   25.0930 C   0  0  0  0  0  0  0  0  0  0  0  0
    8.6670   26.5580   25.1910 C   0  0  0  0  0  0  0  0  0  0  0  0
    9.5500   26.6340   26.2420 C   0  0  0  0  0  0  0  0  0  0  0  0
   10.8170   26.4890   25.7220 N   0  0  0  0  0  0  0  0  0  0  0  0
   10.7610   26.3300   24.3980 C   0  0  0  0  0  0  0  0  0  0  0  0
    9.4690   26.3710   24.0680 N   0  0  0  0  0  0  0  0  0  0  0  0
    7.1970   27.8040   22.8460 C   0  0  0  0  0  0  0  0  0  0  0  0
    7.9650   28.7080   22.4370 O   0  0  0  0  0  0  0  0  0  0  0  0
    6.8330   26.7670   22.2020 O   0  0  0  0  0  0  0  0  0  0  0  0
    2.3148   23.3197   20.5729 H   0  0  0  0  0  0  0  0  0  0  0  0
    1.9341   22.5062   19.0173 H   0  0  0  0  0  0  0  0  0  0  0  0
    2.6939   24.1339   19.0173 H   0  0  0  0  0  0  0  0  0  0  0  0
    0.3696   26.6262   19.9391 H   0  0  0  0  0  0  0  0  0  0  0  0
    0.3091   25.6904   21.4723 H   0  0  0  0  0  0  0  0  0  0  0  0
    2.5258   25.9286   21.6710 H   0  0  0  0  0  0  0  0  0  0  0  0
    2.6983   24.9678   20.1122 H   0  0  0  0  0  0  0  0  0  0  0  0
    2.1583   27.3977   19.1513 H   0  0  0  0  0  0  0  0  0  0  0  0
    4.4260   25.7580   19.4320 H   0  0  0  0  0  0  0  0  0  0  0  0
    3.9160   26.4900   18.1560 H   0  0  0  0  0  0  0  0  0  0  0  0
    5.1667   28.3257   20.0650 H   0  0  0  0  0  0  0  0  0  0  0  0
    6.2170   26.9613   19.4405 H   0  0  0  0  0  0  0  0  0  0  0  0
    5.5709   27.6201   17.1736 H   0  0  0  0  0  0  0  0  0  0  0  0
    7.7837   28.1639   17.9082 H   0  0  0  0  0  0  0  0  0  0  0  0
    7.0760   29.5261   16.8626 H   0  0  0  0  0  0  0  0  0  0  0  0
    5.4749   30.4447   19.5808 H   0  0  0  0  0  0  0  0  0  0  0  0
    6.2308   32.1102   21.2725 H   0  0  0  0  0  0  0  0  0  0  0  0
    8.6476   32.6726   21.4885 H   0  0  0  0  0  0  0  0  0  0  0  0
   10.3162   31.5874   19.9858 H   0  0  0  0  0  0  0  0  0  0  0  0
    9.5697   29.9202   18.2955 H   0  0  0  0  0  0  0  0  0  0  0  0
    5.0040   30.4070   17.5820 H   0  0  0  0  0  0  0  0  0  0  0  0
    2.5615   31.1341   17.3300 H   0  0  0  0  0  0  0  0  0  0  0  0
    1.6851   29.2285   15.0874 H   0  0  0  0  0  0  0  0  0  0  0  0
    0.7397   29.7711   16.5147 H   0  0  0  0  0  0  0  0  0  0  0  0
    0.5520   31.7880   15.6420 H   0  0  0  0  0  0  0  0  0  0  0  0
    3.9860   30.7950   14.7400 H   0  0  0  0  0  0  0  0  0  0  0  0
    4.8657   32.6537   13.8126 H   0  0  0  0  0  0  0  0  0  0  0  0
    6.7576   33.5823   14.1937 H   0  0  0  0  0  0  0  0  0  0  0  0
    6.0422   34.7295   15.4656 H   0  0  0  0  0  0  0  0  0  0  0  0
    5.9527   32.1276   16.4650 H   0  0  0  0  0  0  0  0  0  0  0  0
    8.5430   31.8122   16.6990 H   0  0  0  0  0  0  0  0  0  0  0  0
    7.7202   31.2527   15.2035 H   0  0  0  0  0  0  0  0  0  0  0  0
    8.6260   32.8039   15.2035 H   0  0  0  0  0  0  0  0  0  0  0  0
    6.7780   33.0510   18.3762 H   0  0  0  0  0  0  0  0  0  0  0  0
    8.0215   34.0202   17.5156 H   0  0  0  0  0  0  0  0  0  0  0  0
    6.3069   34.5557   17.5156 H   0  0  0  0  0  0  0  0  0  0  0  0
    4.4340   35.2710   13.8250 H   0  0  0  0  0  0  0  0  0  0  0  0
    1.6728   36.1227   13.2287 H   0  0  0  0  0  0  0  0  0  0  0  0
    1.6667   35.4559   10.4647 H   0  0  0  0  0  0  0  0  0  0  0  0
    1.3865   33.9040   11.3745 H   0  0  0  0  0  0  0  0  0  0  0  0
   -1.2365   33.5517   12.1102 H   0  0  0  0  0  0  0  0  0  0  0  0
   -2.5127   37.5645   11.8834 H   0  0  0  0  0  0  0  0  0  0  0  0
   -0.0440   37.4580   11.1440 H   0  0  0  0  0  0  0  0  0  0  0  0
    4.2480   36.0740   12.3540 H   0  0  0  0  0  0  0  0  0  0  0  0
    5.2712   37.8141   12.1398 H   0  0  0  0  0  0  0  0  0  0  0  0
    4.0958   39.4532   13.9565 H   0  0  0  0  0  0  0  0  0  0  0  0
    5.6870   39.8571   13.3309 H   0  0  0  0  0  0  0  0  0  0  0  0
    2.9342   40.8666   12.3835 H   0  0  0  0  0  0  0  0  0  0  0  0
    4.3138   41.8546   12.8209 H   0  0  0  0  0  0  0  0  0  0  0  0
    3.8485   41.2893   10.2270 H   0  0  0  0  0  0  0  0  0  0  0  0
    5.5173   41.2469   10.7823 H   0  0  0  0  0  0  0  0  0  0  0  0
    3.7420   39.0330   10.0880 H   0  0  0  0  0  0  0  0  0  0  0  0
    5.3970   39.0410   10.1400 H   0  0  0  0  0  0  0  0  0  0  0  0
    3.1930   26.9290   22.4850 H   0  0  0  0  0  0  0  0  0  0  0  0
    2.8076   29.8213   22.8594 H   0  0  0  0  0  0  0  0  0  0  0  0
    2.5900   28.7097   25.3582 H   0  0  0  0  0  0  0  0  0  0  0  0
    1.2890   29.2671   24.2521 H   0  0  0  0  0  0  0  0  0  0  0  0
    1.7899   27.5421   24.2521 H   0  0  0  0  0  0  0  0  0  0  0  0
    4.7300   27.1250   24.2250 H   0  0  0  0  0  0  0  0  0  0  0  0
    7.1241   28.7845   24.7834 H   0  0  0  0  0  0  0  0  0  0  0  0
    6.7745   26.6961   26.1114 H   0  0  0  0  0  0  0  0  0  0  0  0
    6.8450   25.7674   24.5380 H   0  0  0  0  0  0  0  0  0  0  0  0
    9.2925   26.7829   27.3010 H   0  0  0  0  0  0  0  0  0  0  0  0
   11.6770   26.5040   26.2640 H   0  0  0  0  0  0  0  0  0  0  0  0
   11.6117   26.1924   23.7143 H   0  0  0  0  0  0  0  0  0  0  0  0
    9.1110   26.2830   23.1190 H   0  0  0  0  0  0  0  0  0  0  0  0
  1  2  1  0
  2  3  1  0
  3  4  1  0
  4  5  1  0
  5  6  1  0
  6  7  1  0
  7  8  1  0
  8  9  1  0
  9 10  1  0
 10 11  2  0
 11 12  1  0
 12 13  2  0
 13 14  1  0
 14 15  2  0
  8 16  1  0
 16 17  1  0
 17 18  2  0
 17 19  1  0
 19 20  1  0
 20 21  1  0
 19 22  1  0
 22 23  1  0
 23 24  2  0
 23 25  1  0
 25 26  1  0
 26 27  1  0
 27 28  1  0
 27 29  1  0
 25 30  1  0
 30 31  1  0
 31 32  2  0
 31 33  1  0
 33 34  1  0
 34 35  1  0
 35 36  2  0
 36 37  1  0
 37 38  2  0
 38 39  1  0
 33 40  1  0
 40 41  1  0
 41 42  2  0
 41 43  1  0
 43 44  1  0
 44 45  1  0
 45 46  1  0
 46 47  1  0
  5 48  1  0
 48 49  2  0
 48 50  1  0
 50 51  1  0
 51 52  1  0
 51 53  1  0
 53 54  2  0
 53 55  1  0
 55 56  1  0
 56 57  1  0
 57 58  1  0
 58 59  2  0
 59 60  1  0
 60 61  2  0
 61 62  1  0
 56 63  1  0
 63 64  2  0
 63 65  1  0
 15 10  1  0
 39 35  1  0
 47 43  1  0
 62 58  1  0
  1 66  1  0
  1 67  1  0
  1 68  1  0
  3 69  1  0
  3 70  1  0
  4 71  1  0
  4 72  1  0
  5 73  1  6
  6 74  1  0
  6 75  1  0
  7 76  1  0
  7 77  1  0
  8 78  1  6
  9 79  1  0
  9 80  1  0
 11 81  1  0
 12 82  1  0
 13 83  1  0
 14 84  1  0
 15 85  1  0
 16 86  1  0
 19 87  1  1
 20 88  1  0
 20 89  1  0
 21 90  1  0
 22 91  1  0
 25 92  1  6
 26 93  1  0
 26 94  1  0
 27 95  1  0
 28 96  1  0
 28 97  1  0
 28 98  1  0
 29 99  1  0
 29100  1  0
 29101  1  0
 30102  1  0
 33103  1  1
 34104  1  0
 34105  1  0
 36106  1  0
 38107  1  0
 39108  1  0
 40109  1  0
 43110  1  6
 44111  1  0
 44112  1  0
 45113  1  0
 45114  1  0
 46115  1  0
 46116  1  0
 47117  1  0
 47118  1  0
 50119  1  0
 51120  1  6
 52121  1  0
 52122  1  0
 52123  1  0
 55124  1  0
 56125  1  1
 57126  1  0
 57127  1  0
 59128  1  0
 60129  1  0
 61130  1  0
 62131  1  0
M  CHG  4   6   1  47   1  60   1  65  -1
M  END
>  <meeko>  (9) 
{"is_sidechain": [false], "free_energy": -8.012, "intermolecular_energy": -21.778, "internal_energy": -5.563}

$$$$
