3pyy_ligand
     RDKit          3D

 38 41  0  0  0  0  0  0  0  0999 V2000
    7.7700    4.2340  -16.0770 O   0  0  0  0  0  0  0  0  0  0  0  0
    7.5760    3.9890  -14.9010 C   0  0  0  0  0  0  0  0  0  0  0  0
    6.9780    2.8830  -14.4020 N   0  0  0  0  0  0  0  0  0  0  0  0
    6.9510    2.9200  -13.0400 C   0  0  0  0  0  0  0  0  0  0  0  0
    6.4840    2.0430  -12.3290 O   0  0  0  0  0  0  0  0  0  0  0  0
    7.5950    4.2310  -12.5780 C   0  0  1  0  0  0  0  0  0  0  0  0
    8.8170    4.0280  -11.7560 C   0  0  0  0  0  0  0  0  0  0  0  0
    9.7820    3.0420  -11.8730 C   0  0  0  0  0  0  0  0  0  0  0  0
   10.7440    3.2820  -10.9180 N   0  0  0  0  0  0  0  0  0  0  0  0
   11.9260    2.5350  -10.6550 C   0  0  0  0  0  0  0  0  0  0  0  0
   11.9660    1.1460  -10.8410 C   0  0  0  0  0  0  0  0  0  0  0  0
   13.1440    0.4390  -10.5750 C   0  0  0  0  0  0  0  0  0  0  0  0
   14.2800    1.1080  -10.1230 C   0  0  0  0  0  0  0  0  0  0  0  0
   14.2460    2.4880   -9.9360 C   0  0  0  0  0  0  0  0  0  0  0  0
   13.0750    3.2010  -10.1990 C   0  0  0  0  0  0  0  0  0  0  0  0
   10.4490    4.3930  -10.2030 N   0  0  0  0  0  0  0  0  0  0  0  0
    9.2740    4.8290  -10.6710 C   0  0  0  0  0  0  0  0  0  0  0  0
    8.6480    6.0140  -10.0920 C   0  0  0  0  0  0  0  0  0  0  0  0
    8.7500    7.2610  -10.7240 C   0  0  0  0  0  0  0  0  0  0  0  0
    8.1560    8.3890  -10.1530 C   0  0  0  0  0  0  0  0  0  0  0  0
    7.4550    8.2650   -8.9580 C   0  0  0  0  0  0  0  0  0  0  0  0
    6.8860    9.3480   -8.4120 F   0  0  0  0  0  0  0  0  0  0  0  0
    7.3310    7.0340   -8.3260 C   0  0  0  0  0  0  0  0  0  0  0  0
    7.9240    5.9060   -8.8950 C   0  0  0  0  0  0  0  0  0  0  0  0
    7.9400    4.8010  -13.8560 N   0  0  0  0  0  0  0  0  0  0  0  0
    6.6300    2.1260  -14.9650 H   0  0  0  0  0  0  0  0  0  0  0  0
    6.9434    4.8377  -11.9321 H   0  0  0  0  0  0  0  0  0  0  0  0
    9.7803    2.2154  -12.5987 H   0  0  0  0  0  0  0  0  0  0  0  0
   11.0720    0.6123  -11.1958 H   0  0  0  0  0  0  0  0  0  0  0  0
   13.1735   -0.6505  -10.7234 H   0  0  0  0  0  0  0  0  0  0  0  0
   15.2027    0.5468   -9.9141 H   0  0  0  0  0  0  0  0  0  0  0  0
   15.1429    3.0165   -9.5807 H   0  0  0  0  0  0  0  0  0  0  0  0
   13.0523    4.2904  -10.0482 H   0  0  0  0  0  0  0  0  0  0  0  0
    9.2995    7.3516  -11.6726 H   0  0  0  0  0  0  0  0  0  0  0  0
    8.2420    9.3690  -10.6452 H   0  0  0  0  0  0  0  0  0  0  0  0
    6.7695    6.9490   -7.3839 H   0  0  0  0  0  0  0  0  0  0  0  0
    7.8233    4.9275   -8.4026 H   0  0  0  0  0  0  0  0  0  0  0  0
    8.4080    5.6840  -14.0020 H   0  0  0  0  0  0  0  0  0  0  0  0
  1  2  2  0
  2  3  1  0
  3  4  1  0
  4  5  2  0
  4  6  1  0
  6  7  1  0
  7  8  2  0
  8  9  1  0
  9 10  1  0
 10 11  2  0
 11 12  1  0
 12 13  2  0
 13 14  1  0
 14 15  2  0
  9 16  1  0
 16 17  2  0
 17 18  1  0
 18 19  2  0
 19 20  1  0
 20 21  2  0
 21 22  1  0
 21 23  1  0
 23 24  2  0
  6 25  1  0
 25  2  1  0
 17  7  1  0
 24 18  1  0
 15 10  1  0
  3 26  1  0
  6 27  1  1
  8 28  1  0
 11 29  1  0
 12 30  1  0
 13 31  1  0
 14 32  1  0
 15 33  1  0
 19 34  1  0
 20 35  1  0
 23 36  1  0
 24 37  1  0
 25 38  1  0
M  END
>  <meeko>  (1) 
{"is_sidechain": [false], "free_energy": -8.447, "intermolecular_energy": -9.929, "internal_energy": -0.934}

$$$$
3pyy_ligand
     RDKit          3D

 38 41  0  0  0  0  0  0  0  0999 V2000
   17.8150   -5.7100   -7.2760 O   0  0  0  0  0  0  0  0  0  0  0  0
   17.2760   -4.6680   -6.9550 C   0  0  0  0  0  0  0  0  0  0  0  0
   17.8000   -3.7070   -6.1590 N   0  0  0  0  0  0  0  0  0  0  0  0
   16.9360   -2.6620   -6.0310 C   0  0  0  0  0  0  0  0  0  0  0  0
   17.1580   -1.6510   -5.3810 O   0  0  0  0  0  0  0  0  0  0  0  0
   15.6660   -2.9800   -6.8270 C   0  0  1  0  0  0  0  0  0  0  0  0
   15.4120   -2.0230   -7.9350 C   0  0  0  0  0  0  0  0  0  0  0  0
   14.4600   -1.0210   -8.0090 C   0  0  0  0  0  0  0  0  0  0  0  0
   14.6300   -0.3690   -9.2100 N   0  0  0  0  0  0  0  0  0  0  0  0
   13.8850    0.7270   -9.7270 C   0  0  0  0  0  0  0  0  0  0  0  0
   14.3560    2.0430   -9.6210 C   0  0  0  0  0  0  0  0  0  0  0  0
   13.6010    3.1000  -10.1420 C   0  0  0  0  0  0  0  0  0  0  0  0
   12.3790    2.8520  -10.7660 C   0  0  0  0  0  0  0  0  0  0  0  0
   11.9050    1.5460  -10.8730 C   0  0  0  0  0  0  0  0  0  0  0  0
   12.6530    0.4870  -10.3570 C   0  0  0  0  0  0  0  0  0  0  0  0
   15.6640   -0.8980   -9.9050 N   0  0  0  0  0  0  0  0  0  0  0  0
   16.1180   -1.9180   -9.1670 C   0  0  0  0  0  0  0  0  0  0  0  0
   17.2320   -2.7310   -9.6470 C   0  0  0  0  0  0  0  0  0  0  0  0
   17.0040   -3.8650  -10.4400 C   0  0  0  0  0  0  0  0  0  0  0  0
   18.0790   -4.6390  -10.8830 C   0  0  0  0  0  0  0  0  0  0  0  0
   19.3760   -4.2740  -10.5410 C   0  0  0  0  0  0  0  0  0  0  0  0
   20.4050   -5.0180  -10.9670 F   0  0  0  0  0  0  0  0  0  0  0  0
   19.6210   -3.1450   -9.7690 C   0  0  0  0  0  0  0  0  0  0  0  0
   18.5490   -2.3690   -9.3250 C   0  0  0  0  0  0  0  0  0  0  0  0
   16.0240   -4.2730   -7.3540 N   0  0  0  0  0  0  0  0  0  0  0  0
   18.7150   -3.7540   -5.7460 H   0  0  0  0  0  0  0  0  0  0  0  0
   14.7458   -2.9339   -6.2261 H   0  0  0  0  0  0  0  0  0  0  0  0
   13.7034   -0.7874   -7.2455 H   0  0  0  0  0  0  0  0  0  0  0  0
   15.3187    2.2449   -9.1285 H   0  0  0  0  0  0  0  0  0  0  0  0
   13.9735    4.1316  -10.0588 H   0  0  0  0  0  0  0  0  0  0  0  0
   11.7896    3.6866  -11.1735 H   0  0  0  0  0  0  0  0  0  0  0  0
   10.9407    1.3497  -11.3645 H   0  0  0  0  0  0  0  0  0  0  0  0
   12.2752   -0.5424  -10.4443 H   0  0  0  0  0  0  0  0  0  0  0  0
   15.9762   -4.1456  -10.7137 H   0  0  0  0  0  0  0  0  0  0  0  0
   17.9002   -5.5325  -11.4992 H   0  0  0  0  0  0  0  0  0  0  0  0
   20.6525   -2.8647   -9.5095 H   0  0  0  0  0  0  0  0  0  0  0  0
   18.7374   -1.4698   -8.7201 H   0  0  0  0  0  0  0  0  0  0  0  0
   15.4500   -4.8430   -7.9600 H   0  0  0  0  0  0  0  0  0  0  0  0
  1  2  2  0
  2  3  1  0
  3  4  1  0
  4  5  2  0
  4  6  1  0
  6  7  1  0
  7  8  2  0
  8  9  1  0
  9 10  1  0
 10 11  2  0
 11 12  1  0
 12 13  2  0
 13 14  1  0
 14 15  2  0
  9 16  1  0
 16 17  2  0
 17 18  1  0
 18 19  2  0
 19 20  1  0
 20 21  2  0
 21 22  1  0
 21 23  1  0
 23 24  2  0
  6 25  1  0
 25  2  1  0
 17  7  1  0
 24 18  1  0
 15 10  1  0
  3 26  1  0
  6 27  1  1
  8 28  1  0
 11 29  1  0
 12 30  1  0
 13 31  1  0
 14 32  1  0
 15 33  1  0
 19 34  1  0
 20 35  1  0
 23 36  1  0
 24 37  1  0
 25 38  1  0
M  END
>  <meeko>  (2) 
{"is_sidechain": [false], "free_energy": -8.048, "intermolecular_energy": -9.937, "internal_energy": -0.456}

$$$$
3pyy_ligand
     RDKit          3D

 38 41  0  0  0  0  0  0  0  0999 V2000
    4.9550    5.7680  -12.3350 O   0  0  0  0  0  0  0  0  0  0  0  0
    5.8410    5.0200  -12.7040 C   0  0  0  0  0  0  0  0  0  0  0  0
    6.4400    5.0260  -13.9170 N   0  0  0  0  0  0  0  0  0  0  0  0
    7.4100    4.0710  -13.9820 C   0  0  0  0  0  0  0  0  0  0  0  0
    8.1200    3.8650  -14.9550 O   0  0  0  0  0  0  0  0  0  0  0  0
    7.4440    3.3220  -12.6460 C   0  0  1  0  0  0  0  0  0  0  0  0
    8.7370    3.4580  -11.9270 C   0  0  0  0  0  0  0  0  0  0  0  0
    9.7440    2.5210  -11.7770 C   0  0  0  0  0  0  0  0  0  0  0  0
   10.7650    3.1130  -11.0670 N   0  0  0  0  0  0  0  0  0  0  0  0
   12.0060    2.5400  -10.6700 C   0  0  0  0  0  0  0  0  0  0  0  0
   13.0640    3.3380  -10.2120 C   0  0  0  0  0  0  0  0  0  0  0  0
   14.2710    2.7450   -9.8270 C   0  0  0  0  0  0  0  0  0  0  0  0
   14.4290    1.3620   -9.8960 C   0  0  0  0  0  0  0  0  0  0  0  0
   13.3810    0.5630  -10.3500 C   0  0  0  0  0  0  0  0  0  0  0  0
   12.1740    1.1480  -10.7360 C   0  0  0  0  0  0  0  0  0  0  0  0
   10.4650    4.3990  -10.7710 N   0  0  0  0  0  0  0  0  0  0  0  0
    9.2330    4.6080  -11.2480 C   0  0  0  0  0  0  0  0  0  0  0  0
    8.5890    5.9060  -11.0720 C   0  0  0  0  0  0  0  0  0  0  0  0
    7.8980    6.2100   -9.8910 C   0  0  0  0  0  0  0  0  0  0  0  0
    7.2770    7.4520   -9.7410 C   0  0  0  0  0  0  0  0  0  0  0  0
    7.3570    8.3880  -10.7660 C   0  0  0  0  0  0  0  0  0  0  0  0
    6.7600    9.5790  -10.6190 F   0  0  0  0  0  0  0  0  0  0  0  0
    8.0500    8.1100  -11.9370 C   0  0  0  0  0  0  0  0  0  0  0  0
    8.6720    6.8690  -12.0900 C   0  0  0  0  0  0  0  0  0  0  0  0
    6.4020    4.0270  -11.9420 N   0  0  0  0  0  0  0  0  0  0  0  0
    6.2140    5.6700  -14.6560 H   0  0  0  0  0  0  0  0  0  0  0  0
    7.3165    2.2342  -12.7479 H   0  0  0  0  0  0  0  0  0  0  0  0
    9.7314    1.4887  -12.1566 H   0  0  0  0  0  0  0  0  0  0  0  0
   12.9449    4.4301  -10.1555 H   0  0  0  0  0  0  0  0  0  0  0  0
   15.0995    3.3733   -9.4680 H   0  0  0  0  0  0  0  0  0  0  0  0
   15.3805    0.9011   -9.5923 H   0  0  0  0  0  0  0  0  0  0  0  0
   13.5052   -0.5286  -10.4041 H   0  0  0  0  0  0  0  0  0  0  0  0
   11.3493    0.5143  -11.0941 H   0  0  0  0  0  0  0  0  0  0  0  0
    7.8447    5.4685   -9.0802 H   0  0  0  0  0  0  0  0  0  0  0  0
    6.7280    7.6882   -8.8176 H   0  0  0  0  0  0  0  0  0  0  0  0
    8.1085    8.8617  -12.7380 H   0  0  0  0  0  0  0  0  0  0  0  0
    9.2291    6.6453  -13.0117 H   0  0  0  0  0  0  0  0  0  0  0  0
    6.1050    3.8470  -10.9930 H   0  0  0  0  0  0  0  0  0  0  0  0
  1  2  2  0
  2  3  1  0
  3  4  1  0
  4  5  2  0
  4  6  1  0
  6  7  1  0
  7  8  2  0
  8  9  1  0
  9 10  1  0
 10 11  2  0
 11 12  1  0
 12 13  2  0
 13 14  1  0
 14 15  2  0
  9 16  1  0
 16 17  2  0
 17 18  1  0
 18 19  2  0
 19 20  1  0
 20 21  2  0
 21 22  1  0
 21 23  1  0
 23 24  2  0
  6 25  1  0
 25  2  1  0
 17  7  1  0
 24 18  1  0
 15 10  1  0
  3 26  1  0
  6 27  1  6
  8 28  1  0
 11 29  1  0
 12 30  1  0
 13 31  1  0
 14 32  1  0
 15 33  1  0
 19 34  1  0
 20 35  1  0
 23 36  1  0
 24 37  1  0
 25 38  1  0
M  END
>  <meeko>  (3) 
{"is_sidechain": [false], "free_energy": -8.012, "intermolecular_energy": -9.923, "internal_energy": -0.427}

$$$$
3pyy_ligand
     RDKit          3D

 38 41  0  0  0  0  0  0  0  0999 V2000
    4.4740    2.5860  -12.7880 O   0  0  0  0  0  0  0  0  0  0  0  0
    5.6860    2.6430  -12.6920 C   0  0  0  0  0  0  0  0  0  0  0  0
    6.5780    2.4450  -13.6900 N   0  0  0  0  0  0  0  0  0  0  0  0
    7.8530    2.6140  -13.2380 C   0  0  0  0  0  0  0  0  0  0  0  0
    8.8550    2.5100  -13.9300 O   0  0  0  0  0  0  0  0  0  0  0  0
    7.7990    2.9450  -11.7430 C   0  0  1  0  0  0  0  0  0  0  0  0
    8.3520    4.2850  -11.4180 C   0  0  0  0  0  0  0  0  0  0  0  0
    7.6970    5.5040  -11.3810 C   0  0  0  0  0  0  0  0  0  0  0  0
    8.6100    6.4580  -10.9920 N   0  0  0  0  0  0  0  0  0  0  0  0
    8.3990    7.8550  -10.8160 C   0  0  0  0  0  0  0  0  0  0  0  0
    7.7680    8.6270  -11.8020 C   0  0  0  0  0  0  0  0  0  0  0  0
    7.5740    9.9970  -11.5990 C   0  0  0  0  0  0  0  0  0  0  0  0
    8.0060   10.6020  -10.4190 C   0  0  0  0  0  0  0  0  0  0  0  0
    8.6340    9.8400   -9.4360 C   0  0  0  0  0  0  0  0  0  0  0  0
    8.8310    8.4720   -9.6320 C   0  0  0  0  0  0  0  0  0  0  0  0
    9.8210    5.9020  -10.7580 N   0  0  0  0  0  0  0  0  0  0  0  0
    9.6900    4.6020  -11.0470 C   0  0  0  0  0  0  0  0  0  0  0  0
   10.8350    3.7050  -10.9240 C   0  0  0  0  0  0  0  0  0  0  0  0
   10.6790    2.3190  -11.0710 C   0  0  0  0  0  0  0  0  0  0  0  0
   11.7820    1.4710  -10.9400 C   0  0  0  0  0  0  0  0  0  0  0  0
   13.0350    2.0100  -10.6720 C   0  0  0  0  0  0  0  0  0  0  0  0
   14.0900    1.1950  -10.5460 F   0  0  0  0  0  0  0  0  0  0  0  0
   13.2100    3.3820  -10.5370 C   0  0  0  0  0  0  0  0  0  0  0  0
   12.1100    4.2320  -10.6680 C   0  0  0  0  0  0  0  0  0  0  0  0
    6.3720    2.9290  -11.5390 N   0  0  0  0  0  0  0  0  0  0  0  0
    6.3260    2.2320  -14.6390 H   0  0  0  0  0  0  0  0  0  0  0  0
    8.3904    2.2597  -11.1180 H   0  0  0  0  0  0  0  0  0  0  0  0
    6.6375    5.6789  -11.6195 H   0  0  0  0  0  0  0  0  0  0  0  0
    7.4257    8.1551  -12.7348 H   0  0  0  0  0  0  0  0  0  0  0  0
    7.0783   10.6003  -12.3738 H   0  0  0  0  0  0  0  0  0  0  0  0
    7.8510   11.6800  -10.2645 H   0  0  0  0  0  0  0  0  0  0  0  0
    8.9747   10.3166   -8.5050 H   0  0  0  0  0  0  0  0  0  0  0  0
    9.3278    7.8741   -8.8537 H   0  0  0  0  0  0  0  0  0  0  0  0
    9.6864    1.8986  -11.2899 H   0  0  0  0  0  0  0  0  0  0  0  0
   11.6594    0.3832  -11.0483 H   0  0  0  0  0  0  0  0  0  0  0  0
   14.2078    3.7954  -10.3285 H   0  0  0  0  0  0  0  0  0  0  0  0
   12.2435    5.3195  -10.5701 H   0  0  0  0  0  0  0  0  0  0  0  0
    5.8990    3.1150  -10.6660 H   0  0  0  0  0  0  0  0  0  0  0  0
  1  2  2  0
  2  3  1  0
  3  4  1  0
  4  5  2  0
  4  6  1  0
  6  7  1  0
  7  8  2  0
  8  9  1  0
  9 10  1  0
 10 11  2  0
 11 12  1  0
 12 13  2  0
 13 14  1  0
 14 15  2  0
  9 16  1  0
 16 17  2  0
 17 18  1  0
 18 19  2  0
 19 20  1  0
 20 21  2  0
 21 22  1  0
 21 23  1  0
 23 24  2  0
  6 25  1  0
 25  2  1  0
 17  7  1  0
 24 18  1  0
 15 10  1  0
  3 26  1  0
  6 27  1  1
  8 28  1  0
 11 29  1  0
 12 30  1  0
 13 31  1  0
 14 32  1  0
 15 33  1  0
 19 34  1  0
 20 35  1  0
 23 36  1  0
 24 37  1  0
 25 38  1  0
M  END
>  <meeko>  (4) 
{"is_sidechain": [false], "free_energy": -7.446, "intermolecular_energy": -9.279, "internal_energy": -0.406}

$$$$
3pyy_ligand
     RDKit          3D

 38 41  0  0  0  0  0  0  0  0999 V2000
   17.8290   -4.5030   -6.4810 O   0  0  0  0  0  0  0  0  0  0  0  0
   17.6930   -3.8930   -7.5250 C   0  0  0  0  0  0  0  0  0  0  0  0
   17.6420   -4.4300   -8.7660 N   0  0  0  0  0  0  0  0  0  0  0  0
   17.4530   -3.4610   -9.7050 C   0  0  0  0  0  0  0  0  0  0  0  0
   17.3540   -3.6660  -10.9050 O   0  0  0  0  0  0  0  0  0  0  0  0
   17.3940   -2.1040   -8.9960 C   0  0  1  0  0  0  0  0  0  0  0  0
   16.0910   -1.4080   -9.1660 C   0  0  0  0  0  0  0  0  0  0  0  0
   15.8560   -0.0820   -9.4820 C   0  0  0  0  0  0  0  0  0  0  0  0
   14.4930    0.0930   -9.5700 N   0  0  0  0  0  0  0  0  0  0  0  0
   13.7780    1.2860   -9.8690 C   0  0  0  0  0  0  0  0  0  0  0  0
   14.3970    2.5420   -9.8060 C   0  0  0  0  0  0  0  0  0  0  0  0
   13.6660    3.6970  -10.1070 C   0  0  0  0  0  0  0  0  0  0  0  0
   12.3240    3.6060  -10.4700 C   0  0  0  0  0  0  0  0  0  0  0  0
   11.7030    2.3610  -10.5340 C   0  0  0  0  0  0  0  0  0  0  0  0
   12.4250    1.2040  -10.2350 C   0  0  0  0  0  0  0  0  0  0  0  0
   13.8410   -1.0720   -9.3410 N   0  0  0  0  0  0  0  0  0  0  0  0
   14.7890   -1.9730   -9.0590 C   0  0  0  0  0  0  0  0  0  0  0  0
   14.4190   -3.3480   -8.7360 C   0  0  0  0  0  0  0  0  0  0  0  0
   14.7840   -3.9190   -7.5080 C   0  0  0  0  0  0  0  0  0  0  0  0
   14.4330   -5.2390   -7.2160 C   0  0  0  0  0  0  0  0  0  0  0  0
   13.7120   -5.9800   -8.1460 C   0  0  0  0  0  0  0  0  0  0  0  0
   13.3770   -7.2460   -7.8640 F   0  0  0  0  0  0  0  0  0  0  0  0
   13.3290   -5.4250   -9.3610 C   0  0  0  0  0  0  0  0  0  0  0  0
   13.6780   -4.1060   -9.6550 C   0  0  0  0  0  0  0  0  0  0  0  0
   17.5590   -2.5310   -7.6300 N   0  0  0  0  0  0  0  0  0  0  0  0
   17.7050   -5.4150   -8.9570 H   0  0  0  0  0  0  0  0  0  0  0  0
   18.1293   -1.3781   -9.3733 H   0  0  0  0  0  0  0  0  0  0  0  0
   16.6208    0.6936   -9.6355 H   0  0  0  0  0  0  0  0  0  0  0  0
   15.4564    2.6199   -9.5202 H   0  0  0  0  0  0  0  0  0  0  0  0
   14.1536    4.6817  -10.0567 H   0  0  0  0  0  0  0  0  0  0  0  0
   11.7550    4.5173  -10.7060 H   0  0  0  0  0  0  0  0  0  0  0  0
   10.6433    2.2892  -10.8202 H   0  0  0  0  0  0  0  0  0  0  0  0
   11.9310    0.2225  -10.2865 H   0  0  0  0  0  0  0  0  0  0  0  0
   15.3480   -3.3258   -6.7731 H   0  0  0  0  0  0  0  0  0  0  0  0
   14.7252   -5.6898   -6.2561 H   0  0  0  0  0  0  0  0  0  0  0  0
   12.7549   -6.0209  -10.0858 H   0  0  0  0  0  0  0  0  0  0  0  0
   13.3706   -3.6587  -10.6118 H   0  0  0  0  0  0  0  0  0  0  0  0
   17.5670   -1.9280   -6.8200 H   0  0  0  0  0  0  0  0  0  0  0  0
  1  2  2  0
  2  3  1  0
  3  4  1  0
  4  5  2  0
  4  6  1  0
  6  7  1  0
  7  8  2  0
  8  9  1  0
  9 10  1  0
 10 11  2  0
 11 12  1  0
 12 13  2  0
 13 14  1  0
 14 15  2  0
  9 16  1  0
 16 17  2  0
 17 18  1  0
 18 19  2  0
 19 20  1  0
 20 21  2  0
 21 22  1  0
 21 23  1  0
 23 24  2  0
  6 25  1  0
 25  2  1  0
 17  7  1  0
 24 18  1  0
 15 10  1  0
  3 26  1  0
  6 27  1  6
  8 28  1  0
 11 29  1  0
 12 30  1  0
 13 31  1  0
 14 32  1  0
 15 33  1  0
 19 34  1  0
 20 35  1  0
 23 36  1  0
 24 37  1  0
 25 38  1  0
M  END
>  <meeko>  (5) 
{"is_sidechain": [false], "free_energy": -7.177, "intermolecular_energy": -10.16, "internal_energy": 0.791}

$$$$
3pyy_ligand
     RDKit          3D

 38 41  0  0  0  0  0  0  0  0999 V2000
   19.4450   -4.5620  -11.7850 O   0  0  0  0  0  0  0  0  0  0  0  0
   18.8550   -4.4050  -10.7320 C   0  0  0  0  0  0  0  0  0  0  0  0
   19.3900   -3.9530   -9.5740 N   0  0  0  0  0  0  0  0  0  0  0  0
   18.4400   -3.8730   -8.6010 C   0  0  0  0  0  0  0  0  0  0  0  0
   18.6420   -3.4820   -7.4610 O   0  0  0  0  0  0  0  0  0  0  0  0
   17.1070   -4.3560   -9.1840 C   0  0  1  0  0  0  0  0  0  0  0  0
   16.0550   -3.3060   -9.1900 C   0  0  0  0  0  0  0  0  0  0  0  0
   16.2030   -1.9360   -9.3170 C   0  0  0  0  0  0  0  0  0  0  0  0
   14.9450   -1.3760   -9.3060 N   0  0  0  0  0  0  0  0  0  0  0  0
   14.5960   -0.0000   -9.4070 C   0  0  0  0  0  0  0  0  0  0  0  0
   15.5740    1.0040   -9.3820 C   0  0  0  0  0  0  0  0  0  0  0  0
   15.1980    2.3480   -9.4850 C   0  0  0  0  0  0  0  0  0  0  0  0
   13.8540    2.6960   -9.6130 C   0  0  0  0  0  0  0  0  0  0  0  0
   12.8780    1.7020   -9.6370 C   0  0  0  0  0  0  0  0  0  0  0  0
   13.2450    0.3600   -9.5350 C   0  0  0  0  0  0  0  0  0  0  0  0
   13.9920   -2.3300   -9.1960 N   0  0  0  0  0  0  0  0  0  0  0  0
   14.6470   -3.4920   -9.0860 C   0  0  0  0  0  0  0  0  0  0  0  0
   13.9050   -4.7390   -8.9250 C   0  0  0  0  0  0  0  0  0  0  0  0
   14.4060   -5.7730   -8.1210 C   0  0  0  0  0  0  0  0  0  0  0  0
   13.6910   -6.9650   -7.9840 C   0  0  0  0  0  0  0  0  0  0  0  0
   12.4760   -7.1160   -8.6430 C   0  0  0  0  0  0  0  0  0  0  0  0
   11.7920   -8.2610   -8.5110 F   0  0  0  0  0  0  0  0  0  0  0  0
   11.9580   -6.0970   -9.4320 C   0  0  0  0  0  0  0  0  0  0  0  0
   12.6700   -4.9040   -9.5700 C   0  0  0  0  0  0  0  0  0  0  0  0
   17.5220   -4.6570  -10.5310 N   0  0  0  0  0  0  0  0  0  0  0  0
   20.3540   -3.6870   -9.4630 H   0  0  0  0  0  0  0  0  0  0  0  0
   16.6505   -5.1809   -8.6173 H   0  0  0  0  0  0  0  0  0  0  0  0
   17.1546   -1.3921   -9.4100 H   0  0  0  0  0  0  0  0  0  0  0  0
   16.6360    0.7356   -9.2815 H   0  0  0  0  0  0  0  0  0  0  0  0
   15.9671    3.1342   -9.4649 H   0  0  0  0  0  0  0  0  0  0  0  0
   13.5645    3.7541   -9.6949 H   0  0  0  0  0  0  0  0  0  0  0  0
   11.8172    1.9756   -9.7365 H   0  0  0  0  0  0  0  0  0  0  0  0
   12.4709   -0.4212   -9.5550 H   0  0  0  0  0  0  0  0  0  0  0  0
   15.3646   -5.6450   -7.5969 H   0  0  0  0  0  0  0  0  0  0  0  0
   14.0866   -7.7790   -7.3588 H   0  0  0  0  0  0  0  0  0  0  0  0
   10.9937   -6.2290   -9.9445 H   0  0  0  0  0  0  0  0  0  0  0  0
   12.2611   -4.0902  -10.1869 H   0  0  0  0  0  0  0  0  0  0  0  0
   16.9240   -5.0010  -11.2690 H   0  0  0  0  0  0  0  0  0  0  0  0
  1  2  2  0
  2  3  1  0
  3  4  1  0
  4  5  2  0
  4  6  1  0
  6  7  1  0
  7  8  2  0
  8  9  1  0
  9 10  1  0
 10 11  2  0
 11 12  1  0
 12 13  2  0
 13 14  1  0
 14 15  2  0
  9 16  1  0
 16 17  2  0
 17 18  1  0
 18 19  2  0
 19 20  1  0
 20 21  2  0
 21 22  1  0
 21 23  1  0
 23 24  2  0
  6 25  1  0
 25  2  1  0
 17  7  1  0
 24 18  1  0
 15 10  1  0
  3 26  1  0
  6 27  1  1
  8 28  1  0
 11 29  1  0
 12 30  1  0
 13 31  1  0
 14 32  1  0
 15 33  1  0
 19 34  1  0
 20 35  1  0
 23 36  1  0
 24 37  1  0
 25 38  1  0
M  END
>  <meeko>  (6) 
{"is_sidechain": [false], "free_energy": -7.143, "intermolecular_energy": -8.69, "internal_energy": -0.639}

$$$$
3pyy_ligand
     RDKit          3D

 38 41  0  0  0  0  0  0  0  0999 V2000
    3.3630    3.2340  -15.0650 O   0  0  0  0  0  0  0  0  0  0  0  0
    4.4830    3.6190  -14.7860 C   0  0  0  0  0  0  0  0  0  0  0  0
    5.6470    3.0540  -15.1830 N   0  0  0  0  0  0  0  0  0  0  0  0
    6.7120    3.7590  -14.7120 C   0  0  0  0  0  0  0  0  0  0  0  0
    7.8820    3.4820  -14.9310 O   0  0  0  0  0  0  0  0  0  0  0  0
    6.1870    4.9320  -13.8760 C   0  0  1  0  0  0  0  0  0  0  0  0
    6.5630    6.2600  -14.4270 C   0  0  0  0  0  0  0  0  0  0  0  0
    6.4730    6.7100  -15.7330 C   0  0  0  0  0  0  0  0  0  0  0  0
    6.9000    8.0180  -15.7550 N   0  0  0  0  0  0  0  0  0  0  0  0
    6.9880    8.8950  -16.8730 C   0  0  0  0  0  0  0  0  0  0  0  0
    7.2320   10.2650  -16.7080 C   0  0  0  0  0  0  0  0  0  0  0  0
    7.3150   11.1010  -17.8270 C   0  0  0  0  0  0  0  0  0  0  0  0
    7.1530   10.5780  -19.1090 C   0  0  0  0  0  0  0  0  0  0  0  0
    6.9090    9.2170  -19.2800 C   0  0  0  0  0  0  0  0  0  0  0  0
    6.8260    8.3770  -18.1680 C   0  0  0  0  0  0  0  0  0  0  0  0
    7.2440    8.4360  -14.5150 N   0  0  0  0  0  0  0  0  0  0  0  0
    7.0820    7.3770  -13.7130 C   0  0  0  0  0  0  0  0  0  0  0  0
    7.3930    7.4810  -12.2910 C   0  0  0  0  0  0  0  0  0  0  0  0
    8.6490    7.0940  -11.8010 C   0  0  0  0  0  0  0  0  0  0  0  0
    8.9290    7.1880  -10.4360 C   0  0  0  0  0  0  0  0  0  0  0  0
    7.9590    7.6760   -9.5670 C   0  0  0  0  0  0  0  0  0  0  0  0
    8.2300    7.7650   -8.2580 F   0  0  0  0  0  0  0  0  0  0  0  0
    6.7140    8.0770  -10.0370 C   0  0  0  0  0  0  0  0  0  0  0  0
    6.4320    7.9840  -11.4010 C   0  0  0  0  0  0  0  0  0  0  0  0
    4.7690    4.7150  -14.0130 N   0  0  0  0  0  0  0  0  0  0  0  0
    5.7070    2.2400  -15.7710 H   0  0  0  0  0  0  0  0  0  0  0  0
    6.5815    4.9544  -12.8494 H   0  0  0  0  0  0  0  0  0  0  0  0
    6.1231    6.1269  -16.5976 H   0  0  0  0  0  0  0  0  0  0  0  0
    7.3583   10.6833  -15.6985 H   0  0  0  0  0  0  0  0  0  0  0  0
    7.5089   12.1756  -17.6945 H   0  0  0  0  0  0  0  0  0  0  0  0
    7.2178   11.2397  -19.9853 H   0  0  0  0  0  0  0  0  0  0  0  0
    6.7817    8.8041  -20.2916 H   0  0  0  0  0  0  0  0  0  0  0  0
    6.6326    7.3031  -18.3071 H   0  0  0  0  0  0  0  0  0  0  0  0
    9.4153    6.7156  -12.4935 H   0  0  0  0  0  0  0  0  0  0  0  0
    9.9113    6.8778  -10.0503 H   0  0  0  0  0  0  0  0  0  0  0  0
    5.9568    8.4646   -9.3396 H   0  0  0  0  0  0  0  0  0  0  0  0
    5.4511    8.3068  -11.7801 H   0  0  0  0  0  0  0  0  0  0  0  0
    4.0430    5.2920  -13.6110 H   0  0  0  0  0  0  0  0  0  0  0  0
  1  2  2  0
  2  3  1  0
  3  4  1  0
  4  5  2  0
  4  6  1  0
  6  7  1  0
  7  8  2  0
  8  9  1  0
  9 10  1  0
 10 11  2  0
 11 12  1  0
 12 13  2  0
 13 14  1  0
 14 15  2  0
  9 16  1  0
 16 17  2  0
 17 18  1  0
 18 19  2  0
 19 20  1  0
 20 21  2  0
 21 22  1  0
 21 23  1  0
 23 24  2  0
  6 25  1  0
 25  2  1  0
 17  7  1  0
 24 18  1  0
 15 10  1  0
  3 26  1  0
  6 27  1  1
  8 28  1  0
 11 29  1  0
 12 30  1  0
 13 31  1  0
 14 32  1  0
 15 33  1  0
 19 34  1  0
 20 35  1  0
 23 36  1  0
 24 37  1  0
 25 38  1  0
M  END
>  <meeko>  (7) 
{"is_sidechain": [false], "free_energy": -6.582, "intermolecular_energy": -7.729, "internal_energy": -0.941}

$$$$
3pyy_ligand
     RDKit          3D

 38 41  0  0  0  0  0  0  0  0999 V2000
    7.9180    1.7230  -13.7820 O   0  0  0  0  0  0  0  0  0  0  0  0
    7.9410    2.7050  -13.0640 C   0  0  0  0  0  0  0  0  0  0  0  0
    8.9500    3.0730  -12.2410 N   0  0  0  0  0  0  0  0  0  0  0  0
    8.6540    4.2420  -11.6060 C   0  0  0  0  0  0  0  0  0  0  0  0
    9.3930    4.8120  -10.8170 O   0  0  0  0  0  0  0  0  0  0  0  0
    7.2580    4.6950  -12.0490 C   0  0  1  0  0  0  0  0  0  0  0  0
    7.2620    6.0030  -12.7550 C   0  0  0  0  0  0  0  0  0  0  0  0
    7.2560    6.2480  -14.1170 C   0  0  0  0  0  0  0  0  0  0  0  0
    7.2230    7.6130  -14.2960 N   0  0  0  0  0  0  0  0  0  0  0  0
    7.2080    8.3370  -15.5210 C   0  0  0  0  0  0  0  0  0  0  0  0
    7.3710    9.7300  -15.5460 C   0  0  0  0  0  0  0  0  0  0  0  0
    7.3530   10.4130  -16.7660 C   0  0  0  0  0  0  0  0  0  0  0  0
    7.1720    9.7180  -17.9610 C   0  0  0  0  0  0  0  0  0  0  0  0
    7.0090    8.3350  -17.9420 C   0  0  0  0  0  0  0  0  0  0  0  0
    7.0260    7.6450  -16.7290 C   0  0  0  0  0  0  0  0  0  0  0  0
    7.1880    8.2560  -13.1060 N   0  0  0  0  0  0  0  0  0  0  0  0
    7.2500    7.3010  -12.1710 C   0  0  0  0  0  0  0  0  0  0  0  0
    7.2580    7.6610  -10.7560 C   0  0  0  0  0  0  0  0  0  0  0  0
    6.1510    7.3850   -9.9400 C   0  0  0  0  0  0  0  0  0  0  0  0
    6.1680    7.7440   -8.5900 C   0  0  0  0  0  0  0  0  0  0  0  0
    7.2920    8.3680   -8.0590 C   0  0  0  0  0  0  0  0  0  0  0  0
    7.3050    8.7120   -6.7640 F   0  0  0  0  0  0  0  0  0  0  0  0
    8.4020    8.6360   -8.8500 C   0  0  0  0  0  0  0  0  0  0  0  0
    8.3880    8.2770  -10.1990 C   0  0  0  0  0  0  0  0  0  0  0  0
    6.9330    3.6310  -12.9650 N   0  0  0  0  0  0  0  0  0  0  0  0
    9.8110    2.5630  -12.1410 H   0  0  0  0  0  0  0  0  0  0  0  0
    6.5591    4.8513  -11.2141 H   0  0  0  0  0  0  0  0  0  0  0  0
    7.2743    5.4892  -14.9131 H   0  0  0  0  0  0  0  0  0  0  0  0
    7.5129   10.2846  -14.6067 H   0  0  0  0  0  0  0  0  0  0  0  0
    7.4824   11.5052  -16.7830 H   0  0  0  0  0  0  0  0  0  0  0  0
    7.1580   10.2612  -18.9174 H   0  0  0  0  0  0  0  0  0  0  0  0
    6.8667    7.7857  -18.8844 H   0  0  0  0  0  0  0  0  0  0  0  0
    6.8961    6.5527  -16.7193 H   0  0  0  0  0  0  0  0  0  0  0  0
    5.2677    6.8849  -10.3639 H   0  0  0  0  0  0  0  0  0  0  0  0
    5.2977    7.5344   -7.9508 H   0  0  0  0  0  0  0  0  0  0  0  0
    9.2855    9.1275   -8.4166 H   0  0  0  0  0  0  0  0  0  0  0  0
    9.2676    8.4783  -10.8281 H   0  0  0  0  0  0  0  0  0  0  0  0
    6.0790    3.5530  -13.5000 H   0  0  0  0  0  0  0  0  0  0  0  0
  1  2  2  0
  2  3  1  0
  3  4  1  0
  4  5  2  0
  4  6  1  0
  6  7  1  0
  7  8  2  0
  8  9  1  0
  9 10  1  0
 10 11  2  0
 11 12  1  0
 12 13  2  0
 13 14  1  0
 14 15  2  0
  9 16  1  0
 16 17  2  0
 17 18  1  0
 18 19  2  0
 19 20  1  0
 20 21  2  0
 21 22  1  0
 21 23  1  0
 23 24  2  0
  6 25  1  0
 25  2  1  0
 17  7  1  0
 24 18  1  0
 15 10  1  0
  3 26  1  0
  6 27  1  1
  8 28  1  0
 11 29  1  0
 12 30  1  0
 13 31  1  0
 14 32  1  0
 15 33  1  0
 19 34  1  0
 20 35  1  0
 23 36  1  0
 24 37  1  0
 25 38  1  0
M  END
>  <meeko>  (8) 
{"is_sidechain": [false], "free_energy": -6.341, "intermolecular_energy": -7.419, "internal_energy": -0.968}

$$$$
3pyy_ligand
     RDKit          3D

 38 41  0  0  0  0  0  0  0  0999 V2000
    7.9980    9.3380  -13.9170 O   0  0  0  0  0  0  0  0  0  0  0  0
    7.6530    8.2110  -13.6150 C   0  0  0  0  0  0  0  0  0  0  0  0
    7.4250    7.1870  -14.4700 N   0  0  0  0  0  0  0  0  0  0  0  0
    7.0810    6.0570  -13.7910 C   0  0  0  0  0  0  0  0  0  0  0  0
    6.8350    4.9800  -14.3120 O   0  0  0  0  0  0  0  0  0  0  0  0
    7.0560    6.3800  -12.2930 C   0  0  1  0  0  0  0  0  0  0  0  0
    8.0450    5.5970  -11.5070 C   0  0  0  0  0  0  0  0  0  0  0  0
    9.1300    4.8690  -11.9650 C   0  0  0  0  0  0  0  0  0  0  0  0
    9.7770    4.3470  -10.8680 N   0  0  0  0  0  0  0  0  0  0  0  0
   10.9420    3.5310  -10.8410 C   0  0  0  0  0  0  0  0  0  0  0  0
   10.8750    2.1560  -11.1090 C   0  0  0  0  0  0  0  0  0  0  0  0
   12.0390    1.3800  -11.0770 C   0  0  0  0  0  0  0  0  0  0  0  0
   13.2680    1.9660  -10.7790 C   0  0  0  0  0  0  0  0  0  0  0  0
   13.3410    3.3310  -10.5110 C   0  0  0  0  0  0  0  0  0  0  0  0
   12.1850    4.1120  -10.5420 C   0  0  0  0  0  0  0  0  0  0  0  0
    9.1650    4.7240   -9.7210 N   0  0  0  0  0  0  0  0  0  0  0  0
    8.1000    5.4430  -10.0930 C   0  0  0  0  0  0  0  0  0  0  0  0
    7.1950    5.9880   -9.0850 C   0  0  0  0  0  0  0  0  0  0  0  0
    5.9470    5.3970   -8.8460 C   0  0  0  0  0  0  0  0  0  0  0  0
    5.0870    5.9360   -7.8860 C   0  0  0  0  0  0  0  0  0  0  0  0
    5.4800    7.0560   -7.1630 C   0  0  0  0  0  0  0  0  0  0  0  0
    4.6540    7.5710   -6.2430 F   0  0  0  0  0  0  0  0  0  0  0  0
    6.7200    7.6460   -7.3760 C   0  0  0  0  0  0  0  0  0  0  0  0
    7.5820    7.1090   -8.3350 C   0  0  0  0  0  0  0  0  0  0  0  0
    7.4360    7.7700  -12.3340 N   0  0  0  0  0  0  0  0  0  0  0  0
    7.5270    7.2520  -15.4690 H   0  0  0  0  0  0  0  0  0  0  0  0
    6.0957    6.1498  -11.8084 H   0  0  0  0  0  0  0  0  0  0  0  0
    9.4224    4.7323  -13.0166 H   0  0  0  0  0  0  0  0  0  0  0  0
    9.9078    1.6878  -11.3443 H   0  0  0  0  0  0  0  0  0  0  0  0
   11.9838    0.3019  -11.2881 H   0  0  0  0  0  0  0  0  0  0  0  0
   14.1797    1.3510  -10.7555 H   0  0  0  0  0  0  0  0  0  0  0  0
   14.3106    3.7936  -10.2748 H   0  0  0  0  0  0  0  0  0  0  0  0
   12.2478    5.1897  -10.3309 H   0  0  0  0  0  0  0  0  0  0  0  0
    5.6437    4.5063   -9.4158 H   0  0  0  0  0  0  0  0  0  0  0  0
    4.1044    5.4765   -7.7034 H   0  0  0  0  0  0  0  0  0  0  0  0
    7.0205    8.5295   -6.7936 H   0  0  0  0  0  0  0  0  0  0  0  0
    8.5681    7.5667   -8.5029 H   0  0  0  0  0  0  0  0  0  0  0  0
    7.5530    8.3730  -11.5330 H   0  0  0  0  0  0  0  0  0  0  0  0
  1  2  2  0
  2  3  1  0
  3  4  1  0
  4  5  2  0
  4  6  1  0
  6  7  1  0
  7  8  2  0
  8  9  1  0
  9 10  1  0
 10 11  2  0
 11 12  1  0
 12 13  2  0
 13 14  1  0
 14 15  2  0
  9 16  1  0
 16 17  2  0
 17 18  1  0
 18 19  2  0
 19 20  1  0
 20 21  2  0
 21 22  1  0
 21 23  1  0
 23 24  2  0
  6 25  1  0
 25  2  1  0
 17  7  1  0
 24 18  1  0
 15 10  1  0
  3 26  1  0
  6 27  1  1
  8 28  1  0
 11 29  1  0
 12 30  1  0
 13 31  1  0
 14 32  1  0
 15 33  1  0
 19 34  1  0
 20 35  1  0
 23 36  1  0
 24 37  1  0
 25 38  1  0
M  END
>  <meeko>  (9) 
{"is_sidechain": [false], "free_energy": -6.325, "intermolecular_energy": -7.515, "internal_energy": -0.853}

$$$$
