3rr4_ligand
     RDKit          3D

 32 34  0  0  0  0  0  0  0  0999 V2000
   18.1530   18.4200   14.4010 C   0  0  0  0  0  0  0  0  0  0  0  0
   19.0380   17.9710   15.4660 N   0  0  0  0  0  0  0  0  0  0  0  0
   18.6060   17.7640   16.7150 C   0  0  0  0  0  0  0  0  0  0  0  0
   17.4050   17.3530   17.0960 N   0  0  0  0  0  0  0  0  0  0  0  0
   17.3340   17.2580   18.4700 C   0  0  0  0  0  0  0  0  0  0  0  0
   16.2990   16.8770   19.3220 C   0  0  0  0  0  0  0  0  0  0  0  0
   16.5960   16.9000   20.6970 C   0  0  0  0  0  0  0  0  0  0  0  0
   15.5780   16.5200   21.6150 N   0  0  0  0  0  0  0  0  0  0  0  0
   15.8110   16.5250   22.9570 C   0  0  0  0  0  0  0  0  0  0  0  0
   14.8560   16.1680   23.8400 N   0  0  0  0  0  0  0  0  0  0  0  0
   13.9680   15.0120   23.6940 C   0  0  0  0  0  0  0  0  0  0  0  0
   17.0170   16.8930   23.4040 N   0  0  0  0  0  0  0  0  0  0  0  0
   18.0980   17.2860   22.6020 C   0  0  0  0  0  0  0  0  0  0  0  0
   19.1580   17.6050   23.1020 O   0  0  0  0  0  0  0  0  0  0  0  0
   17.8720   17.2910   21.1530 C   0  0  0  0  0  0  0  0  0  0  0  0
   18.9150   17.6750   20.2840 C   0  0  0  0  0  0  0  0  0  0  0  0
   18.5940   17.6430   18.9340 C   0  0  0  0  0  0  0  0  0  0  0  0
   19.3310   17.9420   17.8110 N   0  0  0  0  0  0  0  0  0  0  0  0
   17.2534   18.8764   14.8398 H   0  0  0  0  0  0  0  0  0  0  0  0
   18.6748   19.1624   13.7792 H   0  0  0  0  0  0  0  0  0  0  0  0
   17.8620   17.5605   13.7792 H   0  0  0  0  0  0  0  0  0  0  0  0
   20.0180   17.8060   15.2640 H   0  0  0  0  0  0  0  0  0  0  0  0
   16.6550   17.1440   16.4470 H   0  0  0  0  0  0  0  0  0  0  0  0
   15.3110   16.5769   18.9429 H   0  0  0  0  0  0  0  0  0  0  0  0
   14.6590   16.2380   21.2890 H   0  0  0  0  0  0  0  0  0  0  0  0
   14.7360   16.7370   24.6720 H   0  0  0  0  0  0  0  0  0  0  0  0
   13.6828   14.6407   24.6894 H   0  0  0  0  0  0  0  0  0  0  0  0
   13.0650   15.3108   23.1415 H   0  0  0  0  0  0  0  0  0  0  0  0
   14.4895   14.2165   23.1415 H   0  0  0  0  0  0  0  0  0  0  0  0
   17.2090   16.9020   24.3980 H   0  0  0  0  0  0  0  0  0  0  0  0
   19.9078   17.9770   20.6489 H   0  0  0  0  0  0  0  0  0  0  0  0
   20.2950   18.2550   17.8110 H   0  0  0  0  0  0  0  0  0  0  0  0
  1  2  1  0
  2  3  1  0
  3  4  1  0
  4  5  1  0
  5  6  2  0
  6  7  1  0
  7  8  1  0
  8  9  2  0
  9 10  1  0
 10 11  1  0
  9 12  1  0
 12 13  1  0
 13 14  2  0
 13 15  1  0
 15 16  1  0
 16 17  2  0
 17 18  1  0
 18  3  2  0
 17  5  1  0
 15  7  2  0
  1 19  1  0
  1 20  1  0
  1 21  1  0
  2 22  1  0
  4 23  1  0
  6 24  1  0
  8 25  1  0
 10 26  1  0
 11 27  1  0
 11 28  1  0
 11 29  1  0
 12 30  1  0
 16 31  1  0
 18 32  1  0
M  CHG  2   8   1  18   1
M  END
>  <meeko>  (1) 
{"is_sidechain": [false], "free_energy": -8.785, "intermolecular_energy": -9.812, "internal_energy": -0.08}

$$$$
3rr4_ligand
     RDKit          3D

 32 34  0  0  0  0  0  0  0  0999 V2000
   13.6600   14.2330   24.1680 C   0  0  0  0  0  0  0  0  0  0  0  0
   13.6500   15.5740   23.6010 N   0  0  0  0  0  0  0  0  0  0  0  0
   14.5080   15.9520   22.6460 C   0  0  0  0  0  0  0  0  0  0  0  0
   14.3140   15.9380   21.3340 N   0  0  0  0  0  0  0  0  0  0  0  0
   15.4280   16.4020   20.6700 C   0  0  0  0  0  0  0  0  0  0  0  0
   15.6980   16.5700   19.3130 C   0  0  0  0  0  0  0  0  0  0  0  0
   16.9710   17.0810   18.9990 C   0  0  0  0  0  0  0  0  0  0  0  0
   17.3030   17.2740   17.6290 N   0  0  0  0  0  0  0  0  0  0  0  0
   18.5200   17.7650   17.2680 C   0  0  0  0  0  0  0  0  0  0  0  0
   18.8500   17.9530   15.9740 N   0  0  0  0  0  0  0  0  0  0  0  0
   17.8900   18.1080   14.8780 C   0  0  0  0  0  0  0  0  0  0  0  0
   19.4070   18.0660   18.2240 N   0  0  0  0  0  0  0  0  0  0  0  0
   19.1990   17.9200   19.6030 C   0  0  0  0  0  0  0  0  0  0  0  0
   20.0680   18.2210   20.3960 O   0  0  0  0  0  0  0  0  0  0  0  0
   17.8950   17.3930   20.0170 C   0  0  0  0  0  0  0  0  0  0  0  0
   17.6150   17.2200   21.3890 C   0  0  0  0  0  0  0  0  0  0  0  0
   16.3530   16.7150   21.6700 C   0  0  0  0  0  0  0  0  0  0  0  0
   15.7300   16.4170   22.8610 N   0  0  0  0  0  0  0  0  0  0  0  0
   13.6595   14.2992   25.2660 H   0  0  0  0  0  0  0  0  0  0  0  0
   12.7659   13.6867   23.8332 H   0  0  0  0  0  0  0  0  0  0  0  0
   14.5621   13.7001   23.8332 H   0  0  0  0  0  0  0  0  0  0  0  0
   12.9740   16.2520   23.9330 H   0  0  0  0  0  0  0  0  0  0  0  0
   13.4530   15.6220   20.9010 H   0  0  0  0  0  0  0  0  0  0  0  0
   14.9615   16.3187   18.5355 H   0  0  0  0  0  0  0  0  0  0  0  0
   16.6380   17.0500   16.8940 H   0  0  0  0  0  0  0  0  0  0  0  0
   19.8340   17.9920   15.7310 H   0  0  0  0  0  0  0  0  0  0  0  0
   16.8839   18.2704   15.2920 H   0  0  0  0  0  0  0  0  0  0  0  0
   18.1758   18.9716   14.2596 H   0  0  0  0  0  0  0  0  0  0  0  0
   17.8895   17.1983   14.2596 H   0  0  0  0  0  0  0  0  0  0  0  0
   20.3170   18.4320   17.9750 H   0  0  0  0  0  0  0  0  0  0  0  0
   18.3421   17.4668   22.1767 H   0  0  0  0  0  0  0  0  0  0  0  0
   16.1410   16.5350   23.7800 H   0  0  0  0  0  0  0  0  0  0  0  0
  1  2  1  0
  2  3  1  0
  3  4  1  0
  4  5  1  0
  5  6  2  0
  6  7  1  0
  7  8  1  0
  8  9  2  0
  9 10  1  0
 10 11  1  0
  9 12  1  0
 12 13  1  0
 13 14  2  0
 13 15  1  0
 15 16  1  0
 16 17  2  0
 17 18  1  0
 18  3  2  0
 17  5  1  0
 15  7  2  0
  1 19  1  0
  1 20  1  0
  1 21  1  0
  2 22  1  0
  4 23  1  0
  6 24  1  0
  8 25  1  0
 10 26  1  0
 11 27  1  0
 11 28  1  0
 11 29  1  0
 12 30  1  0
 16 31  1  0
 18 32  1  0
M  CHG  2   8   1  18   1
M  END
>  <meeko>  (2) 
{"is_sidechain": [false], "free_energy": -7.593, "intermolecular_energy": -8.484, "internal_energy": -0.077}

$$$$
3rr4_ligand
     RDKit          3D

 32 34  0  0  0  0  0  0  0  0999 V2000
   12.2970   17.4750   14.6570 C   0  0  0  0  0  0  0  0  0  0  0  0
   11.9600   16.5100   15.6940 N   0  0  0  0  0  0  0  0  0  0  0  0
   12.5360   16.5260   16.9010 C   0  0  0  0  0  0  0  0  0  0  0  0
   13.8330   16.5520   17.1770 N   0  0  0  0  0  0  0  0  0  0  0  0
   14.0420   16.5620   18.5390 C   0  0  0  0  0  0  0  0  0  0  0  0
   15.2110   16.5870   19.2990 C   0  0  0  0  0  0  0  0  0  0  0  0
   15.0360   16.5910   20.6950 C   0  0  0  0  0  0  0  0  0  0  0  0
   16.1930   16.6170   21.5210 N   0  0  0  0  0  0  0  0  0  0  0  0
   16.0820   16.6200   22.8790 C   0  0  0  0  0  0  0  0  0  0  0  0
   17.1700   16.6450   23.6750 N   0  0  0  0  0  0  0  0  0  0  0  0
   18.4800   17.1760   23.2920 C   0  0  0  0  0  0  0  0  0  0  0  0
   14.8620   16.5990   23.4290 N   0  0  0  0  0  0  0  0  0  0  0  0
   13.6510   16.5730   22.7230 C   0  0  0  0  0  0  0  0  0  0  0  0
   12.5900   16.5540   23.3140 O   0  0  0  0  0  0  0  0  0  0  0  0
   13.7440   16.5680   21.2600 C   0  0  0  0  0  0  0  0  0  0  0  0
   12.5660   16.5420   20.4850 C   0  0  0  0  0  0  0  0  0  0  0  0
   12.7680   16.5390   19.1110 C   0  0  0  0  0  0  0  0  0  0  0  0
   11.8850   16.5180   18.0560 N   0  0  0  0  0  0  0  0  0  0  0  0
   12.6254   18.4153   15.1239 H   0  0  0  0  0  0  0  0  0  0  0  0
   13.1080   17.0732   14.0318 H   0  0  0  0  0  0  0  0  0  0  0  0
   11.4122   17.6655   14.0318 H   0  0  0  0  0  0  0  0  0  0  0  0
   11.2660   15.7950   15.5040 H   0  0  0  0  0  0  0  0  0  0  0  0
   14.5540   16.5630   16.4650 H   0  0  0  0  0  0  0  0  0  0  0  0
   16.2085   16.6026   18.8356 H   0  0  0  0  0  0  0  0  0  0  0  0
   17.1240   16.6330   21.1160 H   0  0  0  0  0  0  0  0  0  0  0  0
   17.0840   16.2690   24.6140 H   0  0  0  0  0  0  0  0  0  0  0  0
   19.0593   17.4108   24.1971 H   0  0  0  0  0  0  0  0  0  0  0  0
   19.0197   16.4256   22.6956 H   0  0  0  0  0  0  0  0  0  0  0  0
   18.3449   18.0904   22.6956 H   0  0  0  0  0  0  0  0  0  0  0  0
   14.7590   16.6020   24.4360 H   0  0  0  0  0  0  0  0  0  0  0  0
   11.5624   16.5253   20.9351 H   0  0  0  0  0  0  0  0  0  0  0  0
   10.8750   16.4990   18.1400 H   0  0  0  0  0  0  0  0  0  0  0  0
  1  2  1  0
  2  3  1  0
  3  4  1  0
  4  5  1  0
  5  6  2  0
  6  7  1  0
  7  8  1  0
  8  9  2  0
  9 10  1  0
 10 11  1  0
  9 12  1  0
 12 13  1  0
 13 14  2  0
 13 15  1  0
 15 16  1  0
 16 17  2  0
 17 18  1  0
 18  3  2  0
 17  5  1  0
 15  7  2  0
  1 19  1  0
  1 20  1  0
  1 21  1  0
  2 22  1  0
  4 23  1  0
  6 24  1  0
  8 25  1  0
 10 26  1  0
 11 27  1  0
 11 28  1  0
 11 29  1  0
 12 30  1  0
 16 31  1  0
 18 32  1  0
M  CHG  2   8   1  18   1
M  END
>  <meeko>  (3) 
{"is_sidechain": [false], "free_energy": -7.514, "intermolecular_energy": -8.391, "internal_energy": -0.081}

$$$$
3rr4_ligand
     RDKit          3D

 32 34  0  0  0  0  0  0  0  0999 V2000
   14.0540   14.5240   24.4060 C   0  0  0  0  0  0  0  0  0  0  0  0
   14.4850   15.7820   23.8150 N   0  0  0  0  0  0  0  0  0  0  0  0
   14.4850   15.9880   22.4930 C   0  0  0  0  0  0  0  0  0  0  0  0
   15.5340   16.1900   21.7060 N   0  0  0  0  0  0  0  0  0  0  0  0
   15.1370   16.3650   20.3980 C   0  0  0  0  0  0  0  0  0  0  0  0
   15.8620   16.6020   19.2320 C   0  0  0  0  0  0  0  0  0  0  0  0
   15.1040   16.7280   18.0530 C   0  0  0  0  0  0  0  0  0  0  0  0
   15.7910   16.9710   16.8310 N   0  0  0  0  0  0  0  0  0  0  0  0
   15.1070   17.1020   15.6600 C   0  0  0  0  0  0  0  0  0  0  0  0
   15.7440   17.3330   14.4940 N   0  0  0  0  0  0  0  0  0  0  0  0
   17.0540   17.9760   14.3650 C   0  0  0  0  0  0  0  0  0  0  0  0
   13.7740   16.9990   15.6730 N   0  0  0  0  0  0  0  0  0  0  0  0
   12.9860   16.7620   16.8100 C   0  0  0  0  0  0  0  0  0  0  0  0
   11.7770   16.6850   16.7210 O   0  0  0  0  0  0  0  0  0  0  0  0
   13.6990   16.6180   18.0830 C   0  0  0  0  0  0  0  0  0  0  0  0
   12.9720   16.3770   19.2670 C   0  0  0  0  0  0  0  0  0  0  0  0
   13.7440   16.2570   20.4150 C   0  0  0  0  0  0  0  0  0  0  0  0
   13.4030   16.0260   21.7280 N   0  0  0  0  0  0  0  0  0  0  0  0
   14.0819   14.6055   25.5026 H   0  0  0  0  0  0  0  0  0  0  0  0
   13.0275   14.2989   24.0811 H   0  0  0  0  0  0  0  0  0  0  0  0
   14.7268   13.7167   24.0811 H   0  0  0  0  0  0  0  0  0  0  0  0
   14.7990   16.5350   24.4160 H   0  0  0  0  0  0  0  0  0  0  0  0
   16.4890   16.2100   22.0450 H   0  0  0  0  0  0  0  0  0  0  0  0
   16.9588   16.6854   19.2330 H   0  0  0  0  0  0  0  0  0  0  0  0
   16.8030   17.0510   16.8070 H   0  0  0  0  0  0  0  0  0  0  0  0
   15.2900   17.0410   13.6350 H   0  0  0  0  0  0  0  0  0  0  0  0
   17.4639   18.1772   15.3658 H   0  0  0  0  0  0  0  0  0  0  0  0
   17.7366   17.3106   13.8162 H   0  0  0  0  0  0  0  0  0  0  0  0
   16.9451   18.9231   13.8162 H   0  0  0  0  0  0  0  0  0  0  0  0
   13.2480   17.0930   14.8140 H   0  0  0  0  0  0  0  0  0  0  0  0
   11.8755   16.2905   19.2802 H   0  0  0  0  0  0  0  0  0  0  0  0
   12.4580   15.9010   22.0730 H   0  0  0  0  0  0  0  0  0  0  0  0
  1  2  1  0
  2  3  1  0
  3  4  1  0
  4  5  1  0
  5  6  2  0
  6  7  1  0
  7  8  1  0
  8  9  2  0
  9 10  1  0
 10 11  1  0
  9 12  1  0
 12 13  1  0
 13 14  2  0
 13 15  1  0
 15 16  1  0
 16 17  2  0
 17 18  1  0
 18  3  2  0
 17  5  1  0
 15  7  2  0
  1 19  1  0
  1 20  1  0
  1 21  1  0
  2 22  1  0
  4 23  1  0
  6 24  1  0
  8 25  1  0
 10 26  1  0
 11 27  1  0
 11 28  1  0
 11 29  1  0
 12 30  1  0
 16 31  1  0
 18 32  1  0
M  CHG  2   8   1  18   1
M  END
>  <meeko>  (4) 
{"is_sidechain": [false], "free_energy": -7.018, "intermolecular_energy": -7.837, "internal_energy": -0.081}

$$$$
3rr4_ligand
     RDKit          3D

 32 34  0  0  0  0  0  0  0  0999 V2000
   11.3610   15.4430   14.7760 C   0  0  0  0  0  0  0  0  0  0  0  0
   12.0360   14.5430   15.7000 N   0  0  0  0  0  0  0  0  0  0  0  0
   12.8850   14.9840   16.6360 C   0  0  0  0  0  0  0  0  0  0  0  0
   12.7010   15.0010   17.9490 N   0  0  0  0  0  0  0  0  0  0  0  0
   13.8000   15.5300   18.5890 C   0  0  0  0  0  0  0  0  0  0  0  0
   14.0720   15.7510   19.9390 C   0  0  0  0  0  0  0  0  0  0  0  0
   15.3260   16.3200   20.2270 C   0  0  0  0  0  0  0  0  0  0  0  0
   15.6600   16.5670   21.5880 N   0  0  0  0  0  0  0  0  0  0  0  0
   16.8590   17.1170   21.9240 C   0  0  0  0  0  0  0  0  0  0  0  0
   17.1900   17.3580   23.2090 N   0  0  0  0  0  0  0  0  0  0  0  0
   18.5480   17.2910   23.7540 C   0  0  0  0  0  0  0  0  0  0  0  0
   17.7270   17.4230   20.9520 N   0  0  0  0  0  0  0  0  0  0  0  0
   17.5150   17.2280   19.5800 C   0  0  0  0  0  0  0  0  0  0  0  0
   18.3650   17.5400   18.7710 O   0  0  0  0  0  0  0  0  0  0  0  0
   16.2300   16.6380   19.1920 C   0  0  0  0  0  0  0  0  0  0  0  0
   15.9480   16.4120   17.8290 C   0  0  0  0  0  0  0  0  0  0  0  0
   14.7040   15.8500   17.5730 C   0  0  0  0  0  0  0  0  0  0  0  0
   14.0860   15.4910   16.3970 N   0  0  0  0  0  0  0  0  0  0  0  0
   10.7961   16.1963   15.3447 H   0  0  0  0  0  0  0  0  0  0  0  0
   12.1070   15.9453   14.1426 H   0  0  0  0  0  0  0  0  0  0  0  0
   10.6699   14.8675   14.1426 H   0  0  0  0  0  0  0  0  0  0  0  0
   11.8650   13.5460   15.6410 H   0  0  0  0  0  0  0  0  0  0  0  0
   11.8560   14.6660   18.3980 H   0  0  0  0  0  0  0  0  0  0  0  0
   13.3508   15.4962   20.7295 H   0  0  0  0  0  0  0  0  0  0  0  0
   15.0100   16.3390   22.3340 H   0  0  0  0  0  0  0  0  0  0  0  0
   16.4470   17.6050   23.8560 H   0  0  0  0  0  0  0  0  0  0  0  0
   18.5025   17.2932   24.8531 H   0  0  0  0  0  0  0  0  0  0  0  0
   19.0364   16.3677   23.4091 H   0  0  0  0  0  0  0  0  0  0  0  0
   19.1249   18.1618   23.4091 H   0  0  0  0  0  0  0  0  0  0  0  0
   18.6240   17.8320   21.1820 H   0  0  0  0  0  0  0  0  0  0  0  0
   16.6599   16.6621   17.0286 H   0  0  0  0  0  0  0  0  0  0  0  0
   14.4850   15.5970   15.4710 H   0  0  0  0  0  0  0  0  0  0  0  0
  1  2  1  0
  2  3  1  0
  3  4  1  0
  4  5  1  0
  5  6  2  0
  6  7  1  0
  7  8  1  0
  8  9  2  0
  9 10  1  0
 10 11  1  0
  9 12  1  0
 12 13  1  0
 13 14  2  0
 13 15  1  0
 15 16  1  0
 16 17  2  0
 17 18  1  0
 18  3  2  0
 17  5  1  0
 15  7  2  0
  1 19  1  0
  1 20  1  0
  1 21  1  0
  2 22  1  0
  4 23  1  0
  6 24  1  0
  8 25  1  0
 10 26  1  0
 11 27  1  0
 11 28  1  0
 11 29  1  0
 12 30  1  0
 16 31  1  0
 18 32  1  0
M  CHG  2   8   1  18   1
M  END
>  <meeko>  (5) 
{"is_sidechain": [false], "free_energy": -6.752, "intermolecular_energy": -7.546, "internal_energy": -0.075}

$$$$
3rr4_ligand
     RDKit          3D

 32 34  0  0  0  0  0  0  0  0999 V2000
   18.5130   19.2830   14.3650 C   0  0  0  0  0  0  0  0  0  0  0  0
   18.8240   18.1040   15.1600 N   0  0  0  0  0  0  0  0  0  0  0  0
   18.1180   17.7670   16.2450 C   0  0  0  0  0  0  0  0  0  0  0  0
   18.5260   17.7720   17.5070 N   0  0  0  0  0  0  0  0  0  0  0  0
   17.5160   17.3590   18.3490 C   0  0  0  0  0  0  0  0  0  0  0  0
   17.4660   17.2040   19.7340 C   0  0  0  0  0  0  0  0  0  0  0  0
   16.2390   16.7540   20.2560 C   0  0  0  0  0  0  0  0  0  0  0  0
   16.1290   16.5770   21.6640 N   0  0  0  0  0  0  0  0  0  0  0  0
   14.9660   16.1430   22.2230 C   0  0  0  0  0  0  0  0  0  0  0  0
   14.8460   15.9700   23.5560 N   0  0  0  0  0  0  0  0  0  0  0  0
   14.2240   14.8110   24.1990 C   0  0  0  0  0  0  0  0  0  0  0  0
   13.9210   15.8840   21.4290 N   0  0  0  0  0  0  0  0  0  0  0  0
   13.9060   16.0190   20.0330 C   0  0  0  0  0  0  0  0  0  0  0  0
   12.9060   15.7580   19.3960 O   0  0  0  0  0  0  0  0  0  0  0  0
   15.1470   16.4840   19.4060 C   0  0  0  0  0  0  0  0  0  0  0  0
   15.2050   16.6440   18.0060 C   0  0  0  0  0  0  0  0  0  0  0  0
   16.4260   17.0890   17.5170 C   0  0  0  0  0  0  0  0  0  0  0  0
   16.8580   17.3580   16.2380 N   0  0  0  0  0  0  0  0  0  0  0  0
   18.2902   20.1277   15.0335 H   0  0  0  0  0  0  0  0  0  0  0  0
   19.3753   19.5352   13.7304 H   0  0  0  0  0  0  0  0  0  0  0  0
   17.6385   19.0771   13.7304 H   0  0  0  0  0  0  0  0  0  0  0  0
   19.6010   17.5110   14.8910 H   0  0  0  0  0  0  0  0  0  0  0  0
   19.4600   18.0460   17.7910 H   0  0  0  0  0  0  0  0  0  0  0  0
   18.3313   17.4199   20.3780 H   0  0  0  0  0  0  0  0  0  0  0  0
   16.9140   16.7710   22.2780 H   0  0  0  0  0  0  0  0  0  0  0  0
   15.2120   16.6930   24.1670 H   0  0  0  0  0  0  0  0  0  0  0  0
   14.2836   14.9221   25.2918 H   0  0  0  0  0  0  0  0  0  0  0  0
   13.1692   14.7448   23.8942 H   0  0  0  0  0  0  0  0  0  0  0  0
   14.7519   13.8954   23.8942 H   0  0  0  0  0  0  0  0  0  0  0  0
   13.0480   15.5610   21.8260 H   0  0  0  0  0  0  0  0  0  0  0  0
   14.3473   16.4322   17.3506 H   0  0  0  0  0  0  0  0  0  0  0  0
   16.2960   17.2590   15.3990 H   0  0  0  0  0  0  0  0  0  0  0  0
  1  2  1  0
  2  3  1  0
  3  4  1  0
  4  5  1  0
  5  6  2  0
  6  7  1  0
  7  8  1  0
  8  9  2  0
  9 10  1  0
 10 11  1  0
  9 12  1  0
 12 13  1  0
 13 14  2  0
 13 15  1  0
 15 16  1  0
 16 17  2  0
 17 18  1  0
 18  3  2  0
 17  5  1  0
 15  7  2  0
  1 19  1  0
  1 20  1  0
  1 21  1  0
  2 22  1  0
  4 23  1  0
  6 24  1  0
  8 25  1  0
 10 26  1  0
 11 27  1  0
 11 28  1  0
 11 29  1  0
 12 30  1  0
 16 31  1  0
 18 32  1  0
M  CHG  2   8   1  18   1
M  END
>  <meeko>  (6) 
{"is_sidechain": [false], "free_energy": -6.666, "intermolecular_energy": -7.45, "internal_energy": -0.075}

$$$$
3rr4_ligand
     RDKit          3D

 32 34  0  0  0  0  0  0  0  0999 V2000
   13.9660   14.3750   24.7580 C   0  0  0  0  0  0  0  0  0  0  0  0
   14.3920   15.6850   24.2880 N   0  0  0  0  0  0  0  0  0  0  0  0
   14.6750   15.9270   23.0030 C   0  0  0  0  0  0  0  0  0  0  0  0
   13.8630   15.8070   21.9610 N   0  0  0  0  0  0  0  0  0  0  0  0
   14.5140   16.1460   20.7940 C   0  0  0  0  0  0  0  0  0  0  0  0
   14.0850   16.1760   19.4670 C   0  0  0  0  0  0  0  0  0  0  0  0
   15.0450   16.5820   18.5220 C   0  0  0  0  0  0  0  0  0  0  0  0
   14.6650   16.6330   17.1520 N   0  0  0  0  0  0  0  0  0  0  0  0
   15.5540   17.0190   16.1950 C   0  0  0  0  0  0  0  0  0  0  0  0
   15.2080   17.0720   14.8920 N   0  0  0  0  0  0  0  0  0  0  0  0
   13.8730   16.7810   14.3650 C   0  0  0  0  0  0  0  0  0  0  0  0
   16.7970   17.3520   16.5610 N   0  0  0  0  0  0  0  0  0  0  0  0
   17.2890   17.3420   17.8740 C   0  0  0  0  0  0  0  0  0  0  0  0
   18.4370   17.6620   18.1080 O   0  0  0  0  0  0  0  0  0  0  0  0
   16.3520   16.9300   18.9230 C   0  0  0  0  0  0  0  0  0  0  0  0
   16.7770   16.8970   20.2680 C   0  0  0  0  0  0  0  0  0  0  0  0
   15.8110   16.4920   21.1780 C   0  0  0  0  0  0  0  0  0  0  0  0
   15.8490   16.3390   22.5460 N   0  0  0  0  0  0  0  0  0  0  0  0
   13.9622   14.3635   25.8579 H   0  0  0  0  0  0  0  0  0  0  0  0
   12.9528   14.1635   24.3856 H   0  0  0  0  0  0  0  0  0  0  0  0
   14.6610   13.6080   24.3856 H   0  0  0  0  0  0  0  0  0  0  0  0
   14.4800   16.4490   24.9490 H   0  0  0  0  0  0  0  0  0  0  0  0
   12.8990   15.5050   22.0370 H   0  0  0  0  0  0  0  0  0  0  0  0
   13.0604   15.8996   19.1776 H   0  0  0  0  0  0  0  0  0  0  0  0
   13.7250   16.3830   16.8620 H   0  0  0  0  0  0  0  0  0  0  0  0
   15.9210   17.3330   14.2190 H   0  0  0  0  0  0  0  0  0  0  0  0
   13.1741   16.6287   15.2007 H   0  0  0  0  0  0  0  0  0  0  0  0
   13.5298   17.6254   13.7492 H   0  0  0  0  0  0  0  0  0  0  0  0
   13.9124   15.8703   13.7492 H   0  0  0  0  0  0  0  0  0  0  0  0
   17.4710   17.6410   15.8640 H   0  0  0  0  0  0  0  0  0  0  0  0
   17.7977   17.1718   20.5724 H   0  0  0  0  0  0  0  0  0  0  0  0
   16.6580   16.5130   23.1310 H   0  0  0  0  0  0  0  0  0  0  0  0
  1  2  1  0
  2  3  1  0
  3  4  1  0
  4  5  1  0
  5  6  2  0
  6  7  1  0
  7  8  1  0
  8  9  2  0
  9 10  1  0
 10 11  1  0
  9 12  1  0
 12 13  1  0
 13 14  2  0
 13 15  1  0
 15 16  1  0
 16 17  2  0
 17 18  1  0
 18  3  2  0
 17  5  1  0
 15  7  2  0
  1 19  1  0
  1 20  1  0
  1 21  1  0
  2 22  1  0
  4 23  1  0
  6 24  1  0
  8 25  1  0
 10 26  1  0
 11 27  1  0
 11 28  1  0
 11 29  1  0
 12 30  1  0
 16 31  1  0
 18 32  1  0
M  CHG  2   8   1  18   1
M  END
>  <meeko>  (7) 
{"is_sidechain": [false], "free_energy": -6.376, "intermolecular_energy": -7.119, "internal_energy": -0.082}

$$$$
3rr4_ligand
     RDKit          3D

 32 34  0  0  0  0  0  0  0  0999 V2000
   18.4880   17.2490   23.4840 C   0  0  0  0  0  0  0  0  0  0  0  0
   17.1270   16.7540   23.3300 N   0  0  0  0  0  0  0  0  0  0  0  0
   16.5070   16.7250   22.1440 C   0  0  0  0  0  0  0  0  0  0  0  0
   15.2280   16.4660   21.9090 N   0  0  0  0  0  0  0  0  0  0  0  0
   14.9580   16.5280   20.5590 C   0  0  0  0  0  0  0  0  0  0  0  0
   13.7810   16.3340   19.8370 C   0  0  0  0  0  0  0  0  0  0  0  0
   13.8850   16.4830   18.4420 C   0  0  0  0  0  0  0  0  0  0  0  0
   12.7150   16.2970   17.6540 N   0  0  0  0  0  0  0  0  0  0  0  0
   12.7590   16.4280   16.2990 C   0  0  0  0  0  0  0  0  0  0  0  0
   11.6580   16.2550   15.5380 N   0  0  0  0  0  0  0  0  0  0  0  0
   11.4250   15.1170   14.6450 C   0  0  0  0  0  0  0  0  0  0  0  0
   13.9220   16.7370   15.7140 N   0  0  0  0  0  0  0  0  0  0  0  0
   15.1390   16.9440   16.3810 C   0  0  0  0  0  0  0  0  0  0  0  0
   16.1460   17.2190   15.7610 O   0  0  0  0  0  0  0  0  0  0  0  0
   15.1190   16.8070   17.8400 C   0  0  0  0  0  0  0  0  0  0  0  0
   16.3050   17.0020   18.5770 C   0  0  0  0  0  0  0  0  0  0  0  0
   16.1740   16.8490   19.9510 C   0  0  0  0  0  0  0  0  0  0  0  0
   17.0870   16.9570   20.9750 N   0  0  0  0  0  0  0  0  0  0  0  0
   18.7276   17.3361   24.5540 H   0  0  0  0  0  0  0  0  0  0  0  0
   19.1892   16.5483   23.0071 H   0  0  0  0  0  0  0  0  0  0  0  0
   18.5752   18.2364   23.0071 H   0  0  0  0  0  0  0  0  0  0  0  0
   16.6230   16.4170   24.1420 H   0  0  0  0  0  0  0  0  0  0  0  0
   14.5590   16.2530   22.6390 H   0  0  0  0  0  0  0  0  0  0  0  0
   12.8299   16.0801   20.3279 H   0  0  0  0  0  0  0  0  0  0  0  0
   11.8260   16.0640   18.0850 H   0  0  0  0  0  0  0  0  0  0  0  0
   10.9310   16.9620   15.5810 H   0  0  0  0  0  0  0  0  0  0  0  0
   11.2399   14.2130   15.2437 H   0  0  0  0  0  0  0  0  0  0  0  0
   10.5502   15.3220   14.0104 H   0  0  0  0  0  0  0  0  0  0  0  0
   12.3100   14.9617   14.0104 H   0  0  0  0  0  0  0  0  0  0  0  0
   13.9740   16.8390   14.7090 H   0  0  0  0  0  0  0  0  0  0  0  0
   17.2626   17.2564   18.0993 H   0  0  0  0  0  0  0  0  0  0  0  0
   18.0690   17.1830   20.8610 H   0  0  0  0  0  0  0  0  0  0  0  0
  1  2  1  0
  2  3  1  0
  3  4  1  0
  4  5  1  0
  5  6  2  0
  6  7  1  0
  7  8  1  0
  8  9  2  0
  9 10  1  0
 10 11  1  0
  9 12  1  0
 12 13  1  0
 13 14  2  0
 13 15  1  0
 15 16  1  0
 16 17  2  0
 17 18  1  0
 18  3  2  0
 17  5  1  0
 15  7  2  0
  1 19  1  0
  1 20  1  0
  1 21  1  0
  2 22  1  0
  4 23  1  0
  6 24  1  0
  8 25  1  0
 10 26  1  0
 11 27  1  0
 11 28  1  0
 11 29  1  0
 12 30  1  0
 16 31  1  0
 18 32  1  0
M  CHG  2   8   1  18   1
M  END
>  <meeko>  (8) 
{"is_sidechain": [false], "free_energy": -6.269, "intermolecular_energy": -7.004, "internal_energy": -0.077}

$$$$
3rr4_ligand
     RDKit          3D

 32 34  0  0  0  0  0  0  0  0999 V2000
   11.3600   16.6020   14.3670 C   0  0  0  0  0  0  0  0  0  0  0  0
   11.9930   15.4190   14.9320 N   0  0  0  0  0  0  0  0  0  0  0  0
   12.5020   15.4020   16.1690 C   0  0  0  0  0  0  0  0  0  0  0  0
   13.0350   16.4160   16.8370 N   0  0  0  0  0  0  0  0  0  0  0  0
   13.4520   16.0130   18.0870 C   0  0  0  0  0  0  0  0  0  0  0  0
   14.0610   16.7070   19.1320 C   0  0  0  0  0  0  0  0  0  0  0  0
   14.3480   15.9520   20.2850 C   0  0  0  0  0  0  0  0  0  0  0  0
   14.9690   16.6080   21.3840 N   0  0  0  0  0  0  0  0  0  0  0  0
   15.2700   15.9260   22.5230 C   0  0  0  0  0  0  0  0  0  0  0  0
   15.8590   16.5330   23.5740 N   0  0  0  0  0  0  0  0  0  0  0  0
   16.6280   17.7780   23.5010 C   0  0  0  0  0  0  0  0  0  0  0  0
   14.9720   14.6240   22.5980 N   0  0  0  0  0  0  0  0  0  0  0  0
   14.3610   13.8690   21.5850 C   0  0  0  0  0  0  0  0  0  0  0  0
   14.1310   12.6870   21.7470 O   0  0  0  0  0  0  0  0  0  0  0  0
   14.0280   14.5800   20.3470 C   0  0  0  0  0  0  0  0  0  0  0  0
   13.4120   13.8850   19.2860 C   0  0  0  0  0  0  0  0  0  0  0  0
   13.1400   14.6530   18.1620 C   0  0  0  0  0  0  0  0  0  0  0  0
   12.5590   14.3360   16.9550 N   0  0  0  0  0  0  0  0  0  0  0  0
   11.0107   17.2548   15.1805 H   0  0  0  0  0  0  0  0  0  0  0  0
   12.0874   17.1462   13.7468 H   0  0  0  0  0  0  0  0  0  0  0  0
   10.5036   16.2988   13.7468 H   0  0  0  0  0  0  0  0  0  0  0  0
   12.0560   14.5720   14.3770 H   0  0  0  0  0  0  0  0  0  0  0  0
   13.1140   17.3530   16.4580 H   0  0  0  0  0  0  0  0  0  0  0  0
   14.3021   17.7778   19.0599 H   0  0  0  0  0  0  0  0  0  0  0  0
   15.1990   17.5960   21.3400 H   0  0  0  0  0  0  0  0  0  0  0  0
   15.7660   16.1040   24.4890 H   0  0  0  0  0  0  0  0  0  0  0  0
   16.8476   18.1335   24.5185 H   0  0  0  0  0  0  0  0  0  0  0  0
   17.5710   17.5956   22.9648 H   0  0  0  0  0  0  0  0  0  0  0  0
   16.0427   18.5396   22.9648 H   0  0  0  0  0  0  0  0  0  0  0  0
   15.1870   14.1000   23.4370 H   0  0  0  0  0  0  0  0  0  0  0  0
   13.1655   12.8146   19.3445 H   0  0  0  0  0  0  0  0  0  0  0  0
   12.2190   13.4170   16.6940 H   0  0  0  0  0  0  0  0  0  0  0  0
  1  2  1  0
  2  3  1  0
  3  4  1  0
  4  5  1  0
  5  6  2  0
  6  7  1  0
  7  8  1  0
  8  9  2  0
  9 10  1  0
 10 11  1  0
  9 12  1  0
 12 13  1  0
 13 14  2  0
 13 15  1  0
 15 16  1  0
 16 17  2  0
 17 18  1  0
 18  3  2  0
 17  5  1  0
 15  7  2  0
  1 19  1  0
  1 20  1  0
  1 21  1  0
  2 22  1  0
  4 23  1  0
  6 24  1  0
  8 25  1  0
 10 26  1  0
 11 27  1  0
 11 28  1  0
 11 29  1  0
 12 30  1  0
 16 31  1  0
 18 32  1  0
M  CHG  2   8   1  18   1
M  END
>  <meeko>  (9) 
{"is_sidechain": [false], "free_energy": -6.038, "intermolecular_energy": -6.741, "internal_energy": -0.083}

$$$$
