3f3a_ligand
     RDKit          3D

 27 28  0  0  0  0  0  0  0  0999 V2000
  -25.2830   -3.6170  -19.2640 N   0  0  0  0  0  0  0  0  0  0  0  0
  -26.4190   -4.5580  -19.6570 C   0  0  1  0  0  0  0  0  0  0  0  0
  -26.2620   -5.0330  -21.0970 C   0  0  0  0  0  0  0  0  0  0  0  0
  -27.5110   -4.8340  -21.9060 C   0  0  0  0  0  0  0  0  0  0  0  0
  -28.1050   -5.7660  -22.7330 C   0  0  0  0  0  0  0  0  0  0  0  0
  -29.2340   -5.2090  -23.2710 N   0  0  0  0  0  0  0  0  0  0  0  0
  -29.4040   -3.9300  -22.7930 C   0  0  0  0  0  0  0  0  0  0  0  0
  -30.4190   -3.0000  -23.0520 C   0  0  0  0  0  0  0  0  0  0  0  0
  -30.3210   -1.7480  -22.4390 C   0  0  0  0  0  0  0  0  0  0  0  0
  -29.2490   -1.4380  -21.6080 C   0  0  0  0  0  0  0  0  0  0  0  0
  -28.2430   -2.3790  -21.3600 C   0  0  0  0  0  0  0  0  0  0  0  0
  -28.3230   -3.6540  -21.9570 C   0  0  0  0  0  0  0  0  0  0  0  0
  -26.4350   -5.7540  -18.6700 C   0  0  0  0  0  0  0  0  0  0  0  0
  -27.4330   -6.5020  -18.6710 O   0  0  0  0  0  0  0  0  0  0  0  0
  -25.3440   -5.7680  -18.0060 O   0  0  0  0  0  0  0  0  0  0  0  0
  -25.8150   -2.7350  -19.0630 H   0  0  0  0  0  0  0  0  0  0  0  0
  -24.5980   -3.4710  -20.0020 H   0  0  0  0  0  0  0  0  0  0  0  0
  -24.8500   -3.8880  -18.3790 H   0  0  0  0  0  0  0  0  0  0  0  0
  -27.3785   -4.0232  -19.5989 H   0  0  0  0  0  0  0  0  0  0  0  0
  -25.4431   -4.4691  -21.5675 H   0  0  0  0  0  0  0  0  0  0  0  0
  -26.0473   -6.1116  -21.0723 H   0  0  0  0  0  0  0  0  0  0  0  0
  -27.7342   -6.7833  -22.9268 H   0  0  0  0  0  0  0  0  0  0  0  0
  -29.8540   -5.6610  -23.9300 H   0  0  0  0  0  0  0  0  0  0  0  0
  -31.2625   -3.2462  -23.7138 H   0  0  0  0  0  0  0  0  0  0  0  0
  -31.1037   -0.9957  -22.6163 H   0  0  0  0  0  0  0  0  0  0  0  0
  -29.1915   -0.4436  -21.1413 H   0  0  0  0  0  0  0  0  0  0  0  0
  -27.3966   -2.1259  -20.7045 H   0  0  0  0  0  0  0  0  0  0  0  0
  1  2  1  0
  2  3  1  0
  3  4  1  0
  4  5  2  0
  5  6  1  0
  6  7  1  0
  7  8  2  0
  8  9  1  0
  9 10  2  0
 10 11  1  0
 11 12  2  0
  2 13  1  0
 13 14  2  0
 13 15  1  0
 12  4  1  0
 12  7  1  0
  1 16  1  0
  1 17  1  0
  1 18  1  0
  2 19  1  6
  3 20  1  0
  3 21  1  0
  5 22  1  0
  6 23  1  0
  8 24  1  0
  9 25  1  0
 10 26  1  0
 11 27  1  0
M  CHG  2   1   1  15  -1
M  END
>  <meeko>  (1) 
{"is_sidechain": [false], "free_energy": -7.909, "intermolecular_energy": -9.528, "internal_energy": -0.077}

$$$$
3f3a_ligand
     RDKit          3D

 27 28  0  0  0  0  0  0  0  0999 V2000
  -27.2280   -3.4750  -18.7950 N   0  0  0  0  0  0  0  0  0  0  0  0
  -27.1560   -4.9990  -18.7950 C   0  0  1  0  0  0  0  0  0  0  0  0
  -27.4060   -5.5590  -20.1920 C   0  0  0  0  0  0  0  0  0  0  0  0
  -27.2450   -4.5200  -21.2630 C   0  0  0  0  0  0  0  0  0  0  0  0
  -26.0880   -4.2430  -21.9650 C   0  0  0  0  0  0  0  0  0  0  0  0
  -26.3580   -3.2480  -22.8660 N   0  0  0  0  0  0  0  0  0  0  0  0
  -27.6810   -2.8820  -22.7850 C   0  0  0  0  0  0  0  0  0  0  0  0
  -28.3970   -1.9290  -23.5200 C   0  0  0  0  0  0  0  0  0  0  0  0
  -29.7460   -1.7460  -23.2010 C   0  0  0  0  0  0  0  0  0  0  0  0
  -30.3480   -2.4790  -22.1840 C   0  0  0  0  0  0  0  0  0  0  0  0
  -29.6170   -3.4270  -21.4580 C   0  0  0  0  0  0  0  0  0  0  0  0
  -28.2580   -3.6410  -21.7670 C   0  0  0  0  0  0  0  0  0  0  0  0
  -25.7660   -5.4290  -18.2600 C   0  0  0  0  0  0  0  0  0  0  0  0
  -25.7270   -6.2170  -17.2930 O   0  0  0  0  0  0  0  0  0  0  0  0
  -24.8530   -4.8780  -18.9630 O   0  0  0  0  0  0  0  0  0  0  0  0
  -26.6780   -3.2490  -17.9300 H   0  0  0  0  0  0  0  0  0  0  0  0
  -28.1750   -3.1090  -18.7340 H   0  0  0  0  0  0  0  0  0  0  0  0
  -26.7030   -3.0660  -19.5720 H   0  0  0  0  0  0  0  0  0  0  0  0
  -27.9417   -5.4052  -18.1411 H   0  0  0  0  0  0  0  0  0  0  0  0
  -26.6904   -6.3731  -20.3794 H   0  0  0  0  0  0  0  0  0  0  0  0
  -28.4449   -5.9188  -20.2277 H   0  0  0  0  0  0  0  0  0  0  0  0
  -25.1156   -4.7375  -21.8242 H   0  0  0  0  0  0  0  0  0  0  0  0
  -25.6860   -2.8330  -23.4990 H   0  0  0  0  0  0  0  0  0  0  0  0
  -27.9158   -1.3458  -24.3190 H   0  0  0  0  0  0  0  0  0  0  0  0
  -30.3404   -1.0108  -23.7633 H   0  0  0  0  0  0  0  0  0  0  0  0
  -31.4093   -2.3123  -21.9476 H   0  0  0  0  0  0  0  0  0  0  0  0
  -30.0992   -4.0005  -20.6527 H   0  0  0  0  0  0  0  0  0  0  0  0
  1  2  1  0
  2  3  1  0
  3  4  1  0
  4  5  2  0
  5  6  1  0
  6  7  1  0
  7  8  2  0
  8  9  1  0
  9 10  2  0
 10 11  1  0
 11 12  2  0
  2 13  1  0
 13 14  2  0
 13 15  1  0
 12  4  1  0
 12  7  1  0
  1 16  1  0
  1 17  1  0
  1 18  1  0
  2 19  1  1
  3 20  1  0
  3 21  1  0
  5 22  1  0
  6 23  1  0
  8 24  1  0
  9 25  1  0
 10 26  1  0
 11 27  1  0
M  CHG  2   1   1  15  -1
M  END
>  <meeko>  (2) 
{"is_sidechain": [false], "free_energy": -7.714, "intermolecular_energy": -9.476, "internal_energy": 0.106}

$$$$
3f3a_ligand
     RDKit          3D

 27 28  0  0  0  0  0  0  0  0999 V2000
  -29.2250   -6.3260  -25.1530 N   0  0  0  0  0  0  0  0  0  0  0  0
  -28.4280   -7.0610  -24.0790 C   0  0  1  0  0  0  0  0  0  0  0  0
  -28.5460   -6.3560  -22.7320 C   0  0  0  0  0  0  0  0  0  0  0  0
  -27.9500   -4.9780  -22.7520 C   0  0  0  0  0  0  0  0  0  0  0  0
  -26.6100   -4.6700  -22.8800 C   0  0  0  0  0  0  0  0  0  0  0  0
  -26.4780   -3.3070  -22.8760 N   0  0  0  0  0  0  0  0  0  0  0  0
  -27.7150   -2.7130  -22.7710 C   0  0  0  0  0  0  0  0  0  0  0  0
  -28.0610   -1.3560  -22.7470 C   0  0  0  0  0  0  0  0  0  0  0  0
  -29.4140   -1.0370  -22.6030 C   0  0  0  0  0  0  0  0  0  0  0  0
  -30.3770   -2.0330  -22.4800 C   0  0  0  0  0  0  0  0  0  0  0  0
  -30.0140   -3.3840  -22.5050 C   0  0  0  0  0  0  0  0  0  0  0  0
  -28.6560   -3.7350  -22.6610 C   0  0  0  0  0  0  0  0  0  0  0  0
  -28.9400   -8.5220  -23.9950 C   0  0  0  0  0  0  0  0  0  0  0  0
  -28.1160   -9.4440  -24.1600 O   0  0  0  0  0  0  0  0  0  0  0  0
  -30.1910   -8.5160  -23.7360 O   0  0  0  0  0  0  0  0  0  0  0  0
  -29.9610   -7.0390  -25.3790 H   0  0  0  0  0  0  0  0  0  0  0  0
  -28.6790   -6.0900  -25.9790 H   0  0  0  0  0  0  0  0  0  0  0  0
  -29.7260   -5.5200  -24.7750 H   0  0  0  0  0  0  0  0  0  0  0  0
  -27.3612   -7.0628  -24.3472 H   0  0  0  0  0  0  0  0  0  0  0  0
  -29.6107   -6.2764  -22.4672 H   0  0  0  0  0  0  0  0  0  0  0  0
  -27.9897   -6.9509  -21.9927 H   0  0  0  0  0  0  0  0  0  0  0  0
  -25.7885   -5.3959  -22.9699 H   0  0  0  0  0  0  0  0  0  0  0  0
  -25.6030   -2.8030  -22.9350 H   0  0  0  0  0  0  0  0  0  0  0  0
  -27.2963   -0.5706  -22.8381 H   0  0  0  0  0  0  0  0  0  0  0  0
  -29.7223    0.0188  -22.5867 H   0  0  0  0  0  0  0  0  0  0  0  0
  -31.4349   -1.7557  -22.3618 H   0  0  0  0  0  0  0  0  0  0  0  0
  -30.7808   -4.1662  -22.4039 H   0  0  0  0  0  0  0  0  0  0  0  0
  1  2  1  0
  2  3  1  0
  3  4  1  0
  4  5  2  0
  5  6  1  0
  6  7  1  0
  7  8  2  0
  8  9  1  0
  9 10  2  0
 10 11  1  0
 11 12  2  0
  2 13  1  0
 13 14  2  0
 13 15  1  0
 12  4  1  0
 12  7  1  0
  1 16  1  0
  1 17  1  0
  1 18  1  0
  2 19  1  6
  3 20  1  0
  3 21  1  0
  5 22  1  0
  6 23  1  0
  8 24  1  0
  9 25  1  0
 10 26  1  0
 11 27  1  0
M  CHG  2   1   1  15  -1
M  END
>  <meeko>  (3) 
{"is_sidechain": [false], "free_energy": -7.307, "intermolecular_energy": -8.635, "internal_energy": -0.244}

$$$$
3f3a_ligand
     RDKit          3D

 27 28  0  0  0  0  0  0  0  0999 V2000
  -28.4650   -6.8730  -25.6420 N   0  0  0  0  0  0  0  0  0  0  0  0
  -28.3400   -6.8780  -24.1210 C   0  0  1  0  0  0  0  0  0  0  0  0
  -28.6570   -5.5040  -23.5420 C   0  0  0  0  0  0  0  0  0  0  0  0
  -27.5890   -5.0150  -22.6080 C   0  0  0  0  0  0  0  0  0  0  0  0
  -26.5760   -4.1280  -22.9180 C   0  0  0  0  0  0  0  0  0  0  0  0
  -25.8260   -3.9190  -21.7920 N   0  0  0  0  0  0  0  0  0  0  0  0
  -26.3420   -4.6370  -20.7390 C   0  0  0  0  0  0  0  0  0  0  0  0
  -25.9160   -4.7130  -19.4070 C   0  0  0  0  0  0  0  0  0  0  0  0
  -26.6260   -5.5570  -18.5480 C   0  0  0  0  0  0  0  0  0  0  0  0
  -27.7100   -6.2990  -19.0050 C   0  0  0  0  0  0  0  0  0  0  0  0
  -28.1230   -6.2110  -20.3400 C   0  0  0  0  0  0  0  0  0  0  0  0
  -27.4320   -5.3590  -21.2260 C   0  0  0  0  0  0  0  0  0  0  0  0
  -29.2900   -7.9610  -23.5490 C   0  0  0  0  0  0  0  0  0  0  0  0
  -28.9710   -8.5170  -22.4790 O   0  0  0  0  0  0  0  0  0  0  0  0
  -30.3020   -8.0840  -24.3190 O   0  0  0  0  0  0  0  0  0  0  0  0
  -28.4380   -5.8430  -25.8410 H   0  0  0  0  0  0  0  0  0  0  0  0
  -29.3290   -7.2900  -25.9840 H   0  0  0  0  0  0  0  0  0  0  0  0
  -27.6380   -7.2660  -26.0960 H   0  0  0  0  0  0  0  0  0  0  0  0
  -27.3040   -7.1143  -23.8367 H   0  0  0  0  0  0  0  0  0  0  0  0
  -28.7574   -4.7867  -24.3699 H   0  0  0  0  0  0  0  0  0  0  0  0
  -29.5908   -5.5903  -22.9670 H   0  0  0  0  0  0  0  0  0  0  0  0
  -26.4018   -3.6681  -23.9020 H   0  0  0  0  0  0  0  0  0  0  0  0
  -25.0060   -3.3290  -21.7360 H   0  0  0  0  0  0  0  0  0  0  0  0
  -25.0543   -4.1300  -19.0498 H   0  0  0  0  0  0  0  0  0  0  0  0
  -26.3224   -5.6355  -17.4936 H   0  0  0  0  0  0  0  0  0  0  0  0
  -28.2481   -6.9614  -18.3109 H   0  0  0  0  0  0  0  0  0  0  0  0
  -28.9801   -6.8021  -20.6950 H   0  0  0  0  0  0  0  0  0  0  0  0
  1  2  1  0
  2  3  1  0
  3  4  1  0
  4  5  2  0
  5  6  1  0
  6  7  1  0
  7  8  2  0
  8  9  1  0
  9 10  2  0
 10 11  1  0
 11 12  2  0
  2 13  1  0
 13 14  2  0
 13 15  1  0
 12  4  1  0
 12  7  1  0
  1 16  1  0
  1 17  1  0
  1 18  1  0
  2 19  1  6
  3 20  1  0
  3 21  1  0
  5 22  1  0
  6 23  1  0
  8 24  1  0
  9 25  1  0
 10 26  1  0
 11 27  1  0
M  CHG  2   1   1  15  -1
M  END
>  <meeko>  (4) 
{"is_sidechain": [false], "free_energy": -7.046, "intermolecular_energy": -8.329, "internal_energy": -0.236}

$$$$
3f3a_ligand
     RDKit          3D

 27 28  0  0  0  0  0  0  0  0999 V2000
  -25.8830   -3.9890  -20.0650 N   0  0  0  0  0  0  0  0  0  0  0  0
  -26.7880   -4.3560  -18.8920 C   0  0  1  0  0  0  0  0  0  0  0  0
  -28.2580   -4.2470  -19.2810 C   0  0  0  0  0  0  0  0  0  0  0  0
  -28.4440   -3.8930  -20.7280 C   0  0  0  0  0  0  0  0  0  0  0  0
  -28.5360   -2.6180  -21.2510 C   0  0  0  0  0  0  0  0  0  0  0  0
  -28.6770   -2.7180  -22.6090 N   0  0  0  0  0  0  0  0  0  0  0  0
  -28.6560   -4.0390  -22.9910 C   0  0  0  0  0  0  0  0  0  0  0  0
  -28.7480   -4.6080  -24.2670 C   0  0  0  0  0  0  0  0  0  0  0  0
  -28.7250   -6.0030  -24.3570 C   0  0  0  0  0  0  0  0  0  0  0  0
  -28.6230   -6.7930  -23.2170 C   0  0  0  0  0  0  0  0  0  0  0  0
  -28.5320   -6.2080  -21.9480 C   0  0  0  0  0  0  0  0  0  0  0  0
  -28.5410   -4.8030  -21.8300 C   0  0  0  0  0  0  0  0  0  0  0  0
  -26.4360   -5.7920  -18.4250 C   0  0  0  0  0  0  0  0  0  0  0  0
  -25.3090   -5.9880  -17.9270 O   0  0  0  0  0  0  0  0  0  0  0  0
  -27.4350   -6.5600  -18.6320 O   0  0  0  0  0  0  0  0  0  0  0  0
  -26.0450   -4.8040  -20.7050 H   0  0  0  0  0  0  0  0  0  0  0  0
  -24.8990   -3.9100  -19.8150 H   0  0  0  0  0  0  0  0  0  0  0  0
  -26.2230   -3.1680  -20.5690 H   0  0  0  0  0  0  0  0  0  0  0  0
  -26.6225   -3.6516  -18.0635 H   0  0  0  0  0  0  0  0  0  0  0  0
  -28.7467   -5.2135  -19.0885 H   0  0  0  0  0  0  0  0  0  0  0  0
  -28.7046   -3.4417  -18.6793 H   0  0  0  0  0  0  0  0  0  0  0  0
  -28.5018   -1.6818  -20.6746 H   0  0  0  0  0  0  0  0  0  0  0  0
  -28.7880   -1.9390  -23.2450 H   0  0  0  0  0  0  0  0  0  0  0  0
  -28.8352   -3.9802  -25.1661 H   0  0  0  0  0  0  0  0  0  0  0  0
  -28.7886   -6.4831  -25.3447 H   0  0  0  0  0  0  0  0  0  0  0  0
  -28.6137   -7.8888  -23.3132 H   0  0  0  0  0  0  0  0  0  0  0  0
  -28.4541   -6.8394  -21.0506 H   0  0  0  0  0  0  0  0  0  0  0  0
  1  2  1  0
  2  3  1  0
  3  4  1  0
  4  5  2  0
  5  6  1  0
  6  7  1  0
  7  8  2  0
  8  9  1  0
  9 10  2  0
 10 11  1  0
 11 12  2  0
  2 13  1  0
 13 14  2  0
 13 15  1  0
 12  4  1  0
 12  7  1  0
  1 16  1  0
  1 17  1  0
  1 18  1  0
  2 19  1  1
  3 20  1  0
  3 21  1  0
  5 22  1  0
  6 23  1  0
  8 24  1  0
  9 25  1  0
 10 26  1  0
 11 27  1  0
M  CHG  2   1   1  15  -1
M  END
>  <meeko>  (5) 
{"is_sidechain": [false], "free_energy": -7.031, "intermolecular_energy": -8.493, "internal_energy": -0.054}

$$$$
3f3a_ligand
     RDKit          3D

 27 28  0  0  0  0  0  0  0  0999 V2000
  -25.8920   -3.8450  -22.3080 N   0  0  0  0  0  0  0  0  0  0  0  0
  -27.2830   -4.0010  -22.9180 C   0  0  1  0  0  0  0  0  0  0  0  0
  -28.0450   -5.1440  -22.2570 C   0  0  0  0  0  0  0  0  0  0  0  0
  -28.4800   -6.1890  -23.2430 C   0  0  0  0  0  0  0  0  0  0  0  0
  -28.5210   -6.0490  -24.6170 C   0  0  0  0  0  0  0  0  0  0  0  0
  -28.9500   -7.2310  -25.1580 N   0  0  0  0  0  0  0  0  0  0  0  0
  -29.1710   -8.1550  -24.1630 C   0  0  0  0  0  0  0  0  0  0  0  0
  -29.5940   -9.4870  -24.2500 C   0  0  0  0  0  0  0  0  0  0  0  0
  -29.7610  -10.1920  -23.0550 C   0  0  0  0  0  0  0  0  0  0  0  0
  -29.5240   -9.5870  -21.8250 C   0  0  0  0  0  0  0  0  0  0  0  0
  -29.1020   -8.2530  -21.7560 C   0  0  0  0  0  0  0  0  0  0  0  0
  -28.9140   -7.5220  -22.9470 C   0  0  0  0  0  0  0  0  0  0  0  0
  -28.0430   -2.6580  -22.7670 C   0  0  0  0  0  0  0  0  0  0  0  0
  -28.6810   -2.2310  -23.7510 O   0  0  0  0  0  0  0  0  0  0  0  0
  -27.8840   -2.2140  -21.5810 O   0  0  0  0  0  0  0  0  0  0  0  0
  -25.8900   -2.8210  -22.0750 H   0  0  0  0  0  0  0  0  0  0  0  0
  -25.1360   -4.0770  -22.9470 H   0  0  0  0  0  0  0  0  0  0  0  0
  -25.8100   -4.3330  -21.4140 H   0  0  0  0  0  0  0  0  0  0  0  0
  -27.1924   -4.2517  -23.9852 H   0  0  0  0  0  0  0  0  0  0  0  0
  -27.3931   -5.6158  -21.5071 H   0  0  0  0  0  0  0  0  0  0  0  0
  -28.9499   -4.7210  -21.7963 H   0  0  0  0  0  0  0  0  0  0  0  0
  -28.2544   -5.1424  -25.1800 H   0  0  0  0  0  0  0  0  0  0  0  0
  -29.0930   -7.4060  -26.1440 H   0  0  0  0  0  0  0  0  0  0  0  0
  -29.7878   -9.9612  -25.2235 H   0  0  0  0  0  0  0  0  0  0  0  0
  -30.0852  -11.2426  -23.0875 H   0  0  0  0  0  0  0  0  0  0  0  0
  -29.6693  -10.1613  -20.8981 H   0  0  0  0  0  0  0  0  0  0  0  0
  -28.9187   -7.7794  -20.7802 H   0  0  0  0  0  0  0  0  0  0  0  0
  1  2  1  0
  2  3  1  0
  3  4  1  0
  4  5  2  0
  5  6  1  0
  6  7  1  0
  7  8  2  0
  8  9  1  0
  9 10  2  0
 10 11  1  0
 11 12  2  0
  2 13  1  0
 13 14  2  0
 13 15  1  0
 12  4  1  0
 12  7  1  0
  1 16  1  0
  1 17  1  0
  1 18  1  0
  2 19  1  6
  3 20  1  0
  3 21  1  0
  5 22  1  0
  6 23  1  0
  8 24  1  0
  9 25  1  0
 10 26  1  0
 11 27  1  0
M  CHG  2   1   1  15  -1
M  END
>  <meeko>  (6) 
{"is_sidechain": [false], "free_energy": -6.897, "intermolecular_energy": -8.142, "internal_energy": -0.243}

$$$$
3f3a_ligand
     RDKit          3D

 27 28  0  0  0  0  0  0  0  0999 V2000
  -31.1890   -2.5260  -23.1550 N   0  0  0  0  0  0  0  0  0  0  0  0
  -29.9290   -2.8210  -22.3460 C   0  0  1  0  0  0  0  0  0  0  0  0
  -29.0770   -3.8850  -23.0300 C   0  0  0  0  0  0  0  0  0  0  0  0
  -27.7570   -4.0910  -22.3460 C   0  0  0  0  0  0  0  0  0  0  0  0
  -26.5250   -3.6660  -22.8040 C   0  0  0  0  0  0  0  0  0  0  0  0
  -25.5760   -4.0270  -21.8850 N   0  0  0  0  0  0  0  0  0  0  0  0
  -26.1670   -4.6620  -20.8180 C   0  0  0  0  0  0  0  0  0  0  0  0
  -25.5940   -5.1800  -19.6500 C   0  0  0  0  0  0  0  0  0  0  0  0
  -26.4460   -5.8050  -18.7340 C   0  0  0  0  0  0  0  0  0  0  0  0
  -27.8100   -5.9140  -18.9820 C   0  0  0  0  0  0  0  0  0  0  0  0
  -28.3670   -5.3910  -20.1550 C   0  0  0  0  0  0  0  0  0  0  0  0
  -27.5320   -4.7440  -21.0910 C   0  0  0  0  0  0  0  0  0  0  0  0
  -29.1370   -1.5010  -22.1630 C   0  0  0  0  0  0  0  0  0  0  0  0
  -28.8020   -1.1730  -21.0070 O   0  0  0  0  0  0  0  0  0  0  0  0
  -28.9430   -0.9640  -23.3050 O   0  0  0  0  0  0  0  0  0  0  0  0
  -31.9270   -2.6090  -22.4130 H   0  0  0  0  0  0  0  0  0  0  0  0
  -31.3550   -3.1850  -23.9120 H   0  0  0  0  0  0  0  0  0  0  0  0
  -31.2220   -1.5550  -23.4710 H   0  0  0  0  0  0  0  0  0  0  0  0
  -30.2087   -3.2190  -21.3594 H   0  0  0  0  0  0  0  0  0  0  0  0
  -29.6293   -4.8363  -23.0249 H   0  0  0  0  0  0  0  0  0  0  0  0
  -28.8726   -3.5418  -24.0549 H   0  0  0  0  0  0  0  0  0  0  0  0
  -26.3382   -3.1293  -23.7459 H   0  0  0  0  0  0  0  0  0  0  0  0
  -24.5820   -3.8600  -21.9740 H   0  0  0  0  0  0  0  0  0  0  0  0
  -24.5136   -5.0983  -19.4600 H   0  0  0  0  0  0  0  0  0  0  0  0
  -26.0306   -6.2170  -17.8025 H   0  0  0  0  0  0  0  0  0  0  0  0
  -28.4580   -6.4164  -18.2488 H   0  0  0  0  0  0  0  0  0  0  0  0
  -29.4464   -5.4835  -20.3456 H   0  0  0  0  0  0  0  0  0  0  0  0
  1  2  1  0
  2  3  1  0
  3  4  1  0
  4  5  2  0
  5  6  1  0
  6  7  1  0
  7  8  2  0
  8  9  1  0
  9 10  2  0
 10 11  1  0
 11 12  2  0
  2 13  1  0
 13 14  2  0
 13 15  1  0
 12  4  1  0
 12  7  1  0
  1 16  1  0
  1 17  1  0
  1 18  1  0
  2 19  1  1
  3 20  1  0
  3 21  1  0
  5 22  1  0
  6 23  1  0
  8 24  1  0
  9 25  1  0
 10 26  1  0
 11 27  1  0
M  CHG  2   1   1  15  -1
M  END
>  <meeko>  (7) 
{"is_sidechain": [false], "free_energy": -6.886, "intermolecular_energy": -8.144, "internal_energy": -0.228}

$$$$
3f3a_ligand
     RDKit          3D

 27 28  0  0  0  0  0  0  0  0999 V2000
  -23.5020   -7.6000  -26.6440 N   0  0  0  0  0  0  0  0  0  0  0  0
  -22.6690   -8.8790  -26.6060 C   0  0  1  0  0  0  0  0  0  0  0  0
  -21.3870   -8.6730  -25.8070 C   0  0  0  0  0  0  0  0  0  0  0  0
  -20.2940   -9.6130  -26.2250 C   0  0  0  0  0  0  0  0  0  0  0  0
  -19.7660  -10.6400  -25.4680 C   0  0  0  0  0  0  0  0  0  0  0  0
  -18.8080  -11.2760  -26.2110 N   0  0  0  0  0  0  0  0  0  0  0  0
  -18.7130  -10.6970  -27.4560 C   0  0  0  0  0  0  0  0  0  0  0  0
  -17.8910  -11.0260  -28.5400 C   0  0  0  0  0  0  0  0  0  0  0  0
  -17.9890  -10.2370  -29.6900 C   0  0  0  0  0  0  0  0  0  0  0  0
  -18.8680   -9.1600  -29.7470 C   0  0  0  0  0  0  0  0  0  0  0  0
  -19.6830   -8.8440  -28.6530 C   0  0  0  0  0  0  0  0  0  0  0  0
  -19.6110   -9.6310  -27.4850 C   0  0  0  0  0  0  0  0  0  0  0  0
  -23.5330  -10.0140  -25.9980 C   0  0  0  0  0  0  0  0  0  0  0  0
  -23.2640  -10.4030  -24.8440 O   0  0  0  0  0  0  0  0  0  0  0  0
  -24.4340  -10.3540  -26.8370 O   0  0  0  0  0  0  0  0  0  0  0  0
  -23.8510   -7.5590  -25.6550 H   0  0  0  0  0  0  0  0  0  0  0  0
  -24.2750   -7.6330  -27.3040 H   0  0  0  0  0  0  0  0  0  0  0  0
  -22.9210   -6.7680  -26.7670 H   0  0  0  0  0  0  0  0  0  0  0  0
  -22.3688   -9.1550  -27.6276 H   0  0  0  0  0  0  0  0  0  0  0  0
  -21.0403   -7.6398  -25.9560 H   0  0  0  0  0  0  0  0  0  0  0  0
  -21.6153   -8.8736  -24.7498 H   0  0  0  0  0  0  0  0  0  0  0  0
  -20.0644  -10.9025  -24.4423 H   0  0  0  0  0  0  0  0  0  0  0  0
  -18.2430  -12.0540  -25.8970 H   0  0  0  0  0  0  0  0  0  0  0  0
  -17.1931  -11.8747  -28.4890 H   0  0  0  0  0  0  0  0  0  0  0  0
  -17.3618  -10.4712  -30.5628 H   0  0  0  0  0  0  0  0  0  0  0  0
  -18.9233   -8.5504  -30.6610 H   0  0  0  0  0  0  0  0  0  0  0  0
  -20.3735   -7.9892  -28.7042 H   0  0  0  0  0  0  0  0  0  0  0  0
  1  2  1  0
  2  3  1  0
  3  4  1  0
  4  5  2  0
  5  6  1  0
  6  7  1  0
  7  8  2  0
  8  9  1  0
  9 10  2  0
 10 11  1  0
 11 12  2  0
  2 13  1  0
 13 14  2  0
 13 15  1  0
 12  4  1  0
 12  7  1  0
  1 16  1  0
  1 17  1  0
  1 18  1  0
  2 19  1  6
  3 20  1  0
  3 21  1  0
  5 22  1  0
  6 23  1  0
  8 24  1  0
  9 25  1  0
 10 26  1  0
 11 27  1  0
M  CHG  2   1   1  15  -1
M  END
>  <meeko>  (8) 
{"is_sidechain": [false], "free_energy": -6.714, "intermolecular_energy": -7.941, "internal_energy": -0.225}

$$$$
3f3a_ligand
     RDKit          3D

 27 28  0  0  0  0  0  0  0  0999 V2000
  -24.1780   -8.6590  -26.8130 N   0  0  0  0  0  0  0  0  0  0  0  0
  -23.5020   -9.9250  -26.2910 C   0  0  1  0  0  0  0  0  0  0  0  0
  -22.3040   -9.5820  -25.4120 C   0  0  0  0  0  0  0  0  0  0  0  0
  -21.1510   -9.0330  -26.2010 C   0  0  0  0  0  0  0  0  0  0  0  0
  -20.7000   -7.7280  -26.1880 C   0  0  0  0  0  0  0  0  0  0  0  0
  -19.6180   -7.6360  -27.0220 N   0  0  0  0  0  0  0  0  0  0  0  0
  -19.3350   -8.8680  -27.5660 C   0  0  0  0  0  0  0  0  0  0  0  0
  -18.3160   -9.2490  -28.4480 C   0  0  0  0  0  0  0  0  0  0  0  0
  -18.2840  -10.5830  -28.8610 C   0  0  0  0  0  0  0  0  0  0  0  0
  -19.2360  -11.4950  -28.4170 C   0  0  0  0  0  0  0  0  0  0  0  0
  -20.2480  -11.0980  -27.5360 C   0  0  0  0  0  0  0  0  0  0  0  0
  -20.2970   -9.7590  -27.0930 C   0  0  0  0  0  0  0  0  0  0  0  0
  -24.5490  -10.7610  -25.5120 C   0  0  0  0  0  0  0  0  0  0  0  0
  -24.1920  -11.8610  -25.0450 O   0  0  0  0  0  0  0  0  0  0  0  0
  -25.6540  -10.1210  -25.4720 O   0  0  0  0  0  0  0  0  0  0  0  0
  -25.1900   -8.9250  -26.7280 H   0  0  0  0  0  0  0  0  0  0  0  0
  -23.9370   -8.4330  -27.7750 H   0  0  0  0  0  0  0  0  0  0  0  0
  -24.0450   -7.8670  -26.1820 H   0  0  0  0  0  0  0  0  0  0  0  0
  -23.1203  -10.5154  -27.1370 H   0  0  0  0  0  0  0  0  0  0  0  0
  -22.6139   -8.8306  -24.6708 H   0  0  0  0  0  0  0  0  0  0  0  0
  -21.9666  -10.5110  -24.9292 H   0  0  0  0  0  0  0  0  0  0  0  0
  -21.1360   -6.9024  -25.6063 H   0  0  0  0  0  0  0  0  0  0  0  0
  -19.1010   -6.7900  -27.2200 H   0  0  0  0  0  0  0  0  0  0  0  0
  -17.5683   -8.5243  -28.8025 H   0  0  0  0  0  0  0  0  0  0  0  0
  -17.4932  -10.9178  -29.5484 H   0  0  0  0  0  0  0  0  0  0  0  0
  -19.1928  -12.5386  -28.7619 H   0  0  0  0  0  0  0  0  0  0  0  0
  -20.9994  -11.8238  -27.1915 H   0  0  0  0  0  0  0  0  0  0  0  0
  1  2  1  0
  2  3  1  0
  3  4  1  0
  4  5  2  0
  5  6  1  0
  6  7  1  0
  7  8  2  0
  8  9  1  0
  9 10  2  0
 10 11  1  0
 11 12  2  0
  2 13  1  0
 13 14  2  0
 13 15  1  0
 12  4  1  0
 12  7  1  0
  1 16  1  0
  1 17  1  0
  1 18  1  0
  2 19  1  6
  3 20  1  0
  3 21  1  0
  5 22  1  0
  6 23  1  0
  8 24  1  0
  9 25  1  0
 10 26  1  0
 11 27  1  0
M  CHG  2   1   1  15  -1
M  END
>  <meeko>  (9) 
{"is_sidechain": [false], "free_energy": -6.688, "intermolecular_energy": -7.908, "internal_energy": -0.225}

$$$$
