4ty7_ligand
     RDKit          3D

 67 71  0  0  0  0  0  0  0  0999 V2000
   34.4440  -13.9860   29.3320 N   0  0  0  0  0  0  0  0  0  0  0  0
   35.6870  -14.0440   28.7550 C   0  0  0  0  0  0  0  0  0  0  0  0
   36.3660  -12.9460   28.1990 N   0  0  0  0  0  0  0  0  0  0  0  0
   37.6910  -13.4430   27.6760 N   0  0  0  0  0  0  0  0  0  0  0  0
   37.7480  -14.8190   27.9400 C   0  0  0  0  0  0  0  0  0  0  0  0
   38.7360  -15.7510   27.6620 C   0  0  0  0  0  0  0  0  0  0  0  0
   38.5120  -17.0880   28.0410 C   0  0  0  0  0  0  0  0  0  0  0  0
   39.5320  -18.0940   27.7360 C   0  0  0  0  0  0  0  0  0  0  0  0
   40.1080  -18.9110   28.6860 N   0  0  0  0  0  0  0  0  0  0  0  0
   41.0520  -19.6970   28.0710 C   0  0  0  0  0  0  0  0  0  0  0  0
   41.8990  -20.6880   28.8250 C   0  0  2  0  0  0  0  0  0  0  0  0
   43.4100  -20.4690   28.5970 C   0  0  0  0  0  0  0  0  0  0  0  0
   44.3150  -20.8480   29.7490 C   0  0  0  0  0  0  0  0  0  0  0  0
   43.8330  -21.5960   30.8320 C   0  0  0  0  0  0  0  0  0  0  0  0
   44.6740  -21.9250   31.8950 C   0  0  0  0  0  0  0  0  0  0  0  0
   46.0050  -21.5160   31.8880 C   0  0  0  0  0  0  0  0  0  0  0  0
   46.4990  -20.7760   30.8160 C   0  0  0  0  0  0  0  0  0  0  0  0
   45.6590  -20.4420   29.7530 C   0  0  0  0  0  0  0  0  0  0  0  0
   41.4710  -22.0190   28.4250 N   0  0  0  0  0  0  0  0  0  0  0  0
   40.5660  -22.7440   29.1620 C   0  0  0  0  0  0  0  0  0  0  0  0
   40.2220  -22.4350   30.2990 O   0  0  0  0  0  0  0  0  0  0  0  0
   40.0650  -24.0010   28.4460 C   0  0  2  0  0  0  0  0  0  0  0  0
   39.9000  -25.1840   29.4160 C   0  0  0  0  0  0  0  0  0  0  0  0
   41.1920  -25.9810   29.5920 C   0  0  0  0  0  0  0  0  0  0  0  0
   41.7520  -26.5340   28.2640 C   0  0  1  0  0  0  0  0  0  0  0  0
   41.5890  -28.0540   28.1300 C   0  0  0  0  0  0  0  0  0  0  0  0
   40.9690  -28.6240   29.3510 N   0  0  0  0  0  0  0  0  0  0  0  0
   41.1260  -25.8390   27.0410 C   0  0  0  0  0  0  0  0  0  0  0  0
   40.9880  -24.3370   27.2620 C   0  0  0  0  0  0  0  0  0  0  0  0
   41.0780  -19.4560   26.7750 N   0  0  0  0  0  0  0  0  0  0  0  0
   40.1480  -18.4720   26.5530 C   0  0  0  0  0  0  0  0  0  0  0  0
   39.8500  -17.8680   24.9880 Cl  0  0  0  0  0  0  0  0  0  0  0  0
   37.3170  -17.4850   28.6980 C   0  0  0  0  0  0  0  0  0  0  0  0
   36.2780  -16.5940   29.0160 C   0  0  0  0  0  0  0  0  0  0  0  0
   36.5030  -15.2590   28.6270 C   0  0  0  0  0  0  0  0  0  0  0  0
   33.5790  -14.3620   28.9490 H   0  0  0  0  0  0  0  0  0  0  0  0
   34.2760  -13.5690   30.2470 H   0  0  0  0  0  0  0  0  0  0  0  0
   36.0360  -11.9840   28.1460 H   0  0  0  0  0  0  0  0  0  0  0  0
   38.3910  -12.8620   27.2140 H   0  0  0  0  0  0  0  0  0  0  0  0
   39.6684  -15.4541   27.1596 H   0  0  0  0  0  0  0  0  0  0  0  0
   39.8940  -18.9170   29.6740 H   0  0  0  0  0  0  0  0  0  0  0  0
   41.7559  -20.5528   29.9072 H   0  0  0  0  0  0  0  0  0  0  0  0
   43.7089  -21.0666   27.7232 H   0  0  0  0  0  0  0  0  0  0  0  0
   43.5364  -19.3844   28.4641 H   0  0  0  0  0  0  0  0  0  0  0  0
   42.7837  -21.9260   30.8437 H   0  0  0  0  0  0  0  0  0  0  0  0
   44.2845  -22.5095   32.7416 H   0  0  0  0  0  0  0  0  0  0  0  0
   46.6656  -21.7769   32.7279 H   0  0  0  0  0  0  0  0  0  0  0  0
   47.5511  -20.4550   30.8075 H   0  0  0  0  0  0  0  0  0  0  0  0
   46.0535  -19.8552   28.9104 H   0  0  0  0  0  0  0  0  0  0  0  0
   41.4690  -22.1620   27.4180 H   0  0  0  0  0  0  0  0  0  0  0  0
   39.0615  -23.7976   28.0440 H   0  0  0  0  0  0  0  0  0  0  0  0
   39.5890  -24.7952   30.3969 H   0  0  0  0  0  0  0  0  0  0  0  0
   39.1445  -25.8615   28.9914 H   0  0  0  0  0  0  0  0  0  0  0  0
   41.9494  -25.3235   30.0438 H   0  0  0  0  0  0  0  0  0  0  0  0
   40.9585  -26.8442   30.2326 H   0  0  0  0  0  0  0  0  0  0  0  0
   42.8289  -26.3115   28.2903 H   0  0  0  0  0  0  0  0  0  0  0  0
   40.9481  -28.2735   27.2633 H   0  0  0  0  0  0  0  0  0  0  0  0
   42.5826  -28.5058   27.9938 H   0  0  0  0  0  0  0  0  0  0  0  0
   40.7400  -29.6200   29.2320 H   0  0  0  0  0  0  0  0  0  0  0  0
   41.5760  -28.5430   30.1780 H   0  0  0  0  0  0  0  0  0  0  0  0
   40.0900  -28.1390   29.5760 H   0  0  0  0  0  0  0  0  0  0  0  0
   41.7663  -26.0139   26.1638 H   0  0  0  0  0  0  0  0  0  0  0  0
   40.1215  -26.2583   26.8823 H   0  0  0  0  0  0  0  0  0  0  0  0
   41.9847  -23.9161   27.4605 H   0  0  0  0  0  0  0  0  0  0  0  0
   40.5411  -23.9041   26.3549 H   0  0  0  0  0  0  0  0  0  0  0  0
   37.1988  -18.5438   28.9718 H   0  0  0  0  0  0  0  0  0  0  0  0
   35.3594  -16.9144   29.5293 H   0  0  0  0  0  0  0  0  0  0  0  0
  1  2  1  0
  2  3  2  0
  3  4  1  0
  4  5  1  0
  5  6  2  0
  6  7  1  0
  7  8  1  0
  8  9  1  0
  9 10  1  0
 10 11  1  0
 11 12  1  0
 12 13  1  0
 13 14  2  0
 14 15  1  0
 15 16  2  0
 16 17  1  0
 17 18  2  0
 11 19  1  0
 19 20  1  0
 20 21  2  0
 20 22  1  0
 22 23  1  0
 23 24  1  0
 24 25  1  0
 25 26  1  0
 26 27  1  0
 25 28  1  0
 28 29  1  0
 10 30  2  0
 30 31  1  0
 31 32  1  0
  7 33  2  0
 33 34  1  0
 34 35  2  0
 35  2  1  0
 35  5  1  0
 31  8  2  0
 18 13  1  0
 29 22  1  0
  1 36  1  0
  1 37  1  0
  3 38  1  0
  4 39  1  0
  6 40  1  0
  9 41  1  0
 11 42  1  1
 12 43  1  0
 12 44  1  0
 14 45  1  0
 15 46  1  0
 16 47  1  0
 17 48  1  0
 18 49  1  0
 19 50  1  0
 22 51  1  1
 23 52  1  0
 23 53  1  0
 24 54  1  0
 24 55  1  0
 25 56  1  6
 26 57  1  0
 26 58  1  0
 27 59  1  0
 27 60  1  0
 27 61  1  0
 28 62  1  0
 28 63  1  0
 29 64  1  0
 29 65  1  0
 33 66  1  0
 34 67  1  0
M  CHG  2   3   1  27   1
M  END
>  <meeko>  (1) 
{"is_sidechain": [false], "free_energy": -10.227, "intermolecular_energy": -15.011, "internal_energy": -1.331}

$$$$
4ty7_ligand
     RDKit          3D

 67 71  0  0  0  0  0  0  0  0999 V2000
   47.6370  -20.7240   30.8420 N   0  0  0  0  0  0  0  0  0  0  0  0
   46.3950  -21.1700   31.2190 C   0  0  0  0  0  0  0  0  0  0  0  0
   46.1230  -21.8900   32.3950 N   0  0  0  0  0  0  0  0  0  0  0  0
   44.6430  -22.1810   32.4220 N   0  0  0  0  0  0  0  0  0  0  0  0
   44.0920  -21.6260   31.2590 C   0  0  0  0  0  0  0  0  0  0  0  0
   42.7860  -21.6130   30.7960 C   0  0  0  0  0  0  0  0  0  0  0  0
   42.5230  -20.9770   29.5670 C   0  0  0  0  0  0  0  0  0  0  0  0
   41.1540  -20.9730   29.0470 C   0  0  0  0  0  0  0  0  0  0  0  0
   40.5170  -19.8430   28.5820 N   0  0  0  0  0  0  0  0  0  0  0  0
   39.2370  -20.1830   28.2160 C   0  0  0  0  0  0  0  0  0  0  0  0
   38.2470  -19.1750   27.6920 C   0  0  2  0  0  0  0  0  0  0  0  0
   37.7810  -18.1840   28.7790 C   0  0  0  0  0  0  0  0  0  0  0  0
   37.3690  -16.8120   28.2910 C   0  0  0  0  0  0  0  0  0  0  0  0
   37.9260  -16.2600   27.1300 C   0  0  0  0  0  0  0  0  0  0  0  0
   37.5500  -14.9870   26.7000 C   0  0  0  0  0  0  0  0  0  0  0  0
   36.6120  -14.2530   27.4220 C   0  0  0  0  0  0  0  0  0  0  0  0
   36.0470  -14.7910   28.5760 C   0  0  0  0  0  0  0  0  0  0  0  0
   36.4240  -16.0630   29.0100 C   0  0  0  0  0  0  0  0  0  0  0  0
   37.1390  -19.9160   27.1120 N   0  0  0  0  0  0  0  0  0  0  0  0
   36.8530  -19.8640   25.7690 C   0  0  0  0  0  0  0  0  0  0  0  0
   37.3530  -19.0440   25.0060 O   0  0  0  0  0  0  0  0  0  0  0  0
   35.8150  -20.8990   25.3270 C   0  0  2  0  0  0  0  0  0  0  0  0
   36.0760  -22.2770   25.9610 C   0  0  0  0  0  0  0  0  0  0  0  0
   37.0480  -23.1240   25.1410 C   0  0  0  0  0  0  0  0  0  0  0  0
   36.5800  -23.3530   23.6880 C   0  0  1  0  0  0  0  0  0  0  0  0
   36.1140  -24.7920   23.4280 C   0  0  0  0  0  0  0  0  0  0  0  0
   34.6650  -24.9320   23.7130 N   0  0  0  0  0  0  0  0  0  0  0  0
   35.4700  -22.3690   23.2780 C   0  0  0  0  0  0  0  0  0  0  0  0
   35.7530  -20.9620   23.7910 C   0  0  0  0  0  0  0  0  0  0  0  0
   39.0390  -21.4760   28.3820 N   0  0  0  0  0  0  0  0  0  0  0  0
   40.2100  -21.9760   28.8920 C   0  0  0  0  0  0  0  0  0  0  0  0
   40.3880  -23.6330   29.2450 Cl  0  0  0  0  0  0  0  0  0  0  0  0
   43.5560  -20.3520   28.8180 C   0  0  0  0  0  0  0  0  0  0  0  0
   44.8990  -20.3200   29.2300 C   0  0  0  0  0  0  0  0  0  0  0  0
   45.1570  -20.9660   30.4540 C   0  0  0  0  0  0  0  0  0  0  0  0
   47.8620  -19.8110   30.4530 H   0  0  0  0  0  0  0  0  0  0  0  0
   48.4840  -21.2820   30.9500 H   0  0  0  0  0  0  0  0  0  0  0  0
   46.7930  -22.1750   33.1080 H   0  0  0  0  0  0  0  0  0  0  0  0
   44.1640  -22.6980   33.1600 H   0  0  0  0  0  0  0  0  0  0  0  0
   41.9772  -22.0862   31.3722 H   0  0  0  0  0  0  0  0  0  0  0  0
   40.9100  -18.9130   28.5400 H   0  0  0  0  0  0  0  0  0  0  0  0
   38.7245  -18.5461   26.9262 H   0  0  0  0  0  0  0  0  0  0  0  0
   36.9185  -18.6310   29.2950 H   0  0  0  0  0  0  0  0  0  0  0  0
   38.6554  -18.0193   29.4257 H   0  0  0  0  0  0  0  0  0  0  0  0
   38.6655  -16.8347   26.5530 H   0  0  0  0  0  0  0  0  0  0  0  0
   37.9955  -14.5620   25.7885 H   0  0  0  0  0  0  0  0  0  0  0  0
   36.3176  -13.2494   27.0813 H   0  0  0  0  0  0  0  0  0  0  0  0
   35.3038  -14.2135   29.1453 H   0  0  0  0  0  0  0  0  0  0  0  0
   35.9767  -16.4822   29.9234 H   0  0  0  0  0  0  0  0  0  0  0  0
   36.9300  -20.7840   27.5970 H   0  0  0  0  0  0  0  0  0  0  0  0
   34.8272  -20.5806   25.6913 H   0  0  0  0  0  0  0  0  0  0  0  0
   36.4984  -22.1287   26.9658 H   0  0  0  0  0  0  0  0  0  0  0  0
   35.1166  -22.8137   26.0007 H   0  0  0  0  0  0  0  0  0  0  0  0
   38.0223  -22.6140   25.1180 H   0  0  0  0  0  0  0  0  0  0  0  0
   37.1088  -24.1105   25.6237 H   0  0  0  0  0  0  0  0  0  0  0  0
   37.4682  -23.1686   23.0659 H   0  0  0  0  0  0  0  0  0  0  0  0
   36.3015  -25.0478   22.3747 H   0  0  0  0  0  0  0  0  0  0  0  0
   36.6724  -25.4703   24.0899 H   0  0  0  0  0  0  0  0  0  0  0  0
   34.4970  -25.4700   24.5750 H   0  0  0  0  0  0  0  0  0  0  0  0
   34.1930  -24.0240   23.8190 H   0  0  0  0  0  0  0  0  0  0  0  0
   34.1870  -25.4310   22.9510 H   0  0  0  0  0  0  0  0  0  0  0  0
   35.4034  -22.3425   22.1803 H   0  0  0  0  0  0  0  0  0  0  0  0
   34.5233  -22.7133   23.7197 H   0  0  0  0  0  0  0  0  0  0  0  0
   36.7180  -20.6252   23.3844 H   0  0  0  0  0  0  0  0  0  0  0  0
   34.9282  -20.3129   23.4618 H   0  0  0  0  0  0  0  0  0  0  0  0
   43.2907  -19.8682   27.8664 H   0  0  0  0  0  0  0  0  0  0  0  0
   45.6877  -19.8283   28.6417 H   0  0  0  0  0  0  0  0  0  0  0  0
  1  2  1  0
  2  3  2  0
  3  4  1  0
  4  5  1  0
  5  6  2  0
  6  7  1  0
  7  8  1  0
  8  9  1  0
  9 10  1  0
 10 11  1  0
 11 12  1  0
 12 13  1  0
 13 14  2  0
 14 15  1  0
 15 16  2  0
 16 17  1  0
 17 18  2  0
 11 19  1  0
 19 20  1  0
 20 21  2  0
 20 22  1  0
 22 23  1  0
 23 24  1  0
 24 25  1  0
 25 26  1  0
 26 27  1  0
 25 28  1  0
 28 29  1  0
 10 30  2  0
 30 31  1  0
 31 32  1  0
  7 33  2  0
 33 34  1  0
 34 35  2  0
 35  2  1  0
 35  5  1  0
 31  8  2  0
 18 13  1  0
 29 22  1  0
  1 36  1  0
  1 37  1  0
  3 38  1  0
  4 39  1  0
  6 40  1  0
  9 41  1  0
 11 42  1  6
 12 43  1  0
 12 44  1  0
 14 45  1  0
 15 46  1  0
 16 47  1  0
 17 48  1  0
 18 49  1  0
 19 50  1  0
 22 51  1  6
 23 52  1  0
 23 53  1  0
 24 54  1  0
 24 55  1  0
 25 56  1  1
 26 57  1  0
 26 58  1  0
 27 59  1  0
 27 60  1  0
 27 61  1  0
 28 62  1  0
 28 63  1  0
 29 64  1  0
 29 65  1  0
 33 66  1  0
 34 67  1  0
M  CHG  2   3   1  27   1
M  END
>  <meeko>  (2) 
{"is_sidechain": [false], "free_energy": -9.452, "intermolecular_energy": -13.802, "internal_energy": -1.402}

$$$$
4ty7_ligand
     RDKit          3D

 67 71  0  0  0  0  0  0  0  0999 V2000
   36.9590  -12.4990   27.4820 N   0  0  0  0  0  0  0  0  0  0  0  0
   36.5640  -13.7210   27.9620 C   0  0  0  0  0  0  0  0  0  0  0  0
   35.3560  -13.9670   28.6380 N   0  0  0  0  0  0  0  0  0  0  0  0
   35.3190  -15.4330   28.9910 N   0  0  0  0  0  0  0  0  0  0  0  0
   36.5070  -16.0030   28.5140 C   0  0  0  0  0  0  0  0  0  0  0  0
   36.9730  -17.3070   28.5800 C   0  0  0  0  0  0  0  0  0  0  0  0
   38.2300  -17.5920   28.0130 C   0  0  0  0  0  0  0  0  0  0  0  0
   38.7520  -18.9580   28.0920 C   0  0  0  0  0  0  0  0  0  0  0  0
   39.8650  -19.3100   28.8260 N   0  0  0  0  0  0  0  0  0  0  0  0
   40.1030  -20.6500   28.6420 C   0  0  0  0  0  0  0  0  0  0  0  0
   41.2700  -21.3620   29.2760 C   0  0  2  0  0  0  0  0  0  0  0  0
   42.6300  -20.8040   28.8060 C   0  0  0  0  0  0  0  0  0  0  0  0
   43.7860  -20.9830   29.7660 C   0  0  0  0  0  0  0  0  0  0  0  0
   43.6860  -21.8450   30.8660 C   0  0  0  0  0  0  0  0  0  0  0  0
   44.7540  -21.9880   31.7530 C   0  0  0  0  0  0  0  0  0  0  0  0
   45.9340  -21.2760   31.5490 C   0  0  0  0  0  0  0  0  0  0  0  0
   46.0490  -20.4190   30.4560 C   0  0  0  0  0  0  0  0  0  0  0  0
   44.9800  -20.2710   29.5700 C   0  0  0  0  0  0  0  0  0  0  0  0
   41.1260  -22.7790   28.9820 N   0  0  0  0  0  0  0  0  0  0  0  0
   40.3430  -23.6050   29.7520 C   0  0  0  0  0  0  0  0  0  0  0  0
   39.8910  -23.2780   30.8450 O   0  0  0  0  0  0  0  0  0  0  0  0
   40.1290  -24.9900   29.1350 C   0  0  2  0  0  0  0  0  0  0  0  0
   41.2240  -25.9820   29.5640 C   0  0  0  0  0  0  0  0  0  0  0  0
   42.4490  -25.9310   28.6530 C   0  0  0  0  0  0  0  0  0  0  0  0
   42.1180  -26.2050   27.1710 C   0  0  1  0  0  0  0  0  0  0  0  0
   42.6140  -27.5740   26.6880 C   0  0  0  0  0  0  0  0  0  0  0  0
   41.9590  -28.6670   27.4480 N   0  0  0  0  0  0  0  0  0  0  0  0
   40.6120  -26.0720   26.8820 C   0  0  0  0  0  0  0  0  0  0  0  0
   40.0080  -24.8730   27.6060 C   0  0  0  0  0  0  0  0  0  0  0  0
   39.1770  -21.1800   27.8670 N   0  0  0  0  0  0  0  0  0  0  0  0
   38.3390  -20.1510   27.5210 C   0  0  0  0  0  0  0  0  0  0  0  0
   36.9820  -20.4100   26.5240 Cl  0  0  0  0  0  0  0  0  0  0  0  0
   39.0060  -16.5850   27.3800 C   0  0  0  0  0  0  0  0  0  0  0  0
   38.5940  -15.2460   27.2710 C   0  0  0  0  0  0  0  0  0  0  0  0
   37.3390  -14.9640   27.8480 C   0  0  0  0  0  0  0  0  0  0  0  0
   36.6180  -11.5890   27.7830 H   0  0  0  0  0  0  0  0  0  0  0  0
   37.6800  -12.3890   26.7680 H   0  0  0  0  0  0  0  0  0  0  0  0
   34.6300  -13.2880   28.8600 H   0  0  0  0  0  0  0  0  0  0  0  0
   34.5580  -15.8930   29.4930 H   0  0  0  0  0  0  0  0  0  0  0  0
   36.3777  -18.0967   29.0617 H   0  0  0  0  0  0  0  0  0  0  0  0
   40.4310  -18.6860   29.3850 H   0  0  0  0  0  0  0  0  0  0  0  0
   41.2609  -21.1975   30.3636 H   0  0  0  0  0  0  0  0  0  0  0  0
   42.8933  -21.3074   27.8640 H   0  0  0  0  0  0  0  0  0  0  0  0
   42.4885  -19.7173   28.7103 H   0  0  0  0  0  0  0  0  0  0  0  0
   42.7589  -22.4133   31.0317 H   0  0  0  0  0  0  0  0  0  0  0  0
   44.6638  -22.6647   32.6155 H   0  0  0  0  0  0  0  0  0  0  0  0
   46.7741  -21.3901   32.2499 H   0  0  0  0  0  0  0  0  0  0  0  0
   46.9816  -19.8594   30.2914 H   0  0  0  0  0  0  0  0  0  0  0  0
   45.0742  -19.5905   28.7109 H   0  0  0  0  0  0  0  0  0  0  0  0
   41.2010  -23.0000   27.9930 H   0  0  0  0  0  0  0  0  0  0  0  0
   39.1830  -25.4011   29.5172 H   0  0  0  0  0  0  0  0  0  0  0  0
   41.5372  -25.7396   30.5902 H   0  0  0  0  0  0  0  0  0  0  0  0
   40.8011  -26.9954   29.4989 H   0  0  0  0  0  0  0  0  0  0  0  0
   42.9009  -24.9312   28.7309 H   0  0  0  0  0  0  0  0  0  0  0  0
   43.1362  -26.7229   28.9856 H   0  0  0  0  0  0  0  0  0  0  0  0
   42.6603  -25.4315   26.6074 H   0  0  0  0  0  0  0  0  0  0  0  0
   42.3795  -27.6865   25.6192 H   0  0  0  0  0  0  0  0  0  0  0  0
   43.7006  -27.6333   26.8486 H   0  0  0  0  0  0  0  0  0  0  0  0
   41.3080  -29.2030   26.8580 H   0  0  0  0  0  0  0  0  0  0  0  0
   42.6350  -29.3320   27.8460 H   0  0  0  0  0  0  0  0  0  0  0  0
   41.4110  -28.2900   28.2330 H   0  0  0  0  0  0  0  0  0  0  0  0
   40.4655  -25.9467   25.7990 H   0  0  0  0  0  0  0  0  0  0  0  0
   40.1096  -26.9819   27.2422 H   0  0  0  0  0  0  0  0  0  0  0  0
   40.5311  -23.9624   27.2788 H   0  0  0  0  0  0  0  0  0  0  0  0
   38.9375  -24.8344   27.3560 H   0  0  0  0  0  0  0  0  0  0  0  0
   39.9796  -16.8677   26.9531 H   0  0  0  0  0  0  0  0  0  0  0  0
   39.2037  -14.4772   26.7738 H   0  0  0  0  0  0  0  0  0  0  0  0
  1  2  1  0
  2  3  2  0
  3  4  1  0
  4  5  1  0
  5  6  2  0
  6  7  1  0
  7  8  1  0
  8  9  1  0
  9 10  1  0
 10 11  1  0
 11 12  1  0
 12 13  1  0
 13 14  2  0
 14 15  1  0
 15 16  2  0
 16 17  1  0
 17 18  2  0
 11 19  1  0
 19 20  1  0
 20 21  2  0
 20 22  1  0
 22 23  1  0
 23 24  1  0
 24 25  1  0
 25 26  1  0
 26 27  1  0
 25 28  1  0
 28 29  1  0
 10 30  2  0
 30 31  1  0
 31 32  1  0
  7 33  2  0
 33 34  1  0
 34 35  2  0
 35  2  1  0
 35  5  1  0
 31  8  2  0
 18 13  1  0
 29 22  1  0
  1 36  1  0
  1 37  1  0
  3 38  1  0
  4 39  1  0
  6 40  1  0
  9 41  1  0
 11 42  1  1
 12 43  1  0
 12 44  1  0
 14 45  1  0
 15 46  1  0
 16 47  1  0
 17 48  1  0
 18 49  1  0
 19 50  1  0
 22 51  1  6
 23 52  1  0
 23 53  1  0
 24 54  1  0
 24 55  1  0
 25 56  1  1
 26 57  1  0
 26 58  1  0
 27 59  1  0
 27 60  1  0
 27 61  1  0
 28 62  1  0
 28 63  1  0
 29 64  1  0
 29 65  1  0
 33 66  1  0
 34 67  1  0
M  CHG  2   3   1  27   1
M  END
>  <meeko>  (3) 
{"is_sidechain": [false], "free_energy": -9.32, "intermolecular_energy": -13.887, "internal_energy": -1.124}

$$$$
4ty7_ligand
     RDKit          3D

 67 71  0  0  0  0  0  0  0  0999 V2000
   37.0480  -12.5960   27.4920 N   0  0  0  0  0  0  0  0  0  0  0  0
   36.6560  -13.8200   27.9700 C   0  0  0  0  0  0  0  0  0  0  0  0
   35.4370  -14.0760   28.6220 N   0  0  0  0  0  0  0  0  0  0  0  0
   35.4080  -15.5410   28.9800 N   0  0  0  0  0  0  0  0  0  0  0  0
   36.6110  -16.1010   28.5290 C   0  0  0  0  0  0  0  0  0  0  0  0
   37.0890  -17.3990   28.6090 C   0  0  0  0  0  0  0  0  0  0  0  0
   38.3600  -17.6740   28.0690 C   0  0  0  0  0  0  0  0  0  0  0  0
   38.8950  -19.0330   28.1640 C   0  0  0  0  0  0  0  0  0  0  0  0
   40.1240  -19.3360   28.7110 N   0  0  0  0  0  0  0  0  0  0  0  0
   40.3310  -20.6890   28.5970 C   0  0  0  0  0  0  0  0  0  0  0  0
   41.5960  -21.3590   29.0670 C   0  0  2  0  0  0  0  0  0  0  0  0
   42.8190  -20.4190   29.0090 C   0  0  0  0  0  0  0  0  0  0  0  0
   43.9740  -20.7790   29.9180 C   0  0  0  0  0  0  0  0  0  0  0  0
   45.2010  -20.1070   29.8290 C   0  0  0  0  0  0  0  0  0  0  0  0
   46.2630  -20.4590   30.6610 C   0  0  0  0  0  0  0  0  0  0  0  0
   46.1130  -21.4820   31.5950 C   0  0  0  0  0  0  0  0  0  0  0  0
   44.8970  -22.1550   31.6970 C   0  0  0  0  0  0  0  0  0  0  0  0
   43.8340  -21.8070   30.8630 C   0  0  0  0  0  0  0  0  0  0  0  0
   41.7820  -22.5530   28.2580 N   0  0  0  0  0  0  0  0  0  0  0  0
   41.4520  -23.8030   28.7210 C   0  0  0  0  0  0  0  0  0  0  0  0
   41.1910  -24.0380   29.8970 O   0  0  0  0  0  0  0  0  0  0  0  0
   41.4900  -24.8840   27.6370 C   0  0  2  0  0  0  0  0  0  0  0  0
   40.9710  -24.3580   26.2880 C   0  0  0  0  0  0  0  0  0  0  0  0
   39.4540  -24.4880   26.1540 C   0  0  0  0  0  0  0  0  0  0  0  0
   38.9510  -25.9380   26.3210 C   0  0  1  0  0  0  0  0  0  0  0  0
   38.4760  -26.5650   25.0040 C   0  0  0  0  0  0  0  0  0  0  0  0
   37.0260  -26.3250   24.8020 N   0  0  0  0  0  0  0  0  0  0  0  0
   40.0110  -26.8450   26.9710 C   0  0  0  0  0  0  0  0  0  0  0  0
   40.7310  -26.1350   28.1120 C   0  0  0  0  0  0  0  0  0  0  0  0
   39.2830  -21.2710   28.0470 N   0  0  0  0  0  0  0  0  0  0  0  0
   38.3910  -20.2650   27.7760 C   0  0  0  0  0  0  0  0  0  0  0  0
   36.8770  -20.5900   27.0640 Cl  0  0  0  0  0  0  0  0  0  0  0  0
   39.1380  -16.6610   27.4470 C   0  0  0  0  0  0  0  0  0  0  0  0
   38.7140  -15.3260   27.3240 C   0  0  0  0  0  0  0  0  0  0  0  0
   37.4460  -15.0560   27.8750 C   0  0  0  0  0  0  0  0  0  0  0  0
   37.3750  -11.8050   28.0430 H   0  0  0  0  0  0  0  0  0  0  0  0
   37.0730  -12.3700   26.4970 H   0  0  0  0  0  0  0  0  0  0  0  0
   34.7000  -13.4040   28.8260 H   0  0  0  0  0  0  0  0  0  0  0  0
   34.6420  -16.0070   29.4680 H   0  0  0  0  0  0  0  0  0  0  0  0
   36.4919  -18.1929   29.0814 H   0  0  0  0  0  0  0  0  0  0  0  0
   40.7780  -18.6740   29.1060 H   0  0  0  0  0  0  0  0  0  0  0  0
   41.5015  -21.6316   30.1285 H   0  0  0  0  0  0  0  0  0  0  0  0
   43.1928  -20.4160   27.9745 H   0  0  0  0  0  0  0  0  0  0  0  0
   42.4588  -19.4405   29.3593 H   0  0  0  0  0  0  0  0  0  0  0  0
   45.3270  -19.2956   29.0970 H   0  0  0  0  0  0  0  0  0  0  0  0
   47.2225  -19.9273   30.5798 H   0  0  0  0  0  0  0  0  0  0  0  0
   46.9524  -21.7577   32.2503 H   0  0  0  0  0  0  0  0  0  0  0  0
   44.7752  -22.9611   32.4355 H   0  0  0  0  0  0  0  0  0  0  0  0
   42.8773  -22.3434   30.9470 H   0  0  0  0  0  0  0  0  0  0  0  0
   41.6860  -22.3880   27.2590 H   0  0  0  0  0  0  0  0  0  0  0  0
   42.5379  -25.1715   27.4660 H   0  0  0  0  0  0  0  0  0  0  0  0
   41.2438  -23.2964   26.1947 H   0  0  0  0  0  0  0  0  0  0  0  0
   41.4301  -24.9647   25.4935 H   0  0  0  0  0  0  0  0  0  0  0  0
   38.9800  -23.8625   26.9248 H   0  0  0  0  0  0  0  0  0  0  0  0
   39.1866  -24.1642   25.1373 H   0  0  0  0  0  0  0  0  0  0  0  0
   38.0823  -25.8655   26.9919 H   0  0  0  0  0  0  0  0  0  0  0  0
   39.0357  -26.1185   24.1689 H   0  0  0  0  0  0  0  0  0  0  0  0
   38.6526  -27.6500   25.0449 H   0  0  0  0  0  0  0  0  0  0  0  0
   36.5200  -26.2810   25.6970 H   0  0  0  0  0  0  0  0  0  0  0  0
   36.8370  -25.4490   24.2970 H   0  0  0  0  0  0  0  0  0  0  0  0
   36.6010  -27.0850   24.2540 H   0  0  0  0  0  0  0  0  0  0  0  0
   39.5175  -27.7455   27.3653 H   0  0  0  0  0  0  0  0  0  0  0  0
   40.7551  -27.1094   26.2052 H   0  0  0  0  0  0  0  0  0  0  0  0
   39.9882  -25.8330   28.8651 H   0  0  0  0  0  0  0  0  0  0  0  0
   41.4679  -26.8356   28.5317 H   0  0  0  0  0  0  0  0  0  0  0  0
   40.1228  -16.9351   27.0407 H   0  0  0  0  0  0  0  0  0  0  0  0
   39.3249  -14.5526   26.8355 H   0  0  0  0  0  0  0  0  0  0  0  0
  1  2  1  0
  2  3  2  0
  3  4  1  0
  4  5  1  0
  5  6  2  0
  6  7  1  0
  7  8  1  0
  8  9  1  0
  9 10  1  0
 10 11  1  0
 11 12  1  0
 12 13  1  0
 13 14  2  0
 14 15  1  0
 15 16  2  0
 16 17  1  0
 17 18  2  0
 11 19  1  0
 19 20  1  0
 20 21  2  0
 20 22  1  0
 22 23  1  0
 23 24  1  0
 24 25  1  0
 25 26  1  0
 26 27  1  0
 25 28  1  0
 28 29  1  0
 10 30  2  0
 30 31  1  0
 31 32  1  0
  7 33  2  0
 33 34  1  0
 34 35  2  0
 35  2  1  0
 35  5  1  0
 31  8  2  0
 18 13  1  0
 29 22  1  0
  1 36  1  0
  1 37  1  0
  3 38  1  0
  4 39  1  0
  6 40  1  0
  9 41  1  0
 11 42  1  1
 12 43  1  0
 12 44  1  0
 14 45  1  0
 15 46  1  0
 16 47  1  0
 17 48  1  0
 18 49  1  0
 19 50  1  0
 22 51  1  1
 23 52  1  0
 23 53  1  0
 24 54  1  0
 24 55  1  0
 25 56  1  6
 26 57  1  0
 26 58  1  0
 27 59  1  0
 27 60  1  0
 27 61  1  0
 28 62  1  0
 28 63  1  0
 29 64  1  0
 29 65  1  0
 33 66  1  0
 34 67  1  0
M  CHG  2   3   1  27   1
M  END
>  <meeko>  (4) 
{"is_sidechain": [false], "free_energy": -9.239, "intermolecular_energy": -13.6, "internal_energy": -1.292}

$$$$
4ty7_ligand
     RDKit          3D

 67 71  0  0  0  0  0  0  0  0999 V2000
   40.7600  -28.6450   29.3690 N   0  0  0  0  0  0  0  0  0  0  0  0
   40.7320  -27.5870   28.4960 C   0  0  0  0  0  0  0  0  0  0  0  0
   40.8480  -27.6950   27.0990 N   0  0  0  0  0  0  0  0  0  0  0  0
   40.7670  -26.3030   26.5240 N   0  0  0  0  0  0  0  0  0  0  0  0
   40.6090  -25.4200   27.6010 C   0  0  0  0  0  0  0  0  0  0  0  0
   40.4900  -24.0390   27.6260 C   0  0  0  0  0  0  0  0  0  0  0  0
   40.3500  -23.4080   28.8770 C   0  0  0  0  0  0  0  0  0  0  0  0
   40.2470  -21.9480   28.9290 C   0  0  0  0  0  0  0  0  0  0  0  0
   39.1990  -21.2350   28.3850 N   0  0  0  0  0  0  0  0  0  0  0  0
   39.4410  -19.8960   28.5690 C   0  0  0  0  0  0  0  0  0  0  0  0
   38.5080  -18.8260   28.0640 C   0  0  2  0  0  0  0  0  0  0  0  0
   38.0680  -17.8520   29.1780 C   0  0  0  0  0  0  0  0  0  0  0  0
   37.5760  -16.4970   28.7160 C   0  0  0  0  0  0  0  0  0  0  0  0
   38.4060  -15.6390   27.9820 C   0  0  0  0  0  0  0  0  0  0  0  0
   37.9460  -14.3860   27.5770 C   0  0  0  0  0  0  0  0  0  0  0  0
   36.6540  -13.9760   27.8960 C   0  0  0  0  0  0  0  0  0  0  0  0
   35.8170  -14.8210   28.6230 C   0  0  0  0  0  0  0  0  0  0  0  0
   36.2760  -16.0740   29.0320 C   0  0  0  0  0  0  0  0  0  0  0  0
   37.3770  -19.4940   27.4400 N   0  0  0  0  0  0  0  0  0  0  0  0
   37.2090  -19.5190   26.0760 C   0  0  0  0  0  0  0  0  0  0  0  0
   37.8550  -18.8150   25.3060 O   0  0  0  0  0  0  0  0  0  0  0  0
   36.1050  -20.4750   25.6160 C   0  0  2  0  0  0  0  0  0  0  0  0
   36.1710  -21.8220   26.3570 C   0  0  0  0  0  0  0  0  0  0  0  0
   37.1100  -22.8190   25.6770 C   0  0  0  0  0  0  0  0  0  0  0  0
   36.7330  -23.1050   24.2080 C   0  0  1  0  0  0  0  0  0  0  0  0
   36.1410  -24.5050   24.0020 C   0  0  0  0  0  0  0  0  0  0  0  0
   34.8170  -24.4210   23.3360 N   0  0  0  0  0  0  0  0  0  0  0  0
   35.7670  -22.0480   23.6440 C   0  0  0  0  0  0  0  0  0  0  0  0
   36.1550  -20.6420   24.0880 C   0  0  0  0  0  0  0  0  0  0  0  0
   40.5630  -19.7180   29.2390 N   0  0  0  0  0  0  0  0  0  0  0  0
   41.0700  -20.9710   29.4680 C   0  0  0  0  0  0  0  0  0  0  0  0
   42.5240  -21.1970   30.3260 Cl  0  0  0  0  0  0  0  0  0  0  0  0
   40.3190  -24.1520   30.0860 C   0  0  0  0  0  0  0  0  0  0  0  0
   40.4270  -25.5520   30.1350 C   0  0  0  0  0  0  0  0  0  0  0  0
   40.5760  -26.1780   28.8820 C   0  0  0  0  0  0  0  0  0  0  0  0
   40.8030  -29.6320   29.1260 H   0  0  0  0  0  0  0  0  0  0  0  0
   40.7690  -28.5290   30.3820 H   0  0  0  0  0  0  0  0  0  0  0  0
   40.9690  -28.5500   26.5590 H   0  0  0  0  0  0  0  0  0  0  0  0
   40.8280  -26.0780   25.5300 H   0  0  0  0  0  0  0  0  0  0  0  0
   40.5045  -23.4530   26.6952 H   0  0  0  0  0  0  0  0  0  0  0  0
   38.3990  -21.6260   27.9060 H   0  0  0  0  0  0  0  0  0  0  0  0
   39.0279  -18.1948   27.3283 H   0  0  0  0  0  0  0  0  0  0  0  0
   37.2546  -18.3312   29.7426 H   0  0  0  0  0  0  0  0  0  0  0  0
   38.9715  -17.6533   29.7732 H   0  0  0  0  0  0  0  0  0  0  0  0
   39.4272  -15.9558   27.7235 H   0  0  0  0  0  0  0  0  0  0  0  0
   38.6064  -13.7191   27.0034 H   0  0  0  0  0  0  0  0  0  0  0  0
   36.2946  -12.9872   27.5749 H   0  0  0  0  0  0  0  0  0  0  0  0
   34.7952  -14.5004   28.8742 H   0  0  0  0  0  0  0  0  0  0  0  0
   35.6124  -16.7361   29.6075 H   0  0  0  0  0  0  0  0  0  0  0  0
   37.0370  -20.2960   27.9640 H   0  0  0  0  0  0  0  0  0  0  0  0
   35.1306  -20.0351   25.8748 H   0  0  0  0  0  0  0  0  0  0  0  0
   36.5282  -21.6436   27.3820 H   0  0  0  0  0  0  0  0  0  0  0  0
   35.1606  -22.2568   26.3508 H   0  0  0  0  0  0  0  0  0  0  0  0
   38.1312  -22.4109   25.7027 H   0  0  0  0  0  0  0  0  0  0  0  0
   37.0306  -23.7691   26.2256 H   0  0  0  0  0  0  0  0  0  0  0  0
   37.6810  -23.0550   23.6522 H   0  0  0  0  0  0  0  0  0  0  0  0
   36.8238  -25.0973   23.3751 H   0  0  0  0  0  0  0  0  0  0  0  0
   36.0135  -24.9836   24.9842 H   0  0  0  0  0  0  0  0  0  0  0  0
   34.4100  -25.3530   23.1810 H   0  0  0  0  0  0  0  0  0  0  0  0
   34.1360  -23.8720   23.8780 H   0  0  0  0  0  0  0  0  0  0  0  0
   34.8980  -23.9710   22.4140 H   0  0  0  0  0  0  0  0  0  0  0  0
   35.7885  -22.0944   22.5452 H   0  0  0  0  0  0  0  0  0  0  0  0
   34.7582  -22.2641   24.0257 H   0  0  0  0  0  0  0  0  0  0  0  0
   37.1783  -20.4324   23.7430 H   0  0  0  0  0  0  0  0  0  0  0  0
   35.4302  -19.9400   23.6500 H   0  0  0  0  0  0  0  0  0  0  0  0
   40.2045  -23.6041   31.0330 H   0  0  0  0  0  0  0  0  0  0  0  0
   40.3975  -26.1158   31.0791 H   0  0  0  0  0  0  0  0  0  0  0  0
  1  2  1  0
  2  3  2  0
  3  4  1  0
  4  5  1  0
  5  6  2  0
  6  7  1  0
  7  8  1  0
  8  9  1  0
  9 10  1  0
 10 11  1  0
 11 12  1  0
 12 13  1  0
 13 14  2  0
 14 15  1  0
 15 16  2  0
 16 17  1  0
 17 18  2  0
 11 19  1  0
 19 20  1  0
 20 21  2  0
 20 22  1  0
 22 23  1  0
 23 24  1  0
 24 25  1  0
 25 26  1  0
 26 27  1  0
 25 28  1  0
 28 29  1  0
 10 30  2  0
 30 31  1  0
 31 32  1  0
  7 33  2  0
 33 34  1  0
 34 35  2  0
 35  2  1  0
 35  5  1  0
 31  8  2  0
 18 13  1  0
 29 22  1  0
  1 36  1  0
  1 37  1  0
  3 38  1  0
  4 39  1  0
  6 40  1  0
  9 41  1  0
 11 42  1  6
 12 43  1  0
 12 44  1  0
 14 45  1  0
 15 46  1  0
 16 47  1  0
 17 48  1  0
 18 49  1  0
 19 50  1  0
 22 51  1  1
 23 52  1  0
 23 53  1  0
 24 54  1  0
 24 55  1  0
 25 56  1  1
 26 57  1  0
 26 58  1  0
 27 59  1  0
 27 60  1  0
 27 61  1  0
 28 62  1  0
 28 63  1  0
 29 64  1  0
 29 65  1  0
 33 66  1  0
 34 67  1  0
M  CHG  2   3   1  27   1
M  END
>  <meeko>  (5) 
{"is_sidechain": [false], "free_energy": -9.181, "intermolecular_energy": -13.104, "internal_energy": -1.702}

$$$$
4ty7_ligand
     RDKit          3D

 67 71  0  0  0  0  0  0  0  0999 V2000
   34.5660  -13.8820   29.2800 N   0  0  0  0  0  0  0  0  0  0  0  0
   35.7940  -13.9830   28.6780 C   0  0  0  0  0  0  0  0  0  0  0  0
   36.5050  -12.9070   28.1180 N   0  0  0  0  0  0  0  0  0  0  0  0
   37.7990  -13.4510   27.5660 N   0  0  0  0  0  0  0  0  0  0  0  0
   37.8080  -14.8300   27.8170 C   0  0  0  0  0  0  0  0  0  0  0  0
   38.7530  -15.7970   27.5130 C   0  0  0  0  0  0  0  0  0  0  0  0
   38.4840  -17.1280   27.8840 C   0  0  0  0  0  0  0  0  0  0  0  0
   39.4580  -18.1700   27.5520 C   0  0  0  0  0  0  0  0  0  0  0  0
   39.7430  -19.2400   28.3720 N   0  0  0  0  0  0  0  0  0  0  0  0
   40.7290  -19.9930   27.7820 C   0  0  0  0  0  0  0  0  0  0  0  0
   41.3060  -21.2260   28.4280 C   0  0  2  0  0  0  0  0  0  0  0  0
   40.2350  -22.0720   29.1480 C   0  0  0  0  0  0  0  0  0  0  0  0
   40.2850  -23.5620   28.8900 C   0  0  0  0  0  0  0  0  0  0  0  0
   40.2460  -24.0710   27.5850 C   0  0  0  0  0  0  0  0  0  0  0  0
   40.2760  -25.4480   27.3610 C   0  0  0  0  0  0  0  0  0  0  0  0
   40.3480  -26.3310   28.4360 C   0  0  0  0  0  0  0  0  0  0  0  0
   40.3920  -25.8380   29.7390 C   0  0  0  0  0  0  0  0  0  0  0  0
   40.3580  -24.4610   29.9650 C   0  0  0  0  0  0  0  0  0  0  0  0
   42.3610  -20.7910   29.3300 N   0  0  0  0  0  0  0  0  0  0  0  0
   43.3960  -21.6200   29.6910 C   0  0  0  0  0  0  0  0  0  0  0  0
   43.4000  -22.8270   29.4690 O   0  0  0  0  0  0  0  0  0  0  0  0
   44.5200  -20.8990   30.4390 C   0  0  2  0  0  0  0  0  0  0  0  0
   45.5660  -20.3150   29.4740 C   0  0  0  0  0  0  0  0  0  0  0  0
   46.6560  -21.3230   29.1130 C   0  0  0  0  0  0  0  0  0  0  0  0
   47.4060  -21.8760   30.3440 C   0  0  1  0  0  0  0  0  0  0  0  0
   48.8390  -21.3410   30.4650 C   0  0  0  0  0  0  0  0  0  0  0  0
   48.8620  -20.0780   31.2430 N   0  0  0  0  0  0  0  0  0  0  0  0
   46.6430  -21.6070   31.6530 C   0  0  0  0  0  0  0  0  0  0  0  0
   45.1450  -21.8380   31.4840 C   0  0  0  0  0  0  0  0  0  0  0  0
   41.0570  -19.4840   26.6100 N   0  0  0  0  0  0  0  0  0  0  0  0
   40.2830  -18.3620   26.4540 C   0  0  0  0  0  0  0  0  0  0  0  0
   40.3850  -17.4020   25.0510 Cl  0  0  0  0  0  0  0  0  0  0  0  0
   37.2870  -17.4840   28.5620 C   0  0  0  0  0  0  0  0  0  0  0  0
   36.2900  -16.5560   28.9080 C   0  0  0  0  0  0  0  0  0  0  0  0
   36.5600  -15.2270   28.5250 C   0  0  0  0  0  0  0  0  0  0  0  0
   33.6870  -13.6340   28.8300 H   0  0  0  0  0  0  0  0  0  0  0  0
   34.4140  -14.0840   30.2690 H   0  0  0  0  0  0  0  0  0  0  0  0
   36.2110  -11.9330   28.0800 H   0  0  0  0  0  0  0  0  0  0  0  0
   38.5120  -12.8930   27.0940 H   0  0  0  0  0  0  0  0  0  0  0  0
   39.6872  -15.5319   26.9962 H   0  0  0  0  0  0  0  0  0  0  0  0
   39.3200  -19.4300   29.2710 H   0  0  0  0  0  0  0  0  0  0  0  0
   41.7183  -21.8931   27.6567 H   0  0  0  0  0  0  0  0  0  0  0  0
   40.3520  -21.9134   30.2302 H   0  0  0  0  0  0  0  0  0  0  0  0
   39.2688  -21.7330   28.7461 H   0  0  0  0  0  0  0  0  0  0  0  0
   40.1913  -23.3800   26.7309 H   0  0  0  0  0  0  0  0  0  0  0  0
   40.2427  -25.8373   26.3327 H   0  0  0  0  0  0  0  0  0  0  0  0
   40.3701  -27.4161   28.2568 H   0  0  0  0  0  0  0  0  0  0  0  0
   40.4535  -26.5337   30.5888 H   0  0  0  0  0  0  0  0  0  0  0  0
   40.3887  -24.0770   30.9953 H   0  0  0  0  0  0  0  0  0  0  0  0
   42.5610  -19.7960   29.2740 H   0  0  0  0  0  0  0  0  0  0  0  0
   44.0890  -20.0395   30.9733 H   0  0  0  0  0  0  0  0  0  0  0  0
   45.0573  -19.9998   28.5510 H   0  0  0  0  0  0  0  0  0  0  0  0
   46.0498  -19.4661   29.9792 H   0  0  0  0  0  0  0  0  0  0  0  0
   46.1905  -22.1652   28.5800 H   0  0  0  0  0  0  0  0  0  0  0  0
   47.3942  -20.7966   28.4902 H   0  0  0  0  0  0  0  0  0  0  0  0
   47.4648  -22.9623   30.1811 H   0  0  0  0  0  0  0  0  0  0  0  0
   49.4627  -22.0905   30.9742 H   0  0  0  0  0  0  0  0  0  0  0  0
   49.2293  -21.1425   29.4559 H   0  0  0  0  0  0  0  0  0  0  0  0
   48.0730  -19.4640   30.9950 H   0  0  0  0  0  0  0  0  0  0  0  0
   48.8200  -20.2380   32.2580 H   0  0  0  0  0  0  0  0  0  0  0  0
   49.7240  -19.5480   31.0580 H   0  0  0  0  0  0  0  0  0  0  0  0
   47.0231  -22.2825   32.4336 H   0  0  0  0  0  0  0  0  0  0  0  0
   46.8006  -20.5554   31.9346 H   0  0  0  0  0  0  0  0  0  0  0  0
   44.9819  -22.8784   31.1662 H   0  0  0  0  0  0  0  0  0  0  0  0
   44.6631  -21.6310   32.4509 H   0  0  0  0  0  0  0  0  0  0  0  0
   37.1329  -18.5398   28.8297 H   0  0  0  0  0  0  0  0  0  0  0  0
   35.3698  -16.8448   29.4370 H   0  0  0  0  0  0  0  0  0  0  0  0
  1  2  1  0
  2  3  2  0
  3  4  1  0
  4  5  1  0
  5  6  2  0
  6  7  1  0
  7  8  1  0
  8  9  1  0
  9 10  1  0
 10 11  1  0
 11 12  1  0
 12 13  1  0
 13 14  2  0
 14 15  1  0
 15 16  2  0
 16 17  1  0
 17 18  2  0
 11 19  1  0
 19 20  1  0
 20 21  2  0
 20 22  1  0
 22 23  1  0
 23 24  1  0
 24 25  1  0
 25 26  1  0
 26 27  1  0
 25 28  1  0
 28 29  1  0
 10 30  2  0
 30 31  1  0
 31 32  1  0
  7 33  2  0
 33 34  1  0
 34 35  2  0
 35  2  1  0
 35  5  1  0
 31  8  2  0
 18 13  1  0
 29 22  1  0
  1 36  1  0
  1 37  1  0
  3 38  1  0
  4 39  1  0
  6 40  1  0
  9 41  1  0
 11 42  1  6
 12 43  1  0
 12 44  1  0
 14 45  1  0
 15 46  1  0
 16 47  1  0
 17 48  1  0
 18 49  1  0
 19 50  1  0
 22 51  1  6
 23 52  1  0
 23 53  1  0
 24 54  1  0
 24 55  1  0
 25 56  1  1
 26 57  1  0
 26 58  1  0
 27 59  1  0
 27 60  1  0
 27 61  1  0
 28 62  1  0
 28 63  1  0
 29 64  1  0
 29 65  1  0
 33 66  1  0
 34 67  1  0
M  CHG  2   3   1  27   1
M  END
>  <meeko>  (6) 
{"is_sidechain": [false], "free_energy": -9.143, "intermolecular_energy": -13.744, "internal_energy": -1.007}

$$$$
4ty7_ligand
     RDKit          3D

 67 71  0  0  0  0  0  0  0  0999 V2000
   34.2380  -13.7930   29.7210 N   0  0  0  0  0  0  0  0  0  0  0  0
   35.3620  -13.7500   28.9360 C   0  0  0  0  0  0  0  0  0  0  0  0
   35.8880  -12.5860   28.3490 N   0  0  0  0  0  0  0  0  0  0  0  0
   37.1190  -12.9810   27.5720 N   0  0  0  0  0  0  0  0  0  0  0  0
   37.2770  -14.3660   27.7240 C   0  0  0  0  0  0  0  0  0  0  0  0
   38.2370  -15.2270   27.2160 C   0  0  0  0  0  0  0  0  0  0  0  0
   38.1360  -16.5950   27.5320 C   0  0  0  0  0  0  0  0  0  0  0  0
   39.1260  -17.5260   26.9870 C   0  0  0  0  0  0  0  0  0  0  0  0
   39.5310  -18.6760   27.6300 N   0  0  0  0  0  0  0  0  0  0  0  0
   40.4970  -19.2860   26.8680 C   0  0  0  0  0  0  0  0  0  0  0  0
   41.1850  -20.5570   27.2940 C   0  0  2  0  0  0  0  0  0  0  0  0
   42.7220  -20.4600   27.1920 C   0  0  0  0  0  0  0  0  0  0  0  0
   43.4850  -20.6470   28.4850 C   0  0  0  0  0  0  0  0  0  0  0  0
   42.9220  -21.3470   29.5610 C   0  0  0  0  0  0  0  0  0  0  0  0
   43.6290  -21.4980   30.7540 C   0  0  0  0  0  0  0  0  0  0  0  0
   44.9060  -20.9570   30.8860 C   0  0  0  0  0  0  0  0  0  0  0  0
   45.4790  -20.2630   29.8220 C   0  0  0  0  0  0  0  0  0  0  0  0
   44.7720  -20.1070   28.6290 C   0  0  0  0  0  0  0  0  0  0  0  0
   40.6470  -21.6360   26.4800 N   0  0  0  0  0  0  0  0  0  0  0  0
   39.3520  -22.0730   26.6170 C   0  0  0  0  0  0  0  0  0  0  0  0
   38.6300  -21.7550   27.5570 O   0  0  0  0  0  0  0  0  0  0  0  0
   38.9140  -23.0350   25.5090 C   0  0  2  0  0  0  0  0  0  0  0  0
   37.9730  -22.3530   24.5000 C   0  0  0  0  0  0  0  0  0  0  0  0
   36.5080  -22.4190   24.9290 C   0  0  0  0  0  0  0  0  0  0  0  0
   36.0020  -23.8610   25.1480 C   0  0  1  0  0  0  0  0  0  0  0  0
   35.0340  -24.3300   24.0540 C   0  0  0  0  0  0  0  0  0  0  0  0
   34.6500  -25.7470   24.2660 N   0  0  0  0  0  0  0  0  0  0  0  0
   37.1610  -24.8660   25.2760 C   0  0  0  0  0  0  0  0  0  0  0  0
   38.2970  -24.3030   26.1230 C   0  0  0  0  0  0  0  0  0  0  0  0
   40.6980  -18.6110   25.7530 N   0  0  0  0  0  0  0  0  0  0  0  0
   39.8610  -17.5260   25.8110 C   0  0  0  0  0  0  0  0  0  0  0  0
   39.7960  -16.3860   24.5470 Cl  0  0  0  0  0  0  0  0  0  0  0  0
   37.0920  -17.0930   28.3570 C   0  0  0  0  0  0  0  0  0  0  0  0
   36.0900  -16.2780   28.9120 C   0  0  0  0  0  0  0  0  0  0  0  0
   36.1900  -14.9110   28.5840 C   0  0  0  0  0  0  0  0  0  0  0  0
   33.7020  -12.9960   30.0580 H   0  0  0  0  0  0  0  0  0  0  0  0
   33.8070  -14.6650   30.0270 H   0  0  0  0  0  0  0  0  0  0  0  0
   35.5160  -11.6410   28.4230 H   0  0  0  0  0  0  0  0  0  0  0  0
   37.7030  -12.3370   27.0380 H   0  0  0  0  0  0  0  0  0  0  0  0
   39.0550  -14.8518   26.5835 H   0  0  0  0  0  0  0  0  0  0  0  0
   39.1960  -19.0060   28.5260 H   0  0  0  0  0  0  0  0  0  0  0  0
   40.9865  -20.7500   28.3586 H   0  0  0  0  0  0  0  0  0  0  0  0
   43.0619  -21.2319   26.4858 H   0  0  0  0  0  0  0  0  0  0  0  0
   42.9336  -19.4301   26.8688 H   0  0  0  0  0  0  0  0  0  0  0  0
   41.9156  -21.7803   29.4640 H   0  0  0  0  0  0  0  0  0  0  0  0
   43.1766  -22.0462   31.5935 H   0  0  0  0  0  0  0  0  0  0  0  0
   45.4609  -21.0774   31.8281 H   0  0  0  0  0  0  0  0  0  0  0  0
   46.4886  -19.8381   29.9225 H   0  0  0  0  0  0  0  0  0  0  0  0
   45.2280  -19.5555   27.7936 H   0  0  0  0  0  0  0  0  0  0  0  0
   41.0600  -21.6920   25.5530 H   0  0  0  0  0  0  0  0  0  0  0  0
   39.8036  -23.3373   24.9370 H   0  0  0  0  0  0  0  0  0  0  0  0
   38.2650  -21.2969   24.4034 H   0  0  0  0  0  0  0  0  0  0  0  0
   38.0654  -22.8873   23.5429 H   0  0  0  0  0  0  0  0  0  0  0  0
   36.3942  -21.8619   25.8706 H   0  0  0  0  0  0  0  0  0  0  0  0
   35.9096  -21.9829   24.1155 H   0  0  0  0  0  0  0  0  0  0  0  0
   35.4484  -23.8308   26.0981 H   0  0  0  0  0  0  0  0  0  0  0  0
   34.1302  -23.7034   24.0786 H   0  0  0  0  0  0  0  0  0  0  0  0
   35.5335  -24.2412   23.0780 H   0  0  0  0  0  0  0  0  0  0  0  0
   33.8920  -25.8360   24.9570 H   0  0  0  0  0  0  0  0  0  0  0  0
   34.3350  -26.2050   23.4010 H   0  0  0  0  0  0  0  0  0  0  0  0
   35.4460  -26.2940   24.6220 H   0  0  0  0  0  0  0  0  0  0  0  0
   36.7858  -25.7864   25.7473 H   0  0  0  0  0  0  0  0  0  0  0  0
   37.5512  -25.0733   24.2687 H   0  0  0  0  0  0  0  0  0  0  0  0
   37.9051  -24.0574   27.1211 H   0  0  0  0  0  0  0  0  0  0  0  0
   39.0860  -25.0676   26.1764 H   0  0  0  0  0  0  0  0  0  0  0  0
   37.0664  -18.1714   28.5725 H   0  0  0  0  0  0  0  0  0  0  0  0
   35.2897  -16.6765   29.5528 H   0  0  0  0  0  0  0  0  0  0  0  0
  1  2  1  0
  2  3  2  0
  3  4  1  0
  4  5  1  0
  5  6  2  0
  6  7  1  0
  7  8  1  0
  8  9  1  0
  9 10  1  0
 10 11  1  0
 11 12  1  0
 12 13  1  0
 13 14  2  0
 14 15  1  0
 15 16  2  0
 16 17  1  0
 17 18  2  0
 11 19  1  0
 19 20  1  0
 20 21  2  0
 20 22  1  0
 22 23  1  0
 23 24  1  0
 24 25  1  0
 25 26  1  0
 26 27  1  0
 25 28  1  0
 28 29  1  0
 10 30  2  0
 30 31  1  0
 31 32  1  0
  7 33  2  0
 33 34  1  0
 34 35  2  0
 35  2  1  0
 35  5  1  0
 31  8  2  0
 18 13  1  0
 29 22  1  0
  1 36  1  0
  1 37  1  0
  3 38  1  0
  4 39  1  0
  6 40  1  0
  9 41  1  0
 11 42  1  1
 12 43  1  0
 12 44  1  0
 14 45  1  0
 15 46  1  0
 16 47  1  0
 17 48  1  0
 18 49  1  0
 19 50  1  0
 22 51  1  1
 23 52  1  0
 23 53  1  0
 24 54  1  0
 24 55  1  0
 25 56  1  6
 26 57  1  0
 26 58  1  0
 27 59  1  0
 27 60  1  0
 27 61  1  0
 28 62  1  0
 28 63  1  0
 29 64  1  0
 29 65  1  0
 33 66  1  0
 34 67  1  0
M  CHG  2   3   1  27   1
M  END
>  <meeko>  (7) 
{"is_sidechain": [false], "free_energy": -8.968, "intermolecular_energy": -13.398, "internal_energy": -1.096}

$$$$
4ty7_ligand
     RDKit          3D

 67 71  0  0  0  0  0  0  0  0999 V2000
   36.2150  -12.5100   27.8470 N   0  0  0  0  0  0  0  0  0  0  0  0
   36.0210  -13.7930   28.2920 C   0  0  0  0  0  0  0  0  0  0  0  0
   34.8910  -14.2350   29.0010 N   0  0  0  0  0  0  0  0  0  0  0  0
   35.0800  -15.7020   29.2960 N   0  0  0  0  0  0  0  0  0  0  0  0
   36.3170  -16.0760   28.7530 C   0  0  0  0  0  0  0  0  0  0  0  0
   36.9680  -17.3000   28.7490 C   0  0  0  0  0  0  0  0  0  0  0  0
   38.2280  -17.3790   28.1260 C   0  0  0  0  0  0  0  0  0  0  0  0
   38.9450  -18.6560   28.1310 C   0  0  0  0  0  0  0  0  0  0  0  0
   40.2410  -18.8050   28.5780 N   0  0  0  0  0  0  0  0  0  0  0  0
   40.6170  -20.1130   28.3980 C   0  0  0  0  0  0  0  0  0  0  0  0
   41.9920  -20.6180   28.7520 C   0  0  2  0  0  0  0  0  0  0  0  0
   43.0280  -20.3360   27.6430 C   0  0  0  0  0  0  0  0  0  0  0  0
   44.4430  -20.7950   27.9260 C   0  0  0  0  0  0  0  0  0  0  0  0
   45.0850  -21.7160   27.0880 C   0  0  0  0  0  0  0  0  0  0  0  0
   46.3830  -22.1440   27.3700 C   0  0  0  0  0  0  0  0  0  0  0  0
   47.0550  -21.6540   28.4870 C   0  0  0  0  0  0  0  0  0  0  0  0
   46.4300  -20.7340   29.3260 C   0  0  0  0  0  0  0  0  0  0  0  0
   45.1300  -20.3080   29.0490 C   0  0  0  0  0  0  0  0  0  0  0  0
   41.8720  -22.0380   29.0430 N   0  0  0  0  0  0  0  0  0  0  0  0
   42.3540  -22.5850   30.2080 C   0  0  0  0  0  0  0  0  0  0  0  0
   43.0990  -21.9830   30.9750 O   0  0  0  0  0  0  0  0  0  0  0  0
   41.9100  -24.0330   30.4300 C   0  0  2  0  0  0  0  0  0  0  0  0
   42.8690  -25.0330   29.7630 C   0  0  0  0  0  0  0  0  0  0  0  0
   42.5090  -25.3050   28.3030 C   0  0  0  0  0  0  0  0  0  0  0  0
   41.0710  -25.8350   28.1190 C   0  0  1  0  0  0  0  0  0  0  0  0
   41.0230  -27.3210   27.7380 C   0  0  0  0  0  0  0  0  0  0  0  0
   40.3180  -28.1070   28.7800 N   0  0  0  0  0  0  0  0  0  0  0  0
   40.2040  -25.5960   29.3680 C   0  0  0  0  0  0  0  0  0  0  0  0
   40.4550  -24.2160   29.9660 C   0  0  0  0  0  0  0  0  0  0  0  0
   39.6180  -20.8160   27.9020 N   0  0  0  0  0  0  0  0  0  0  0  0
   38.5820  -19.9330   27.7330 C   0  0  0  0  0  0  0  0  0  0  0  0
   37.0760  -20.4400   27.1170 Cl  0  0  0  0  0  0  0  0  0  0  0  0
   38.8230  -16.2480   27.5050 C   0  0  0  0  0  0  0  0  0  0  0  0
   38.2180  -14.9810   27.4660 C   0  0  0  0  0  0  0  0  0  0  0  0
   36.9620  -14.9050   28.0990 C   0  0  0  0  0  0  0  0  0  0  0  0
   35.5280  -11.9160   27.3870 H   0  0  0  0  0  0  0  0  0  0  0  0
   37.0950  -12.0070   27.9660 H   0  0  0  0  0  0  0  0  0  0  0  0
   34.0840  -13.6780   29.2760 H   0  0  0  0  0  0  0  0  0  0  0  0
   34.4150  -16.2850   29.8060 H   0  0  0  0  0  0  0  0  0  0  0  0
   36.5130  -18.1842   29.2192 H   0  0  0  0  0  0  0  0  0  0  0  0
   40.8290  -18.0720   28.9510 H   0  0  0  0  0  0  0  0  0  0  0  0
   42.3711  -20.0811   29.6341 H   0  0  0  0  0  0  0  0  0  0  0  0
   42.6869  -20.8410   26.7272 H   0  0  0  0  0  0  0  0  0  0  0  0
   43.0822  -19.2406   27.5586 H   0  0  0  0  0  0  0  0  0  0  0  0
   44.5623  -22.1045   26.2015 H   0  0  0  0  0  0  0  0  0  0  0  0
   46.8768  -22.8706   26.7080 H   0  0  0  0  0  0  0  0  0  0  0  0
   48.0782  -21.9930   28.7066 H   0  0  0  0  0  0  0  0  0  0  0  0
   46.9610  -20.3434   30.2066 H   0  0  0  0  0  0  0  0  0  0  0  0
   44.6396  -19.5843   29.7166 H   0  0  0  0  0  0  0  0  0  0  0  0
   41.0470  -22.4700   28.6340 H   0  0  0  0  0  0  0  0  0  0  0  0
   41.9495  -24.2493   31.5078 H   0  0  0  0  0  0  0  0  0  0  0  0
   43.8894  -24.6243   29.8044 H   0  0  0  0  0  0  0  0  0  0  0  0
   42.7918  -25.9848   30.3090 H   0  0  0  0  0  0  0  0  0  0  0  0
   42.6108  -24.3671   27.7374 H   0  0  0  0  0  0  0  0  0  0  0  0
   43.1936  -26.0847   27.9377 H   0  0  0  0  0  0  0  0  0  0  0  0
   40.6565  -25.2575   27.2796 H   0  0  0  0  0  0  0  0  0  0  0  0
   40.4917  -27.4315   26.7812 H   0  0  0  0  0  0  0  0  0  0  0  0
   42.0530  -27.6965   27.6482 H   0  0  0  0  0  0  0  0  0  0  0  0
   39.7680  -28.8740   28.3710 H   0  0  0  0  0  0  0  0  0  0  0  0
   40.9630  -28.5210   29.4660 H   0  0  0  0  0  0  0  0  0  0  0  0
   39.6620  -27.5140   29.3060 H   0  0  0  0  0  0  0  0  0  0  0  0
   39.1434  -25.6767   29.0878 H   0  0  0  0  0  0  0  0  0  0  0  0
   40.4682  -26.3523   30.1218 H   0  0  0  0  0  0  0  0  0  0  0  0
   40.2287  -23.4548   29.2048 H   0  0  0  0  0  0  0  0  0  0  0  0
   39.8062  -24.1100   30.8479 H   0  0  0  0  0  0  0  0  0  0  0  0
   39.8078  -16.3709   27.0305 H   0  0  0  0  0  0  0  0  0  0  0  0
   38.6889  -14.1146   26.9785 H   0  0  0  0  0  0  0  0  0  0  0  0
  1  2  1  0
  2  3  2  0
  3  4  1  0
  4  5  1  0
  5  6  2  0
  6  7  1  0
  7  8  1  0
  8  9  1  0
  9 10  1  0
 10 11  1  0
 11 12  1  0
 12 13  1  0
 13 14  2  0
 14 15  1  0
 15 16  2  0
 16 17  1  0
 17 18  2  0
 11 19  1  0
 19 20  1  0
 20 21  2  0
 20 22  1  0
 22 23  1  0
 23 24  1  0
 24 25  1  0
 25 26  1  0
 26 27  1  0
 25 28  1  0
 28 29  1  0
 10 30  2  0
 30 31  1  0
 31 32  1  0
  7 33  2  0
 33 34  1  0
 34 35  2  0
 35  2  1  0
 35  5  1  0
 31  8  2  0
 18 13  1  0
 29 22  1  0
  1 36  1  0
  1 37  1  0
  3 38  1  0
  4 39  1  0
  6 40  1  0
  9 41  1  0
 11 42  1  1
 12 43  1  0
 12 44  1  0
 14 45  1  0
 15 46  1  0
 16 47  1  0
 17 48  1  0
 18 49  1  0
 19 50  1  0
 22 51  1  6
 23 52  1  0
 23 53  1  0
 24 54  1  0
 24 55  1  0
 25 56  1  1
 26 57  1  0
 26 58  1  0
 27 59  1  0
 27 60  1  0
 27 61  1  0
 28 62  1  0
 28 63  1  0
 29 64  1  0
 29 65  1  0
 33 66  1  0
 34 67  1  0
M  CHG  2   3   1  27   1
M  END
>  <meeko>  (8) 
{"is_sidechain": [false], "free_energy": -8.943, "intermolecular_energy": -13.064, "internal_energy": -1.393}

$$$$
4ty7_ligand
     RDKit          3D

 67 71  0  0  0  0  0  0  0  0999 V2000
   35.6590  -12.9920   29.0420 N   0  0  0  0  0  0  0  0  0  0  0  0
   36.2670  -13.7470   28.0720 C   0  0  0  0  0  0  0  0  0  0  0  0
   36.6540  -13.2710   26.8070 N   0  0  0  0  0  0  0  0  0  0  0  0
   37.2810  -14.4200   26.0580 N   0  0  0  0  0  0  0  0  0  0  0  0
   37.2410  -15.5360   26.9040 C   0  0  0  0  0  0  0  0  0  0  0  0
   37.6770  -16.8370   26.7050 C   0  0  0  0  0  0  0  0  0  0  0  0
   37.4950  -17.7660   27.7470 C   0  0  0  0  0  0  0  0  0  0  0  0
   37.9260  -19.1510   27.5500 C   0  0  0  0  0  0  0  0  0  0  0  0
   37.3830  -19.9940   26.6040 N   0  0  0  0  0  0  0  0  0  0  0  0
   37.9810  -21.2240   26.7200 C   0  0  0  0  0  0  0  0  0  0  0  0
   37.5980  -22.3980   25.8570 C   0  0  2  0  0  0  0  0  0  0  0  0
   38.4020  -23.6700   26.1990 C   0  0  0  0  0  0  0  0  0  0  0  0
   38.0430  -24.9130   25.4130 C   0  0  0  0  0  0  0  0  0  0  0  0
   39.0370  -25.7460   24.8830 C   0  0  0  0  0  0  0  0  0  0  0  0
   38.6930  -26.8790   24.1460 C   0  0  0  0  0  0  0  0  0  0  0  0
   37.3530  -27.1960   23.9330 C   0  0  0  0  0  0  0  0  0  0  0  0
   36.3540  -26.3790   24.4580 C   0  0  0  0  0  0  0  0  0  0  0  0
   36.6970  -25.2420   25.1920 C   0  0  0  0  0  0  0  0  0  0  0  0
   37.7740  -21.9930   24.4710 N   0  0  0  0  0  0  0  0  0  0  0  0
   36.7620  -21.4050   23.7520 C   0  0  0  0  0  0  0  0  0  0  0  0
   35.5960  -21.3730   24.1330 O   0  0  0  0  0  0  0  0  0  0  0  0
   37.2220  -20.8340   22.4080 C   0  0  2  0  0  0  0  0  0  0  0  0
   37.6290  -19.3550   22.5250 C   0  0  0  0  0  0  0  0  0  0  0  0
   36.4450  -18.4060   22.3510 C   0  0  0  0  0  0  0  0  0  0  0  0
   35.7100  -18.5890   21.0060 C   0  0  1  0  0  0  0  0  0  0  0  0
   35.9530  -17.4340   20.0270 C   0  0  0  0  0  0  0  0  0  0  0  0
   36.8590  -16.4220   20.6250 N   0  0  0  0  0  0  0  0  0  0  0  0
   36.0710  -19.9230   20.3280 C   0  0  0  0  0  0  0  0  0  0  0  0
   36.1390  -21.0630   21.3390 C   0  0  0  0  0  0  0  0  0  0  0  0
   38.9070  -21.1990   27.6590 N   0  0  0  0  0  0  0  0  0  0  0  0
   38.8850  -19.9300   28.1780 C   0  0  0  0  0  0  0  0  0  0  0  0
   39.9490  -19.4620   29.4240 Cl  0  0  0  0  0  0  0  0  0  0  0  0
   36.8920  -17.3920   28.9790 C   0  0  0  0  0  0  0  0  0  0  0  0
   36.4340  -16.0930   29.2520 C   0  0  0  0  0  0  0  0  0  0  0  0
   36.6100  -15.1700   28.2020 C   0  0  0  0  0  0  0  0  0  0  0  0
   35.2110  -12.0860   28.9150 H   0  0  0  0  0  0  0  0  0  0  0  0
   35.5750  -13.2960   30.0120 H   0  0  0  0  0  0  0  0  0  0  0  0
   36.5350  -12.3260   26.4470 H   0  0  0  0  0  0  0  0  0  0  0  0
   37.6480  -14.3650   25.1070 H   0  0  0  0  0  0  0  0  0  0  0  0
   38.1521  -17.1352   25.7588 H   0  0  0  0  0  0  0  0  0  0  0  0
   36.6480  -19.7590   25.9500 H   0  0  0  0  0  0  0  0  0  0  0  0
   36.5487  -22.6713   26.0424 H   0  0  0  0  0  0  0  0  0  0  0  0
   39.4657  -23.4541   26.0201 H   0  0  0  0  0  0  0  0  0  0  0  0
   38.1598  -23.9013   27.2468 H   0  0  0  0  0  0  0  0  0  0  0  0
   40.0972  -25.5045   25.0495 H   0  0  0  0  0  0  0  0  0  0  0  0
   39.4818  -27.5241   23.7317 H   0  0  0  0  0  0  0  0  0  0  0  0
   37.0843  -28.0900   23.3512 H   0  0  0  0  0  0  0  0  0  0  0  0
   35.2955  -26.6297   24.2943 H   0  0  0  0  0  0  0  0  0  0  0  0
   35.9045  -24.5980   25.6009 H   0  0  0  0  0  0  0  0  0  0  0  0
   38.7250  -21.7180   24.2440 H   0  0  0  0  0  0  0  0  0  0  0  0
   38.1274  -21.3721   22.0907 H   0  0  0  0  0  0  0  0  0  0  0  0
   38.0713  -19.1885   23.5183 H   0  0  0  0  0  0  0  0  0  0  0  0
   38.3484  -19.1421   21.7206 H   0  0  0  0  0  0  0  0  0  0  0  0
   35.7299  -18.5862   23.1672 H   0  0  0  0  0  0  0  0  0  0  0  0
   36.8432  -17.3808   22.3684 H   0  0  0  0  0  0  0  0  0  0  0  0
   34.6401  -18.5953   21.2615 H   0  0  0  0  0  0  0  0  0  0  0  0
   36.4099  -17.8296   19.1079 H   0  0  0  0  0  0  0  0  0  0  0  0
   34.9894  -16.9552   19.7984 H   0  0  0  0  0  0  0  0  0  0  0  0
   37.8260  -16.7690   20.6910 H   0  0  0  0  0  0  0  0  0  0  0  0
   36.8820  -15.5450   20.0880 H   0  0  0  0  0  0  0  0  0  0  0  0
   36.5610  -16.1820   21.5800 H   0  0  0  0  0  0  0  0  0  0  0  0
   35.3060  -20.1592   19.5737 H   0  0  0  0  0  0  0  0  0  0  0  0
   37.0612  -19.8161   19.8610 H   0  0  0  0  0  0  0  0  0  0  0  0
   35.1628  -21.1514   21.8382 H   0  0  0  0  0  0  0  0  0  0  0  0
   36.3962  -21.9820   20.7920 H   0  0  0  0  0  0  0  0  0  0  0  0
   36.7784  -18.1598   29.7585 H   0  0  0  0  0  0  0  0  0  0  0  0
   35.9732  -15.8171   30.2120 H   0  0  0  0  0  0  0  0  0  0  0  0
  1  2  1  0
  2  3  2  0
  3  4  1  0
  4  5  1  0
  5  6  2  0
  6  7  1  0
  7  8  1  0
  8  9  1  0
  9 10  1  0
 10 11  1  0
 11 12  1  0
 12 13  1  0
 13 14  2  0
 14 15  1  0
 15 16  2  0
 16 17  1  0
 17 18  2  0
 11 19  1  0
 19 20  1  0
 20 21  2  0
 20 22  1  0
 22 23  1  0
 23 24  1  0
 24 25  1  0
 25 26  1  0
 26 27  1  0
 25 28  1  0
 28 29  1  0
 10 30  2  0
 30 31  1  0
 31 32  1  0
  7 33  2  0
 33 34  1  0
 34 35  2  0
 35  2  1  0
 35  5  1  0
 31  8  2  0
 18 13  1  0
 29 22  1  0
  1 36  1  0
  1 37  1  0
  3 38  1  0
  4 39  1  0
  6 40  1  0
  9 41  1  0
 11 42  1  6
 12 43  1  0
 12 44  1  0
 14 45  1  0
 15 46  1  0
 16 47  1  0
 17 48  1  0
 18 49  1  0
 19 50  1  0
 22 51  1  1
 23 52  1  0
 23 53  1  0
 24 54  1  0
 24 55  1  0
 25 56  1  6
 26 57  1  0
 26 58  1  0
 27 59  1  0
 27 60  1  0
 27 61  1  0
 28 62  1  0
 28 63  1  0
 29 64  1  0
 29 65  1  0
 33 66  1  0
 34 67  1  0
M  CHG  2   3   1  27   1
M  END
>  <meeko>  (9) 
{"is_sidechain": [false], "free_energy": -8.883, "intermolecular_energy": -12.877, "internal_energy": -1.492}

$$$$
