3uew_ligand
     RDKit          3D

 49 48  0  0  0  0  0  0  0  0999 V2000
   -3.3190    2.4660   53.8900 C   0  0  0  0  0  0  0  0  0  0  0  0
   -4.7840    2.1870   54.1890 C   0  0  0  0  0  0  0  0  0  0  0  0
   -5.3350    3.0100   55.3560 C   0  0  0  0  0  0  0  0  0  0  0  0
   -4.7870    4.4370   55.4000 C   0  0  0  0  0  0  0  0  0  0  0  0
   -5.5490    5.4280   54.5130 C   0  0  0  0  0  0  0  0  0  0  0  0
   -5.4350    6.8940   54.9510 C   0  0  0  0  0  0  0  0  0  0  0  0
   -6.7570    7.6580   54.8180 C   0  0  0  0  0  0  0  0  0  0  0  0
   -7.9830    6.7420   54.7550 C   0  0  0  0  0  0  0  0  0  0  0  0
   -9.1750    7.2610   55.5620 C   0  0  0  0  0  0  0  0  0  0  0  0
   -8.7630    8.4190   56.4760 C   0  0  0  0  0  0  0  0  0  0  0  0
   -9.7170    9.6070   56.3300 C   0  0  0  0  0  0  0  0  0  0  0  0
  -11.0470    9.2440   55.6590 C   0  0  0  0  0  0  0  0  0  0  0  0
  -12.2570    9.9150   56.3130 C   0  0  0  0  0  0  0  0  0  0  0  0
  -11.9830   11.3330   56.8280 C   0  0  0  0  0  0  0  0  0  0  0  0
  -13.2360   12.1860   57.0220 C   0  0  0  0  0  0  0  0  0  0  0  0
  -13.3040   13.0630   58.2770 C   0  0  0  0  0  0  0  0  0  0  0  0
  -14.4770   13.3850   58.6230 O   0  0  0  0  0  0  0  0  0  0  0  0
  -12.2010   13.3700   58.8050 O   0  0  0  0  0  0  0  0  0  0  0  0
   -2.7656    2.5714   54.8348 H   0  0  0  0  0  0  0  0  0  0  0  0
   -2.8979    1.6319   53.3095 H   0  0  0  0  0  0  0  0  0  0  0  0
   -3.2340    3.3965   53.3095 H   0  0  0  0  0  0  0  0  0  0  0  0
   -5.3735    2.4193   53.2898 H   0  0  0  0  0  0  0  0  0  0  0  0
   -4.8604    1.1276   54.4749 H   0  0  0  0  0  0  0  0  0  0  0  0
   -6.4299    3.0589   55.2628 H   0  0  0  0  0  0  0  0  0  0  0  0
   -5.0207    2.5109   56.2845 H   0  0  0  0  0  0  0  0  0  0  0  0
   -4.8371    4.7943   56.4391 H   0  0  0  0  0  0  0  0  0  0  0  0
   -3.7576    4.3933   55.0148 H   0  0  0  0  0  0  0  0  0  0  0  0
   -5.1564    5.3442   53.4889 H   0  0  0  0  0  0  0  0  0  0  0  0
   -6.6134    5.1611   54.5897 H   0  0  0  0  0  0  0  0  0  0  0  0
   -5.1169    6.9226   56.0036 H   0  0  0  0  0  0  0  0  0  0  0  0
   -4.7029    7.3812   54.2901 H   0  0  0  0  0  0  0  0  0  0  0  0
   -6.8637    8.3248   55.6864 H   0  0  0  0  0  0  0  0  0  0  0  0
   -6.7174    8.2146   53.8701 H   0  0  0  0  0  0  0  0  0  0  0  0
   -8.2907    6.6440   53.7035 H   0  0  0  0  0  0  0  0  0  0  0  0
   -7.6894    5.7778   55.1955 H   0  0  0  0  0  0  0  0  0  0  0  0
   -9.9531    7.6112   54.8678 H   0  0  0  0  0  0  0  0  0  0  0  0
   -9.5550    6.4408   56.1887 H   0  0  0  0  0  0  0  0  0  0  0  0
   -8.7770    8.0740   57.5204 H   0  0  0  0  0  0  0  0  0  0  0  0
   -7.7529    8.7465   56.1888 H   0  0  0  0  0  0  0  0  0  0  0  0
   -9.9304   10.0075   57.3320 H   0  0  0  0  0  0  0  0  0  0  0  0
   -9.2190   10.3446   55.6835 H   0  0  0  0  0  0  0  0  0  0  0  0
  -11.0026    9.5549   54.6048 H   0  0  0  0  0  0  0  0  0  0  0  0
  -11.1799    8.1572   55.7650 H   0  0  0  0  0  0  0  0  0  0  0  0
  -13.0665    9.9675   55.5701 H   0  0  0  0  0  0  0  0  0  0  0  0
  -12.5236    9.3051   57.1887 H   0  0  0  0  0  0  0  0  0  0  0  0
  -11.4671   11.2539   57.7963 H   0  0  0  0  0  0  0  0  0  0  0  0
  -11.3768   11.8350   56.0596 H   0  0  0  0  0  0  0  0  0  0  0  0
  -13.3210   12.8508   56.1498 H   0  0  0  0  0  0  0  0  0  0  0  0
  -14.0547   11.4609   57.1404 H   0  0  0  0  0  0  0  0  0  0  0  0
  1  2  1  0
  2  3  1  0
  3  4  1  0
  4  5  1  0
  5  6  1  0
  6  7  1  0
  7  8  1  0
  8  9  1  0
  9 10  1  0
 10 11  1  0
 11 12  1  0
 12 13  1  0
 13 14  1  0
 14 15  1  0
 15 16  1  0
 16 17  2  0
 16 18  1  0
  1 19  1  0
  1 20  1  0
  1 21  1  0
  2 22  1  0
  2 23  1  0
  3 24  1  0
  3 25  1  0
  4 26  1  0
  4 27  1  0
  5 28  1  0
  5 29  1  0
  6 30  1  0
  6 31  1  0
  7 32  1  0
  7 33  1  0
  8 34  1  0
  8 35  1  0
  9 36  1  0
  9 37  1  0
 10 38  1  0
 10 39  1  0
 11 40  1  0
 11 41  1  0
 12 42  1  0
 12 43  1  0
 13 44  1  0
 13 45  1  0
 14 46  1  0
 14 47  1  0
 15 48  1  0
 15 49  1  0
M  CHG  1  18  -1
M  END
>  <meeko>  (1) 
{"is_sidechain": [false], "free_energy": -6.455, "intermolecular_energy": -11.738, "internal_energy": -0.838}

$$$$
3uew_ligand
     RDKit          3D

 49 48  0  0  0  0  0  0  0  0999 V2000
  -14.0660   13.1400   58.4330 C   0  0  0  0  0  0  0  0  0  0  0  0
  -13.3940   12.8300   57.1040 C   0  0  0  0  0  0  0  0  0  0  0  0
  -12.2830   11.7810   57.2120 C   0  0  0  0  0  0  0  0  0  0  0  0
  -12.5590   10.5240   56.3870 C   0  0  0  0  0  0  0  0  0  0  0  0
  -11.3110    9.6840   56.0890 C   0  0  0  0  0  0  0  0  0  0  0  0
   -9.9980   10.2910   56.5990 C   0  0  0  0  0  0  0  0  0  0  0  0
   -8.7630    9.5140   56.1320 C   0  0  0  0  0  0  0  0  0  0  0  0
   -9.0560    8.5430   54.9830 C   0  0  0  0  0  0  0  0  0  0  0  0
   -9.0190    7.0720   55.4030 C   0  0  0  0  0  0  0  0  0  0  0  0
   -8.0020    6.2840   54.5720 C   0  0  0  0  0  0  0  0  0  0  0  0
   -6.5910    6.8520   54.7390 C   0  0  0  0  0  0  0  0  0  0  0  0
   -5.4840    5.8120   54.5270 C   0  0  0  0  0  0  0  0  0  0  0  0
   -5.9130    4.3890   54.8880 C   0  0  0  0  0  0  0  0  0  0  0  0
   -4.7450    3.4260   55.1320 C   0  0  0  0  0  0  0  0  0  0  0  0
   -4.2090    2.7520   53.8690 C   0  0  0  0  0  0  0  0  0  0  0  0
   -2.7260    2.3710   53.8490 C   0  0  0  0  0  0  0  0  0  0  0  0
   -2.4890    1.1840   54.2140 O   0  0  0  0  0  0  0  0  0  0  0  0
   -1.9210    3.2740   53.4900 O   0  0  0  0  0  0  0  0  0  0  0  0
  -13.4052   12.8352   59.2579 H   0  0  0  0  0  0  0  0  0  0  0  0
  -14.2631   14.2200   58.5011 H   0  0  0  0  0  0  0  0  0  0  0  0
  -15.0156   12.5889   58.5011 H   0  0  0  0  0  0  0  0  0  0  0  0
  -14.1581   12.4575   56.4058 H   0  0  0  0  0  0  0  0  0  0  0  0
  -12.9267   13.7616   56.7522 H   0  0  0  0  0  0  0  0  0  0  0  0
  -11.3426   12.2304   56.8604 H   0  0  0  0  0  0  0  0  0  0  0  0
  -12.2253   11.4736   58.2666 H   0  0  0  0  0  0  0  0  0  0  0  0
  -13.2731    9.8971   56.9411 H   0  0  0  0  0  0  0  0  0  0  0  0
  -12.9532   10.8614   55.4171 H   0  0  0  0  0  0  0  0  0  0  0  0
  -11.4397    8.6985   56.5605 H   0  0  0  0  0  0  0  0  0  0  0  0
  -11.2253    9.6294   54.9937 H   0  0  0  0  0  0  0  0  0  0  0  0
   -9.9226   11.3248   56.2309 H   0  0  0  0  0  0  0  0  0  0  0  0
  -10.0191   10.2493   57.6980 H   0  0  0  0  0  0  0  0  0  0  0  0
   -8.0039   10.2351   55.7947 H   0  0  0  0  0  0  0  0  0  0  0  0
   -8.4143    8.9134   56.9850 H   0  0  0  0  0  0  0  0  0  0  0  0
  -10.0568    8.7664   54.5849 H   0  0  0  0  0  0  0  0  0  0  0  0
   -8.2666    8.6847   54.2302 H   0  0  0  0  0  0  0  0  0  0  0  0
   -8.7401    7.0091   56.4652 H   0  0  0  0  0  0  0  0  0  0  0  0
  -10.0158    6.6373   55.2372 H   0  0  0  0  0  0  0  0  0  0  0  0
   -8.0072    5.2341   54.9002 H   0  0  0  0  0  0  0  0  0  0  0  0
   -8.2848    6.3607   53.5117 H   0  0  0  0  0  0  0  0  0  0  0  0
   -6.4528    7.6617   54.0074 H   0  0  0  0  0  0  0  0  0  0  0  0
   -6.5062    7.2081   55.7763 H   0  0  0  0  0  0  0  0  0  0  0  0
   -5.1872    5.8290   53.4679 H   0  0  0  0  0  0  0  0  0  0  0  0
   -4.6525    6.0808   55.1951 H   0  0  0  0  0  0  0  0  0  0  0  0
   -6.5212    4.4333   55.8035 H   0  0  0  0  0  0  0  0  0  0  0  0
   -6.4719    3.9976   54.0252 H   0  0  0  0  0  0  0  0  0  0  0  0
   -3.9233    3.9919   55.5953 H   0  0  0  0  0  0  0  0  0  0  0  0
   -5.1295    2.6228   55.7779 H   0  0  0  0  0  0  0  0  0  0  0  0
   -4.7887    1.8298   53.7157 H   0  0  0  0  0  0  0  0  0  0  0  0
   -4.3155    3.5098   53.0788 H   0  0  0  0  0  0  0  0  0  0  0  0
  1  2  1  0
  2  3  1  0
  3  4  1  0
  4  5  1  0
  5  6  1  0
  6  7  1  0
  7  8  1  0
  8  9  1  0
  9 10  1  0
 10 11  1  0
 11 12  1  0
 12 13  1  0
 13 14  1  0
 14 15  1  0
 15 16  1  0
 16 17  2  0
 16 18  1  0
  1 19  1  0
  1 20  1  0
  1 21  1  0
  2 22  1  0
  2 23  1  0
  3 24  1  0
  3 25  1  0
  4 26  1  0
  4 27  1  0
  5 28  1  0
  5 29  1  0
  6 30  1  0
  6 31  1  0
  7 32  1  0
  7 33  1  0
  8 34  1  0
  8 35  1  0
  9 36  1  0
  9 37  1  0
 10 38  1  0
 10 39  1  0
 11 40  1  0
 11 41  1  0
 12 42  1  0
 12 43  1  0
 13 44  1  0
 13 45  1  0
 14 46  1  0
 14 47  1  0
 15 48  1  0
 15 49  1  0
M  CHG  1  18  -1
M  END
>  <meeko>  (2) 
{"is_sidechain": [false], "free_energy": -6.445, "intermolecular_energy": -11.946, "internal_energy": -0.611}

$$$$
3uew_ligand
     RDKit          3D

 49 48  0  0  0  0  0  0  0  0999 V2000
  -14.7610   13.9460   59.7240 C   0  0  0  0  0  0  0  0  0  0  0  0
  -14.5780   12.9400   58.5990 C   0  0  0  0  0  0  0  0  0  0  0  0
  -13.5720   13.3900   57.5350 C   0  0  0  0  0  0  0  0  0  0  0  0
  -12.2120   12.7050   57.6640 C   0  0  0  0  0  0  0  0  0  0  0  0
  -12.2890   11.1780   57.7850 C   0  0  0  0  0  0  0  0  0  0  0  0
  -12.2310   10.4290   56.4470 C   0  0  0  0  0  0  0  0  0  0  0  0
  -10.9460    9.6110   56.2790 C   0  0  0  0  0  0  0  0  0  0  0  0
   -9.6880   10.3590   56.7310 C   0  0  0  0  0  0  0  0  0  0  0  0
   -8.4080    9.8660   56.0530 C   0  0  0  0  0  0  0  0  0  0  0  0
   -8.3320    8.3360   56.0580 C   0  0  0  0  0  0  0  0  0  0  0  0
   -7.8230    7.8020   54.7170 C   0  0  0  0  0  0  0  0  0  0  0  0
   -7.6020    6.2850   54.7070 C   0  0  0  0  0  0  0  0  0  0  0  0
   -6.1280    5.8890   54.6180 C   0  0  0  0  0  0  0  0  0  0  0  0
   -5.1670    7.0770   54.4900 C   0  0  0  0  0  0  0  0  0  0  0  0
   -4.2720    7.2980   55.7090 C   0  0  0  0  0  0  0  0  0  0  0  0
   -3.3460    8.5190   55.6910 C   0  0  0  0  0  0  0  0  0  0  0  0
   -2.1140    8.2360   55.6450 O   0  0  0  0  0  0  0  0  0  0  0  0
   -3.9070    9.6480   55.7380 O   0  0  0  0  0  0  0  0  0  0  0  0
  -14.6678   13.4336   60.6929 H   0  0  0  0  0  0  0  0  0  0  0  0
  -13.9902   14.7269   59.6466 H   0  0  0  0  0  0  0  0  0  0  0  0
  -15.7575   14.4054   59.6466 H   0  0  0  0  0  0  0  0  0  0  0  0
  -14.2256   11.9926   59.0329 H   0  0  0  0  0  0  0  0  0  0  0  0
  -15.5519   12.8329   58.0989 H   0  0  0  0  0  0  0  0  0  0  0  0
  -13.9866   13.1599   56.5424 H   0  0  0  0  0  0  0  0  0  0  0  0
  -13.4091   14.4688   57.6749 H   0  0  0  0  0  0  0  0  0  0  0  0
  -11.6153   12.9513   56.7734 H   0  0  0  0  0  0  0  0  0  0  0  0
  -11.7578   13.0745   58.5952 H   0  0  0  0  0  0  0  0  0  0  0  0
  -11.4455   10.8397   58.4048 H   0  0  0  0  0  0  0  0  0  0  0  0
  -13.2689   10.9488   58.2291 H   0  0  0  0  0  0  0  0  0  0  0  0
  -13.0919    9.7468   56.3886 H   0  0  0  0  0  0  0  0  0  0  0  0
  -12.2514   11.1817   55.6452 H   0  0  0  0  0  0  0  0  0  0  0  0
  -11.0377    8.6906   56.8743 H   0  0  0  0  0  0  0  0  0  0  0  0
  -10.8318    9.4006   55.2054 H   0  0  0  0  0  0  0  0  0  0  0  0
   -9.8157   11.4267   56.4993 H   0  0  0  0  0  0  0  0  0  0  0  0
   -9.5734   10.1770   57.8098 H   0  0  0  0  0  0  0  0  0  0  0  0
   -8.3930   10.2225   55.0125 H   0  0  0  0  0  0  0  0  0  0  0  0
   -7.5451   10.2593   56.6104 H   0  0  0  0  0  0  0  0  0  0  0  0
   -7.6468    8.0135   56.8558 H   0  0  0  0  0  0  0  0  0  0  0  0
   -9.3429    7.9379   56.2300 H   0  0  0  0  0  0  0  0  0  0  0  0
   -8.5608    8.0515   53.9402 H   0  0  0  0  0  0  0  0  0  0  0  0
   -6.8462    8.2725   54.5311 H   0  0  0  0  0  0  0  0  0  0  0  0
   -8.0210    5.8651   55.6333 H   0  0  0  0  0  0  0  0  0  0  0  0
   -8.1004    5.8891   53.8098 H   0  0  0  0  0  0  0  0  0  0  0  0
   -5.8654    5.3287   55.5274 H   0  0  0  0  0  0  0  0  0  0  0  0
   -6.0153    5.2899   53.7024 H   0  0  0  0  0  0  0  0  0  0  0  0
   -4.5218    6.9052   53.6158 H   0  0  0  0  0  0  0  0  0  0  0  0
   -5.7914    7.9772   54.3911 H   0  0  0  0  0  0  0  0  0  0  0  0
   -4.9278    7.3939   56.5869 H   0  0  0  0  0  0  0  0  0  0  0  0
   -3.5949    6.4312   55.7221 H   0  0  0  0  0  0  0  0  0  0  0  0
  1  2  1  0
  2  3  1  0
  3  4  1  0
  4  5  1  0
  5  6  1  0
  6  7  1  0
  7  8  1  0
  8  9  1  0
  9 10  1  0
 10 11  1  0
 11 12  1  0
 12 13  1  0
 13 14  1  0
 14 15  1  0
 15 16  1  0
 16 17  2  0
 16 18  1  0
  1 19  1  0
  1 20  1  0
  1 21  1  0
  2 22  1  0
  2 23  1  0
  3 24  1  0
  3 25  1  0
  4 26  1  0
  4 27  1  0
  5 28  1  0
  5 29  1  0
  6 30  1  0
  6 31  1  0
  7 32  1  0
  7 33  1  0
  8 34  1  0
  8 35  1  0
  9 36  1  0
  9 37  1  0
 10 38  1  0
 10 39  1  0
 11 40  1  0
 11 41  1  0
 12 42  1  0
 12 43  1  0
 13 44  1  0
 13 45  1  0
 14 46  1  0
 14 47  1  0
 15 48  1  0
 15 49  1  0
M  CHG  1  18  -1
M  END
>  <meeko>  (3) 
{"is_sidechain": [false], "free_energy": -6.436, "intermolecular_energy": -11.756, "internal_energy": -0.786}

$$$$
3uew_ligand
     RDKit          3D

 49 48  0  0  0  0  0  0  0  0999 V2000
  -14.1620   13.2580   58.2690 C   0  0  0  0  0  0  0  0  0  0  0  0
  -12.9010   13.0020   57.4580 C   0  0  0  0  0  0  0  0  0  0  0  0
  -12.3800   11.5670   57.5770 C   0  0  0  0  0  0  0  0  0  0  0  0
  -12.6790   10.7130   56.3450 C   0  0  0  0  0  0  0  0  0  0  0  0
  -11.7110    9.5410   56.1450 C   0  0  0  0  0  0  0  0  0  0  0  0
  -10.2400    9.8740   56.4260 C   0  0  0  0  0  0  0  0  0  0  0  0
   -9.2740    9.1230   55.5040 C   0  0  0  0  0  0  0  0  0  0  0  0
   -9.9470    8.0060   54.7000 C   0  0  0  0  0  0  0  0  0  0  0  0
   -9.1290    6.7140   54.6480 C   0  0  0  0  0  0  0  0  0  0  0  0
   -7.6440    6.9880   54.9000 C   0  0  0  0  0  0  0  0  0  0  0  0
   -6.7960    5.7460   54.6170 C   0  0  0  0  0  0  0  0  0  0  0  0
   -5.3130    6.0580   54.3780 C   0  0  0  0  0  0  0  0  0  0  0  0
   -4.4370    4.8080   54.2960 C   0  0  0  0  0  0  0  0  0  0  0  0
   -5.1840    3.5000   54.5840 C   0  0  0  0  0  0  0  0  0  0  0  0
   -4.7940    2.8270   55.8990 C   0  0  0  0  0  0  0  0  0  0  0  0
   -3.2990    2.6720   56.1950 C   0  0  0  0  0  0  0  0  0  0  0  0
   -2.8600    3.4570   57.0840 O   0  0  0  0  0  0  0  0  0  0  0  0
   -2.6830    1.8030   55.5200 O   0  0  0  0  0  0  0  0  0  0  0  0
  -13.9241   13.2097   59.3419 H   0  0  0  0  0  0  0  0  0  0  0  0
  -14.5583   14.2549   58.0258 H   0  0  0  0  0  0  0  0  0  0  0  0
  -14.9157   12.4945   58.0258 H   0  0  0  0  0  0  0  0  0  0  0  0
  -13.1201   13.2064   56.3996 H   0  0  0  0  0  0  0  0  0  0  0  0
  -12.1190   13.6646   57.8573 H   0  0  0  0  0  0  0  0  0  0  0  0
  -11.2902   11.6018   57.7220 H   0  0  0  0  0  0  0  0  0  0  0  0
  -12.8960   11.1019   58.4299 H   0  0  0  0  0  0  0  0  0  0  0  0
  -13.6966   10.3073   56.4448 H   0  0  0  0  0  0  0  0  0  0  0  0
  -12.5669   11.3695   55.4695 H   0  0  0  0  0  0  0  0  0  0  0  0
  -12.0136    8.7268   56.8199 H   0  0  0  0  0  0  0  0  0  0  0  0
  -11.7710    9.2644   55.0820 H   0  0  0  0  0  0  0  0  0  0  0  0
  -10.0913   10.9548   56.2852 H   0  0  0  0  0  0  0  0  0  0  0  0
  -10.0216    9.5628   57.4582 H   0  0  0  0  0  0  0  0  0  0  0  0
   -8.8333    9.8434   54.7992 H   0  0  0  0  0  0  0  0  0  0  0  0
   -8.5143    8.6507   56.1441 H   0  0  0  0  0  0  0  0  0  0  0  0
  -10.9207    7.7834   55.1608 H   0  0  0  0  0  0  0  0  0  0  0  0
  -10.0479    8.3671   53.6659 H   0  0  0  0  0  0  0  0  0  0  0  0
   -9.5018    6.0222   55.4177 H   0  0  0  0  0  0  0  0  0  0  0  0
   -9.2366    6.2739   53.6457 H   0  0  0  0  0  0  0  0  0  0  0  0
   -7.3134    7.8056   54.2425 H   0  0  0  0  0  0  0  0  0  0  0  0
   -7.5153    7.2640   55.9570 H   0  0  0  0  0  0  0  0  0  0  0  0
   -6.8743    5.0673   55.4791 H   0  0  0  0  0  0  0  0  0  0  0  0
   -7.1841    5.2934   53.6926 H   0  0  0  0  0  0  0  0  0  0  0  0
   -5.2209    6.6114   53.4318 H   0  0  0  0  0  0  0  0  0  0  0  0
   -4.9613    6.6461   55.2385 H   0  0  0  0  0  0  0  0  0  0  0  0
   -4.0142    4.7484   53.2823 H   0  0  0  0  0  0  0  0  0  0  0  0
   -3.6650    4.9101   55.0729 H   0  0  0  0  0  0  0  0  0  0  0  0
   -6.2615    3.7190   54.6159 H   0  0  0  0  0  0  0  0  0  0  0  0
   -4.9124    2.7998   53.7803 H   0  0  0  0  0  0  0  0  0  0  0  0
   -5.2324    3.4194   56.7156 H   0  0  0  0  0  0  0  0  0  0  0  0
   -5.1717    1.7976   55.8112 H   0  0  0  0  0  0  0  0  0  0  0  0
  1  2  1  0
  2  3  1  0
  3  4  1  0
  4  5  1  0
  5  6  1  0
  6  7  1  0
  7  8  1  0
  8  9  1  0
  9 10  1  0
 10 11  1  0
 11 12  1  0
 12 13  1  0
 13 14  1  0
 14 15  1  0
 15 16  1  0
 16 17  2  0
 16 18  1  0
  1 19  1  0
  1 20  1  0
  1 21  1  0
  2 22  1  0
  2 23  1  0
  3 24  1  0
  3 25  1  0
  4 26  1  0
  4 27  1  0
  5 28  1  0
  5 29  1  0
  6 30  1  0
  6 31  1  0
  7 32  1  0
  7 33  1  0
  8 34  1  0
  8 35  1  0
  9 36  1  0
  9 37  1  0
 10 38  1  0
 10 39  1  0
 11 40  1  0
 11 41  1  0
 12 42  1  0
 12 43  1  0
 13 44  1  0
 13 45  1  0
 14 46  1  0
 14 47  1  0
 15 48  1  0
 15 49  1  0
M  CHG  1  18  -1
M  END
>  <meeko>  (4) 
{"is_sidechain": [false], "free_energy": -6.286, "intermolecular_energy": -11.539, "internal_energy": -0.729}

$$$$
3uew_ligand
     RDKit          3D

 49 48  0  0  0  0  0  0  0  0999 V2000
  -14.3350   13.3620   58.4720 C   0  0  0  0  0  0  0  0  0  0  0  0
  -13.0620   13.2150   57.6520 C   0  0  0  0  0  0  0  0  0  0  0  0
  -12.4060   11.8380   57.7880 C   0  0  0  0  0  0  0  0  0  0  0  0
  -12.7880   10.8740   56.6640 C   0  0  0  0  0  0  0  0  0  0  0  0
  -11.5990   10.1270   56.0490 C   0  0  0  0  0  0  0  0  0  0  0  0
  -10.3550   10.0620   56.9440 C   0  0  0  0  0  0  0  0  0  0  0  0
   -9.0560   10.3320   56.1770 C   0  0  0  0  0  0  0  0  0  0  0  0
   -8.5690    9.1270   55.3660 C   0  0  0  0  0  0  0  0  0  0  0  0
   -9.1720    7.7980   55.8260 C   0  0  0  0  0  0  0  0  0  0  0  0
   -8.6000    6.6240   55.0270 C   0  0  0  0  0  0  0  0  0  0  0  0
   -7.1420    6.8760   54.6370 C   0  0  0  0  0  0  0  0  0  0  0  0
   -6.2840    5.6050   54.6190 C   0  0  0  0  0  0  0  0  0  0  0  0
   -4.8330    5.8610   54.2110 C   0  0  0  0  0  0  0  0  0  0  0  0
   -3.8630    5.9810   55.3930 C   0  0  0  0  0  0  0  0  0  0  0  0
   -3.9340    7.3160   56.1330 C   0  0  0  0  0  0  0  0  0  0  0  0
   -3.0680    8.4630   55.6030 C   0  0  0  0  0  0  0  0  0  0  0  0
   -1.8990    8.1180   55.2630 O   0  0  0  0  0  0  0  0  0  0  0  0
   -3.6040    9.6050   55.5790 O   0  0  0  0  0  0  0  0  0  0  0  0
  -14.0865   13.3333   59.5432 H   0  0  0  0  0  0  0  0  0  0  0  0
  -14.8164   14.3217   58.2329 H   0  0  0  0  0  0  0  0  0  0  0  0
  -15.0225   12.5373   58.2329 H   0  0  0  0  0  0  0  0  0  0  0  0
  -13.3085   13.3806   56.5929 H   0  0  0  0  0  0  0  0  0  0  0  0
  -12.3434   13.9558   58.0327 H   0  0  0  0  0  0  0  0  0  0  0  0
  -11.3138   11.9689   57.7799 H   0  0  0  0  0  0  0  0  0  0  0  0
  -12.7630   11.3980   58.7308 H   0  0  0  0  0  0  0  0  0  0  0  0
  -13.4902   10.1310   57.0699 H   0  0  0  0  0  0  0  0  0  0  0  0
  -13.2301   11.4822   55.8611 H   0  0  0  0  0  0  0  0  0  0  0  0
  -11.9173    9.0975   55.8284 H   0  0  0  0  0  0  0  0  0  0  0  0
  -11.3078   10.6900   55.1500 H   0  0  0  0  0  0  0  0  0  0  0  0
  -10.4555   10.8140   57.7405 H   0  0  0  0  0  0  0  0  0  0  0  0
  -10.2931    9.0419   57.3509 H   0  0  0  0  0  0  0  0  0  0  0  0
   -9.2262   11.1715   55.4868 H   0  0  0  0  0  0  0  0  0  0  0  0
   -8.2791   10.5586   56.9220 H   0  0  0  0  0  0  0  0  0  0  0  0
   -8.8385    9.2852   54.3113 H   0  0  0  0  0  0  0  0  0  0  0  0
   -7.4811    9.0567   55.5124 H   0  0  0  0  0  0  0  0  0  0  0  0
   -8.9448    7.6509   56.8922 H   0  0  0  0  0  0  0  0  0  0  0  0
  -10.2592    7.8338   55.6623 H   0  0  0  0  0  0  0  0  0  0  0  0
   -8.6546    5.7125   55.6403 H   0  0  0  0  0  0  0  0  0  0  0  0
   -9.1912    6.5092   54.1065 H   0  0  0  0  0  0  0  0  0  0  0  0
   -7.1229    7.3230   53.6321 H   0  0  0  0  0  0  0  0  0  0  0  0
   -6.7144    7.5437   55.3995 H   0  0  0  0  0  0  0  0  0  0  0  0
   -6.2908    5.1648   55.6270 H   0  0  0  0  0  0  0  0  0  0  0  0
   -6.7191    4.9286   53.8685 H   0  0  0  0  0  0  0  0  0  0  0  0
   -4.5008    5.0276   53.5745 H   0  0  0  0  0  0  0  0  0  0  0  0
   -4.8163    6.8280   53.6870 H   0  0  0  0  0  0  0  0  0  0  0  0
   -4.0917    5.1779   56.1090 H   0  0  0  0  0  0  0  0  0  0  0  0
   -2.8480    5.9062   54.9758 H   0  0  0  0  0  0  0  0  0  0  0  0
   -4.9807    7.6531   56.1056 H   0  0  0  0  0  0  0  0  0  0  0  0
   -3.5355    7.1031   57.1359 H   0  0  0  0  0  0  0  0  0  0  0  0
  1  2  1  0
  2  3  1  0
  3  4  1  0
  4  5  1  0
  5  6  1  0
  6  7  1  0
  7  8  1  0
  8  9  1  0
  9 10  1  0
 10 11  1  0
 11 12  1  0
 12 13  1  0
 13 14  1  0
 14 15  1  0
 15 16  1  0
 16 17  2  0
 16 18  1  0
  1 19  1  0
  1 20  1  0
  1 21  1  0
  2 22  1  0
  2 23  1  0
  3 24  1  0
  3 25  1  0
  4 26  1  0
  4 27  1  0
  5 28  1  0
  5 29  1  0
  6 30  1  0
  6 31  1  0
  7 32  1  0
  7 33  1  0
  8 34  1  0
  8 35  1  0
  9 36  1  0
  9 37  1  0
 10 38  1  0
 10 39  1  0
 11 40  1  0
 11 41  1  0
 12 42  1  0
 12 43  1  0
 13 44  1  0
 13 45  1  0
 14 46  1  0
 14 47  1  0
 15 48  1  0
 15 49  1  0
M  CHG  1  18  -1
M  END
>  <meeko>  (5) 
{"is_sidechain": [false], "free_energy": -6.133, "intermolecular_energy": -11.397, "internal_energy": -0.593}

$$$$
3uew_ligand
     RDKit          3D

 49 48  0  0  0  0  0  0  0  0999 V2000
   -1.5080    6.7960   54.6440 C   0  0  0  0  0  0  0  0  0  0  0  0
   -2.0070    8.1360   55.1620 C   0  0  0  0  0  0  0  0  0  0  0  0
   -2.8060    8.0260   56.4640 C   0  0  0  0  0  0  0  0  0  0  0  0
   -4.0230    7.1080   56.3500 C   0  0  0  0  0  0  0  0  0  0  0  0
   -5.0990    7.6120   55.3800 C   0  0  0  0  0  0  0  0  0  0  0  0
   -5.8060    6.5100   54.5830 C   0  0  0  0  0  0  0  0  0  0  0  0
   -7.3260    6.5190   54.7740 C   0  0  0  0  0  0  0  0  0  0  0  0
   -7.9170    7.9300   54.8710 C   0  0  0  0  0  0  0  0  0  0  0  0
   -8.8130    8.1330   56.0930 C   0  0  0  0  0  0  0  0  0  0  0  0
   -8.6070    9.5210   56.7080 C   0  0  0  0  0  0  0  0  0  0  0  0
   -9.8680   10.3780   56.5760 C   0  0  0  0  0  0  0  0  0  0  0  0
  -11.1050    9.5840   56.1390 C   0  0  0  0  0  0  0  0  0  0  0  0
  -12.4230   10.2810   56.4800 C   0  0  0  0  0  0  0  0  0  0  0  0
  -12.2810   11.7790   56.7760 C   0  0  0  0  0  0  0  0  0  0  0  0
  -13.5820   12.4660   57.1860 C   0  0  0  0  0  0  0  0  0  0  0  0
  -13.6160   13.1520   58.5550 C   0  0  0  0  0  0  0  0  0  0  0  0
  -14.7790   13.3690   59.0000 O   0  0  0  0  0  0  0  0  0  0  0  0
  -12.4970   13.4310   59.0690 O   0  0  0  0  0  0  0  0  0  0  0  0
   -1.2644    6.1419   55.4942 H   0  0  0  0  0  0  0  0  0  0  0  0
   -2.2910    6.3250   54.0316 H   0  0  0  0  0  0  0  0  0  0  0  0
   -0.6076    6.9519   54.0316 H   0  0  0  0  0  0  0  0  0  0  0  0
   -1.1379    8.7864   55.3402 H   0  0  0  0  0  0  0  0  0  0  0  0
   -2.6846    8.5469   54.3991 H   0  0  0  0  0  0  0  0  0  0  0  0
   -2.1432    7.6315   57.2483 H   0  0  0  0  0  0  0  0  0  0  0  0
   -3.1783    9.0328   56.7042 H   0  0  0  0  0  0  0  0  0  0  0  0
   -3.6805    6.1217   56.0038 H   0  0  0  0  0  0  0  0  0  0  0  0
   -4.4868    7.0709   57.3468 H   0  0  0  0  0  0  0  0  0  0  0  0
   -5.8580    8.1555   55.9618 H   0  0  0  0  0  0  0  0  0  0  0  0
   -4.5831    8.2467   54.6445 H   0  0  0  0  0  0  0  0  0  0  0  0
   -5.5855    6.6526   53.5148 H   0  0  0  0  0  0  0  0  0  0  0  0
   -5.4323    5.5436   54.9522 H   0  0  0  0  0  0  0  0  0  0  0  0
   -7.7884    6.0050   53.9184 H   0  0  0  0  0  0  0  0  0  0  0  0
   -7.5375    6.0112   55.7266 H   0  0  0  0  0  0  0  0  0  0  0  0
   -7.0885    8.6517   54.9229 H   0  0  0  0  0  0  0  0  0  0  0  0
   -8.5453    8.0796   53.9806 H   0  0  0  0  0  0  0  0  0  0  0  0
   -9.8647    8.0284   55.7879 H   0  0  0  0  0  0  0  0  0  0  0  0
   -8.5501    7.3761   56.8467 H   0  0  0  0  0  0  0  0  0  0  0  0
   -8.3600    9.4080   57.7739 H   0  0  0  0  0  0  0  0  0  0  0  0
   -7.7880   10.0217   56.1708 H   0  0  0  0  0  0  0  0  0  0  0  0
  -10.0781   10.8406   57.5516 H   0  0  0  0  0  0  0  0  0  0  0  0
   -9.6705   11.1254   55.7934 H   0  0  0  0  0  0  0  0  0  0  0  0
  -11.0591    9.4377   55.0497 H   0  0  0  0  0  0  0  0  0  0  0  0
  -11.0899    8.6300   56.6864 H   0  0  0  0  0  0  0  0  0  0  0  0
  -13.1079   10.1607   55.6277 H   0  0  0  0  0  0  0  0  0  0  0  0
  -12.8019    9.8106   57.3993 H   0  0  0  0  0  0  0  0  0  0  0  0
  -11.5548   11.9011   57.5932 H   0  0  0  0  0  0  0  0  0  0  0  0
  -11.9556   12.2552   55.8393 H   0  0  0  0  0  0  0  0  0  0  0  0
  -13.8040   13.2314   56.4278 H   0  0  0  0  0  0  0  0  0  0  0  0
  -14.3183   11.6522   57.2609 H   0  0  0  0  0  0  0  0  0  0  0  0
  1  2  1  0
  2  3  1  0
  3  4  1  0
  4  5  1  0
  5  6  1  0
  6  7  1  0
  7  8  1  0
  8  9  1  0
  9 10  1  0
 10 11  1  0
 11 12  1  0
 12 13  1  0
 13 14  1  0
 14 15  1  0
 15 16  1  0
 16 17  2  0
 16 18  1  0
  1 19  1  0
  1 20  1  0
  1 21  1  0
  2 22  1  0
  2 23  1  0
  3 24  1  0
  3 25  1  0
  4 26  1  0
  4 27  1  0
  5 28  1  0
  5 29  1  0
  6 30  1  0
  6 31  1  0
  7 32  1  0
  7 33  1  0
  8 34  1  0
  8 35  1  0
  9 36  1  0
  9 37  1  0
 10 38  1  0
 10 39  1  0
 11 40  1  0
 11 41  1  0
 12 42  1  0
 12 43  1  0
 13 44  1  0
 13 45  1  0
 14 46  1  0
 14 47  1  0
 15 48  1  0
 15 49  1  0
M  CHG  1  18  -1
M  END
>  <meeko>  (6) 
{"is_sidechain": [false], "free_energy": -6.1, "intermolecular_energy": -11.082, "internal_energy": -0.85}

$$$$
3uew_ligand
     RDKit          3D

 49 48  0  0  0  0  0  0  0  0999 V2000
   -9.9500    6.6810   54.1810 C   0  0  0  0  0  0  0  0  0  0  0  0
   -8.6470    6.5530   54.9540 C   0  0  0  0  0  0  0  0  0  0  0  0
   -7.5860    7.5760   54.5360 C   0  0  0  0  0  0  0  0  0  0  0  0
   -6.9350    8.2880   55.7210 C   0  0  0  0  0  0  0  0  0  0  0  0
   -7.9320    8.9660   56.6690 C   0  0  0  0  0  0  0  0  0  0  0  0
   -8.5350   10.2700   56.1330 C   0  0  0  0  0  0  0  0  0  0  0  0
   -9.9940   10.4700   56.5580 C   0  0  0  0  0  0  0  0  0  0  0  0
  -10.9350    9.3860   56.0230 C   0  0  0  0  0  0  0  0  0  0  0  0
  -12.3670    9.5090   56.5480 C   0  0  0  0  0  0  0  0  0  0  0  0
  -12.5730   10.8310   57.2930 C   0  0  0  0  0  0  0  0  0  0  0  0
  -13.4430   11.7940   56.4820 C   0  0  0  0  0  0  0  0  0  0  0  0
  -13.3690   13.2450   56.9710 C   0  0  0  0  0  0  0  0  0  0  0  0
  -13.3390   13.3700   58.4950 C   0  0  0  0  0  0  0  0  0  0  0  0
  -14.7220   13.3150   59.1550 C   0  0  0  0  0  0  0  0  0  0  0  0
  -15.1530   14.6190   59.8240 C   0  0  0  0  0  0  0  0  0  0  0  0
  -14.9990   14.7160   61.3450 C   0  0  0  0  0  0  0  0  0  0  0  0
  -13.9690   14.1420   61.8010 O   0  0  0  0  0  0  0  0  0  0  0  0
  -15.9090   15.3360   61.9610 O   0  0  0  0  0  0  0  0  0  0  0  0
  -10.7890    6.7634   54.8876 H   0  0  0  0  0  0  0  0  0  0  0  0
   -9.9141    7.5799   53.5481 H   0  0  0  0  0  0  0  0  0  0  0  0
  -10.0897    5.7923   53.5481 H   0  0  0  0  0  0  0  0  0  0  0  0
   -8.8618    6.6914   56.0239 H   0  0  0  0  0  0  0  0  0  0  0  0
   -8.2382    5.5552   54.7364 H   0  0  0  0  0  0  0  0  0  0  0  0
   -6.8017    7.0539   53.9683 H   0  0  0  0  0  0  0  0  0  0  0  0
   -8.0925    8.3434   53.9322 H   0  0  0  0  0  0  0  0  0  0  0  0
   -6.3607    7.5469   56.2962 H   0  0  0  0  0  0  0  0  0  0  0  0
   -6.3022    9.0850   55.3034 H   0  0  0  0  0  0  0  0  0  0  0  0
   -8.7544    8.2618   56.8632 H   0  0  0  0  0  0  0  0  0  0  0  0
   -7.3692    9.2318   57.5760 H   0  0  0  0  0  0  0  0  0  0  0  0
   -7.9399   11.1140   56.5120 H   0  0  0  0  0  0  0  0  0  0  0  0
   -8.5150   10.2165   55.0345 H   0  0  0  0  0  0  0  0  0  0  0  0
  -10.0417   10.4625   57.6569 H   0  0  0  0  0  0  0  0  0  0  0  0
  -10.3280   11.4290   56.1352 H   0  0  0  0  0  0  0  0  0  0  0  0
  -10.9591    9.4562   54.9255 H   0  0  0  0  0  0  0  0  0  0  0  0
  -10.5447    8.4179   56.3701 H   0  0  0  0  0  0  0  0  0  0  0  0
  -13.0653    9.4630   55.6993 H   0  0  0  0  0  0  0  0  0  0  0  0
  -12.5528    8.6819   57.2490 H   0  0  0  0  0  0  0  0  0  0  0  0
  -13.0647   10.6274   58.2557 H   0  0  0  0  0  0  0  0  0  0  0  0
  -11.5899   11.2986   57.4506 H   0  0  0  0  0  0  0  0  0  0  0  0
  -13.1123   11.7628   55.4333 H   0  0  0  0  0  0  0  0  0  0  0  0
  -14.4861   11.4655   56.6007 H   0  0  0  0  0  0  0  0  0  0  0  0
  -12.4553   13.7038   56.5652 H   0  0  0  0  0  0  0  0  0  0  0  0
  -14.2795   13.7533   56.6207 H   0  0  0  0  0  0  0  0  0  0  0  0
  -12.7312   12.5461   58.8973 H   0  0  0  0  0  0  0  0  0  0  0  0
  -12.9175   14.3599   58.7238 H   0  0  0  0  0  0  0  0  0  0  0  0
  -15.4628   13.0636   58.3816 H   0  0  0  0  0  0  0  0  0  0  0  0
  -14.6606   12.5585   59.9512 H   0  0  0  0  0  0  0  0  0  0  0  0
  -14.5575   15.4302   59.3798 H   0  0  0  0  0  0  0  0  0  0  0  0
  -16.2368   14.6810   59.6467 H   0  0  0  0  0  0  0  0  0  0  0  0
  1  2  1  0
  2  3  1  0
  3  4  1  0
  4  5  1  0
  5  6  1  0
  6  7  1  0
  7  8  1  0
  8  9  1  0
  9 10  1  0
 10 11  1  0
 11 12  1  0
 12 13  1  0
 13 14  1  0
 14 15  1  0
 15 16  1  0
 16 17  2  0
 16 18  1  0
  1 19  1  0
  1 20  1  0
  1 21  1  0
  2 22  1  0
  2 23  1  0
  3 24  1  0
  3 25  1  0
  4 26  1  0
  4 27  1  0
  5 28  1  0
  5 29  1  0
  6 30  1  0
  6 31  1  0
  7 32  1  0
  7 33  1  0
  8 34  1  0
  8 35  1  0
  9 36  1  0
  9 37  1  0
 10 38  1  0
 10 39  1  0
 11 40  1  0
 11 41  1  0
 12 42  1  0
 12 43  1  0
 13 44  1  0
 13 45  1  0
 14 46  1  0
 14 47  1  0
 15 48  1  0
 15 49  1  0
M  CHG  1  18  -1
M  END
>  <meeko>  (7) 
{"is_sidechain": [false], "free_energy": -5.993, "intermolecular_energy": -10.678, "internal_energy": -1.058}

$$$$
3uew_ligand
     RDKit          3D

 49 48  0  0  0  0  0  0  0  0999 V2000
  -15.3310   15.2000   61.5360 C   0  0  0  0  0  0  0  0  0  0  0  0
  -14.5740   14.0540   60.8850 C   0  0  0  0  0  0  0  0  0  0  0  0
  -14.7980   13.9560   59.3730 C   0  0  0  0  0  0  0  0  0  0  0  0
  -14.1610   12.7140   58.7480 C   0  0  0  0  0  0  0  0  0  0  0  0
  -13.5310   12.9600   57.3720 C   0  0  0  0  0  0  0  0  0  0  0  0
  -13.2090   11.6850   56.5820 C   0  0  0  0  0  0  0  0  0  0  0  0
  -12.1960   10.7830   57.2940 C   0  0  0  0  0  0  0  0  0  0  0  0
  -11.4710    9.8200   56.3480 C   0  0  0  0  0  0  0  0  0  0  0  0
   -9.9580    9.7720   56.5700 C   0  0  0  0  0  0  0  0  0  0  0  0
   -9.2400    9.1650   55.3610 C   0  0  0  0  0  0  0  0  0  0  0  0
   -8.0530    8.3030   55.7960 C   0  0  0  0  0  0  0  0  0  0  0  0
   -7.2540    7.7240   54.6230 C   0  0  0  0  0  0  0  0  0  0  0  0
   -7.1810    6.1960   54.6360 C   0  0  0  0  0  0  0  0  0  0  0  0
   -5.7530    5.6380   54.6290 C   0  0  0  0  0  0  0  0  0  0  0  0
   -5.6590    4.1440   54.9340 C   0  0  0  0  0  0  0  0  0  0  0  0
   -4.6060    3.3330   54.1730 C   0  0  0  0  0  0  0  0  0  0  0  0
   -4.9830    2.1720   53.8400 O   0  0  0  0  0  0  0  0  0  0  0  0
   -3.4950    3.9000   53.9800 O   0  0  0  0  0  0  0  0  0  0  0  0
  -15.2688   15.1058   62.6302 H   0  0  0  0  0  0  0  0  0  0  0  0
  -14.8866   16.1568   61.2245 H   0  0  0  0  0  0  0  0  0  0  0  0
  -16.3854   15.1668   61.2245 H   0  0  0  0  0  0  0  0  0  0  0  0
  -13.4991   14.1973   61.0694 H   0  0  0  0  0  0  0  0  0  0  0  0
  -14.9524   13.1217   61.3297 H   0  0  0  0  0  0  0  0  0  0  0  0
  -15.8808   13.9274   59.1813 H   0  0  0  0  0  0  0  0  0  0  0  0
  -14.3198   14.8341   58.9145 H   0  0  0  0  0  0  0  0  0  0  0  0
  -13.3764   12.3491   59.4271 H   0  0  0  0  0  0  0  0  0  0  0  0
  -14.9691   11.9823   58.6012 H   0  0  0  0  0  0  0  0  0  0  0  0
  -14.2309   13.5651   56.7770 H   0  0  0  0  0  0  0  0  0  0  0  0
  -12.5713   13.4660   57.5535 H   0  0  0  0  0  0  0  0  0  0  0  0
  -14.1404   11.1187   56.4345 H   0  0  0  0  0  0  0  0  0  0  0  0
  -12.7618   11.9932   55.6255 H   0  0  0  0  0  0  0  0  0  0  0  0
  -11.4460   11.4203   57.7853 H   0  0  0  0  0  0  0  0  0  0  0  0
  -12.7564   10.1703   58.0155 H   0  0  0  0  0  0  0  0  0  0  0  0
  -11.8778    8.8094   56.5006 H   0  0  0  0  0  0  0  0  0  0  0  0
  -11.6369   10.1855   55.3238 H   0  0  0  0  0  0  0  0  0  0  0  0
   -9.5864   10.7946   56.7318 H   0  0  0  0  0  0  0  0  0  0  0  0
   -9.7546    9.1420   57.4485 H   0  0  0  0  0  0  0  0  0  0  0  0
   -9.9498    8.5403   54.7989 H   0  0  0  0  0  0  0  0  0  0  0  0
   -8.8624    9.9853   54.7329 H   0  0  0  0  0  0  0  0  0  0  0  0
   -7.3779    8.9223   56.4049 H   0  0  0  0  0  0  0  0  0  0  0  0
   -8.4616    7.4516   56.3601 H   0  0  0  0  0  0  0  0  0  0  0  0
   -7.7311    8.0427   53.6845 H   0  0  0  0  0  0  0  0  0  0  0  0
   -6.2242    8.1001   54.7132 H   0  0  0  0  0  0  0  0  0  0  0  0
   -7.6892    5.8335   55.5417 H   0  0  0  0  0  0  0  0  0  0  0  0
   -7.6626    5.8473   53.7105 H   0  0  0  0  0  0  0  0  0  0  0  0
   -5.3195    5.8141   53.6335 H   0  0  0  0  0  0  0  0  0  0  0  0
   -5.2084    6.1576   55.4312 H   0  0  0  0  0  0  0  0  0  0  0  0
   -5.4431    4.0396   56.0075 H   0  0  0  0  0  0  0  0  0  0  0  0
   -6.6237    3.7293   54.6062 H   0  0  0  0  0  0  0  0  0  0  0  0
  1  2  1  0
  2  3  1  0
  3  4  1  0
  4  5  1  0
  5  6  1  0
  6  7  1  0
  7  8  1  0
  8  9  1  0
  9 10  1  0
 10 11  1  0
 11 12  1  0
 12 13  1  0
 13 14  1  0
 14 15  1  0
 15 16  1  0
 16 17  2  0
 16 18  1  0
  1 19  1  0
  1 20  1  0
  1 21  1  0
  2 22  1  0
  2 23  1  0
  3 24  1  0
  3 25  1  0
  4 26  1  0
  4 27  1  0
  5 28  1  0
  5 29  1  0
  6 30  1  0
  6 31  1  0
  7 32  1  0
  7 33  1  0
  8 34  1  0
  8 35  1  0
  9 36  1  0
  9 37  1  0
 10 38  1  0
 10 39  1  0
 11 40  1  0
 11 41  1  0
 12 42  1  0
 12 43  1  0
 13 44  1  0
 13 45  1  0
 14 46  1  0
 14 47  1  0
 15 48  1  0
 15 49  1  0
M  CHG  1  18  -1
M  END
>  <meeko>  (8) 
{"is_sidechain": [false], "free_energy": -5.929, "intermolecular_energy": -11.305, "internal_energy": -0.315}

$$$$
3uew_ligand
     RDKit          3D

 49 48  0  0  0  0  0  0  0  0999 V2000
  -13.0650   12.9990   57.1890 C   0  0  0  0  0  0  0  0  0  0  0  0
  -12.0540   11.8720   57.3240 C   0  0  0  0  0  0  0  0  0  0  0  0
  -12.5370   10.5450   56.7310 C   0  0  0  0  0  0  0  0  0  0  0  0
  -11.4270    9.7550   56.0370 C   0  0  0  0  0  0  0  0  0  0  0  0
  -10.0100   10.1840   56.4350 C   0  0  0  0  0  0  0  0  0  0  0  0
   -8.9750    9.0520   56.4270 C   0  0  0  0  0  0  0  0  0  0  0  0
   -9.2330    8.0180   55.3270 C   0  0  0  0  0  0  0  0  0  0  0  0
   -7.9980    7.1800   54.9810 C   0  0  0  0  0  0  0  0  0  0  0  0
   -6.6770    7.8730   55.3170 C   0  0  0  0  0  0  0  0  0  0  0  0
   -5.4980    7.1870   54.6210 C   0  0  0  0  0  0  0  0  0  0  0  0
   -4.1710    7.8490   54.9980 C   0  0  0  0  0  0  0  0  0  0  0  0
   -3.1090    6.8580   55.4870 C   0  0  0  0  0  0  0  0  0  0  0  0
   -3.5240    6.0990   56.7480 C   0  0  0  0  0  0  0  0  0  0  0  0
   -3.4740    4.5730   56.6060 C   0  0  0  0  0  0  0  0  0  0  0  0
   -3.4650    4.0750   55.1610 C   0  0  0  0  0  0  0  0  0  0  0  0
   -4.7260    3.3710   54.6500 C   0  0  0  0  0  0  0  0  0  0  0  0
   -4.5000    2.3840   53.8930 O   0  0  0  0  0  0  0  0  0  0  0  0
   -5.8290    3.8560   55.0250 O   0  0  0  0  0  0  0  0  0  0  0  0
  -13.3704   13.3394   58.1894 H   0  0  0  0  0  0  0  0  0  0  0  0
  -12.6096   13.8363   56.6399 H   0  0  0  0  0  0  0  0  0  0  0  0
  -13.9467   12.6368   56.6399 H   0  0  0  0  0  0  0  0  0  0  0  0
  -11.1300   12.1691   56.8064 H   0  0  0  0  0  0  0  0  0  0  0  0
  -11.8944   11.7071   58.3998 H   0  0  0  0  0  0  0  0  0  0  0  0
  -12.9491    9.9286   57.5435 H   0  0  0  0  0  0  0  0  0  0  0  0
  -13.2933   10.7840   55.9688 H   0  0  0  0  0  0  0  0  0  0  0  0
  -11.5498    8.6916   56.2902 H   0  0  0  0  0  0  0  0  0  0  0  0
  -11.5260    9.9495   54.9589 H   0  0  0  0  0  0  0  0  0  0  0  0
   -9.6756   10.9598   55.7305 H   0  0  0  0  0  0  0  0  0  0  0  0
  -10.0724   10.5424   57.4731 H   0  0  0  0  0  0  0  0  0  0  0  0
   -7.9777    9.4891   56.2712 H   0  0  0  0  0  0  0  0  0  0  0  0
   -9.0468    8.5315   57.3934 H   0  0  0  0  0  0  0  0  0  0  0  0
  -10.0311    7.3406   55.6649 H   0  0  0  0  0  0  0  0  0  0  0  0
   -9.5157    8.5716   54.4195 H   0  0  0  0  0  0  0  0  0  0  0  0
   -8.0489    6.2361   55.5435 H   0  0  0  0  0  0  0  0  0  0  0  0
   -8.0110    7.0185   53.8930 H   0  0  0  0  0  0  0  0  0  0  0  0
   -6.7278    8.9211   54.9870 H   0  0  0  0  0  0  0  0  0  0  0  0
   -6.5206    7.8154   56.4043 H   0  0  0  0  0  0  0  0  0  0  0  0
   -5.4696    6.1294   54.9222 H   0  0  0  0  0  0  0  0  0  0  0  0
   -5.6354    7.2772   53.5333 H   0  0  0  0  0  0  0  0  0  0  0  0
   -3.7786    8.3707   54.1127 H   0  0  0  0  0  0  0  0  0  0  0  0
   -4.3785    8.5371   55.8308 H   0  0  0  0  0  0  0  0  0  0  0  0
   -2.9184    6.1276   54.6869 H   0  0  0  0  0  0  0  0  0  0  0  0
   -2.2110    7.4412   55.7388 H   0  0  0  0  0  0  0  0  0  0  0  0
   -2.8487    6.3921   57.5654 H   0  0  0  0  0  0  0  0  0  0  0  0
   -4.5728    6.3646   56.9470 H   0  0  0  0  0  0  0  0  0  0  0  0
   -2.5607    4.2109   57.1007 H   0  0  0  0  0  0  0  0  0  0  0  0
   -4.3936    4.1837   57.0673 H   0  0  0  0  0  0  0  0  0  0  0  0
   -3.2878    4.9460   54.5129 H   0  0  0  0  0  0  0  0  0  0  0  0
   -2.6816    3.3032   55.1344 H   0  0  0  0  0  0  0  0  0  0  0  0
  1  2  1  0
  2  3  1  0
  3  4  1  0
  4  5  1  0
  5  6  1  0
  6  7  1  0
  7  8  1  0
  8  9  1  0
  9 10  1  0
 10 11  1  0
 11 12  1  0
 12 13  1  0
 13 14  1  0
 14 15  1  0
 15 16  1  0
 16 17  2  0
 16 18  1  0
  1 19  1  0
  1 20  1  0
  1 21  1  0
  2 22  1  0
  2 23  1  0
  3 24  1  0
  3 25  1  0
  4 26  1  0
  4 27  1  0
  5 28  1  0
  5 29  1  0
  6 30  1  0
  6 31  1  0
  7 32  1  0
  7 33  1  0
  8 34  1  0
  8 35  1  0
  9 36  1  0
  9 37  1  0
 10 38  1  0
 10 39  1  0
 11 40  1  0
 11 41  1  0
 12 42  1  0
 12 43  1  0
 13 44  1  0
 13 45  1  0
 14 46  1  0
 14 47  1  0
 15 48  1  0
 15 49  1  0
M  CHG  1  18  -1
M  END
>  <meeko>  (9) 
{"is_sidechain": [false], "free_energy": -5.722, "intermolecular_energy": -10.273, "internal_energy": -0.97}

$$$$
