4j28_ligand
     RDKit          3D

 33 35  0  0  0  0  0  0  0  0999 V2000
  -16.4560    8.1460   30.9450 C   0  0  0  0  0  0  0  0  0  0  0  0
  -16.1720    9.2270   31.9760 C   0  0  2  0  0  0  0  0  0  0  0  0
  -17.4580    9.9600   32.2830 N   0  0  0  0  0  0  0  0  0  0  0  0
  -17.1430   11.4420   32.3190 C   0  0  1  0  0  0  0  0  0  0  0  0
  -16.7170   11.8410   33.6900 C   0  0  0  0  0  0  0  0  0  0  0  0
  -15.9530   12.8820   33.9610 N   0  0  0  0  0  0  0  0  0  0  0  0
  -15.8040   12.8820   35.3280 C   0  0  0  0  0  0  0  0  0  0  0  0
  -15.0960   13.7650   36.1540 C   0  0  0  0  0  0  0  0  0  0  0  0
  -15.1030   13.5370   37.5370 C   0  0  0  0  0  0  0  0  0  0  0  0
  -15.7960   12.4530   38.0810 C   0  0  0  0  0  0  0  0  0  0  0  0
  -16.5060   11.5610   37.2690 C   0  0  0  0  0  0  0  0  0  0  0  0
  -16.4850   11.8120   35.8960 C   0  0  0  0  0  0  0  0  0  0  0  0
  -17.0540   11.1570   34.8330 N   0  0  0  0  0  0  0  0  0  0  0  0
  -16.0300   11.5510   31.2810 C   0  0  2  0  0  0  0  0  0  0  0  0
  -16.6110   11.4600   29.9700 O   0  0  0  0  0  0  0  0  0  0  0  0
  -15.1610   10.3160   31.5410 C   0  0  2  0  0  0  0  0  0  0  0  0
  -14.4370   10.0210   30.3510 O   0  0  0  0  0  0  0  0  0  0  0  0
  -16.7032    7.2052   31.4587 H   0  0  0  0  0  0  0  0  0  0  0  0
  -17.3038    8.4536   30.3152 H   0  0  0  0  0  0  0  0  0  0  0  0
  -15.5665    7.9972   30.3152 H   0  0  0  0  0  0  0  0  0  0  0  0
  -15.7374    8.6875   32.8304 H   0  0  0  0  0  0  0  0  0  0  0  0
  -17.8310    9.6750   33.1990 H   0  0  0  0  0  0  0  0  0  0  0  0
  -18.1620    9.7960   31.5530 H   0  0  0  0  0  0  0  0  0  0  0  0
  -17.9874   12.1098   32.0931 H   0  0  0  0  0  0  0  0  0  0  0  0
  -14.5474   14.6174   35.7270 H   0  0  0  0  0  0  0  0  0  0  0  0
  -14.5556   14.2206   38.2026 H   0  0  0  0  0  0  0  0  0  0  0  0
  -15.7835   12.2972   39.1698 H   0  0  0  0  0  0  0  0  0  0  0  0
  -17.0530   10.7053   37.6915 H   0  0  0  0  0  0  0  0  0  0  0  0
  -17.6160   10.3170   34.9050 H   0  0  0  0  0  0  0  0  0  0  0  0
  -15.4633   12.4917   31.3434 H   0  0  0  0  0  0  0  0  0  0  0  0
  -15.8990   11.1020   29.3910 H   0  0  0  0  0  0  0  0  0  0  0  0
  -14.3943   10.4287   32.3216 H   0  0  0  0  0  0  0  0  0  0  0  0
  -14.2430   10.8580   29.8850 H   0  0  0  0  0  0  0  0  0  0  0  0
  1  2  1  0
  2  3  1  0
  3  4  1  0
  4  5  1  0
  5  6  2  0
  6  7  1  0
  7  8  2  0
  8  9  1  0
  9 10  2  0
 10 11  1  0
 11 12  2  0
 12 13  1  0
  4 14  1  0
 14 15  1  0
 14 16  1  0
 16 17  1  0
 16  2  1  0
 13  5  1  0
 12  7  1  0
  1 18  1  0
  1 19  1  0
  1 20  1  0
  2 21  1  1
  3 22  1  0
  3 23  1  0
  4 24  1  6
  8 25  1  0
  9 26  1  0
 10 27  1  0
 11 28  1  0
 13 29  1  0
 14 30  1  6
 15 31  1  0
 16 32  1  1
 17 33  1  0
M  CHG  1   3   1
M  END
>  <meeko>  (1) 
{"is_sidechain": [false], "free_energy": -6.74, "intermolecular_energy": -7.528, "internal_energy": -0.297}

$$$$
4j28_ligand
     RDKit          3D

 33 35  0  0  0  0  0  0  0  0999 V2000
  -15.0070   10.5420   31.0650 C   0  0  0  0  0  0  0  0  0  0  0  0
  -15.4390   11.7540   31.8770 C   0  0  2  0  0  0  0  0  0  0  0  0
  -14.4370   11.9810   32.9860 N   0  0  0  0  0  0  0  0  0  0  0  0
  -15.2160   12.2850   34.2510 C   0  0  1  0  0  0  0  0  0  0  0  0
  -15.4870   13.7470   34.3450 C   0  0  0  0  0  0  0  0  0  0  0  0
  -14.5580   14.6820   34.3050 N   0  0  0  0  0  0  0  0  0  0  0  0
  -15.2320   15.8750   34.4290 C   0  0  0  0  0  0  0  0  0  0  0  0
  -14.7400   17.1860   34.4440 C   0  0  0  0  0  0  0  0  0  0  0  0
  -15.6530   18.2400   34.5840 C   0  0  0  0  0  0  0  0  0  0  0  0
  -17.0220   17.9910   34.7080 C   0  0  0  0  0  0  0  0  0  0  0  0
  -17.5280   16.6870   34.6960 C   0  0  0  0  0  0  0  0  0  0  0  0
  -16.5980   15.6550   34.5540 C   0  0  0  0  0  0  0  0  0  0  0  0
  -16.7380   14.2910   34.5060 N   0  0  0  0  0  0  0  0  0  0  0  0
  -16.4740   11.4450   34.0530 C   0  0  2  0  0  0  0  0  0  0  0  0
  -16.1520   10.0660   34.2940 O   0  0  0  0  0  0  0  0  0  0  0  0
  -16.8170   11.6380   32.5710 C   0  0  2  0  0  0  0  0  0  0  0  0
  -17.6100   10.5320   32.1500 O   0  0  0  0  0  0  0  0  0  0  0  0
  -14.7171    9.7286   31.7464 H   0  0  0  0  0  0  0  0  0  0  0  0
  -15.8418   10.2090   30.4308 H   0  0  0  0  0  0  0  0  0  0  0  0
  -14.1498   10.8121   30.4308 H   0  0  0  0  0  0  0  0  0  0  0  0
  -15.5025   12.5707   31.1429 H   0  0  0  0  0  0  0  0  0  0  0  0
  -13.8260   12.7810   32.7690 H   0  0  0  0  0  0  0  0  0  0  0  0
  -13.8680   11.1420   33.1500 H   0  0  0  0  0  0  0  0  0  0  0  0
  -14.7009   12.0444   35.1927 H   0  0  0  0  0  0  0  0  0  0  0  0
  -13.6622   17.3839   34.3481 H   0  0  0  0  0  0  0  0  0  0  0  0
  -15.2868   19.2772   34.5964 H   0  0  0  0  0  0  0  0  0  0  0  0
  -17.7160   18.8374   34.8173 H   0  0  0  0  0  0  0  0  0  0  0  0
  -18.6048   16.4845   34.7936 H   0  0  0  0  0  0  0  0  0  0  0  0
  -17.6200   13.7970   34.5820 H   0  0  0  0  0  0  0  0  0  0  0  0
  -17.2996   11.7287   34.7223 H   0  0  0  0  0  0  0  0  0  0  0  0
  -15.7430   10.0430   35.1890 H   0  0  0  0  0  0  0  0  0  0  0  0
  -17.4171   12.5283   32.3316 H   0  0  0  0  0  0  0  0  0  0  0  0
  -18.5200   10.8440   31.9790 H   0  0  0  0  0  0  0  0  0  0  0  0
  1  2  1  0
  2  3  1  0
  3  4  1  0
  4  5  1  0
  5  6  2  0
  6  7  1  0
  7  8  2  0
  8  9  1  0
  9 10  2  0
 10 11  1  0
 11 12  2  0
 12 13  1  0
  4 14  1  0
 14 15  1  0
 14 16  1  0
 16 17  1  0
 16  2  1  0
 13  5  1  0
 12  7  1  0
  1 18  1  0
  1 19  1  0
  1 20  1  0
  2 21  1  6
  3 22  1  0
  3 23  1  0
  4 24  1  1
  8 25  1  0
  9 26  1  0
 10 27  1  0
 11 28  1  0
 13 29  1  0
 14 30  1  1
 15 31  1  0
 16 32  1  1
 17 33  1  0
M  CHG  1   3   1
M  END
>  <meeko>  (2) 
{"is_sidechain": [false], "free_energy": -6.679, "intermolecular_energy": -7.595, "internal_energy": -0.161}

$$$$
4j28_ligand
     RDKit          3D

 33 35  0  0  0  0  0  0  0  0999 V2000
  -16.1400    8.6510   31.4820 C   0  0  0  0  0  0  0  0  0  0  0  0
  -16.5090    9.6270   32.5880 C   0  0  2  0  0  0  0  0  0  0  0  0
  -17.9910    9.9160   32.5100 N   0  0  0  0  0  0  0  0  0  0  0  0
  -18.1760   11.4100   32.6940 C   0  0  1  0  0  0  0  0  0  0  0  0
  -18.3010   11.7330   34.1440 C   0  0  0  0  0  0  0  0  0  0  0  0
  -17.9610   12.8880   34.6820 N   0  0  0  0  0  0  0  0  0  0  0  0
  -18.2310   12.7610   36.0250 C   0  0  0  0  0  0  0  0  0  0  0  0
  -18.0650   13.6840   37.0650 C   0  0  0  0  0  0  0  0  0  0  0  0
  -18.4220   13.2980   38.3640 C   0  0  0  0  0  0  0  0  0  0  0  0
  -18.9310   12.0220   38.6180 C   0  0  0  0  0  0  0  0  0  0  0  0
  -19.1010   11.0880   37.5900 C   0  0  0  0  0  0  0  0  0  0  0  0
  -18.7390   11.4980   36.3050 C   0  0  0  0  0  0  0  0  0  0  0  0
  -18.7680   10.8570   35.0930 N   0  0  0  0  0  0  0  0  0  0  0  0
  -16.9060   11.9640   32.0560 C   0  0  2  0  0  0  0  0  0  0  0  0
  -17.0340   11.8800   30.6270 O   0  0  0  0  0  0  0  0  0  0  0  0
  -15.8070   11.0050   32.5270 C   0  0  2  0  0  0  0  0  0  0  0  0
  -14.7220   11.0850   31.6080 O   0  0  0  0  0  0  0  0  0  0  0  0
  -15.7842    7.7100   31.9270 H   0  0  0  0  0  0  0  0  0  0  0  0
  -17.0245    8.4508   30.8594 H   0  0  0  0  0  0  0  0  0  0  0  0
  -15.3443    9.0861   30.8594 H   0  0  0  0  0  0  0  0  0  0  0  0
  -16.1875    9.1292   33.5147 H   0  0  0  0  0  0  0  0  0  0  0  0
  -18.5000    9.4210   33.2550 H   0  0  0  0  0  0  0  0  0  0  0  0
  -18.3730    9.6540   31.5930 H   0  0  0  0  0  0  0  0  0  0  0  0
  -19.0851   11.8331   32.2418 H   0  0  0  0  0  0  0  0  0  0  0  0
  -17.6636   14.6888   36.8668 H   0  0  0  0  0  0  0  0  0  0  0  0
  -18.2999   14.0089   39.1944 H   0  0  0  0  0  0  0  0  0  0  0  0
  -19.2037   11.7459   39.6473 H   0  0  0  0  0  0  0  0  0  0  0  0
  -19.4997   10.0814   37.7843 H   0  0  0  0  0  0  0  0  0  0  0  0
  -19.0800    9.9030   34.9510 H   0  0  0  0  0  0  0  0  0  0  0  0
  -16.7015   13.0109   32.3247 H   0  0  0  0  0  0  0  0  0  0  0  0
  -18.0020   11.8710   30.4490 H   0  0  0  0  0  0  0  0  0  0  0  0
  -15.3671   11.2294   33.5099 H   0  0  0  0  0  0  0  0  0  0  0  0
  -15.0600   10.9170   30.7060 H   0  0  0  0  0  0  0  0  0  0  0  0
  1  2  1  0
  2  3  1  0
  3  4  1  0
  4  5  1  0
  5  6  2  0
  6  7  1  0
  7  8  2  0
  8  9  1  0
  9 10  2  0
 10 11  1  0
 11 12  2  0
 12 13  1  0
  4 14  1  0
 14 15  1  0
 14 16  1  0
 16 17  1  0
 16  2  1  0
 13  5  1  0
 12  7  1  0
  1 18  1  0
  1 19  1  0
  1 20  1  0
  2 21  1  1
  3 22  1  0
  3 23  1  0
  4 24  1  6
  8 25  1  0
  9 26  1  0
 10 27  1  0
 11 28  1  0
 13 29  1  0
 14 30  1  6
 15 31  1  0
 16 32  1  1
 17 33  1  0
M  CHG  1   3   1
M  END
>  <meeko>  (3) 
{"is_sidechain": [false], "free_energy": -6.151, "intermolecular_energy": -6.869, "internal_energy": -0.297}

$$$$
4j28_ligand
     RDKit          3D

 33 35  0  0  0  0  0  0  0  0999 V2000
  -20.0920   12.3590   37.5260 C   0  0  0  0  0  0  0  0  0  0  0  0
  -19.5470   11.6310   36.3080 C   0  0  2  0  0  0  0  0  0  0  0  0
  -19.4220   12.6140   35.1660 N   0  0  0  0  0  0  0  0  0  0  0  0
  -19.9480   11.9350   33.9170 C   0  0  1  0  0  0  0  0  0  0  0  0
  -18.8510   11.1830   33.2440 C   0  0  0  0  0  0  0  0  0  0  0  0
  -17.7100   11.7170   32.8530 N   0  0  0  0  0  0  0  0  0  0  0  0
  -16.9990   10.6870   32.2840 C   0  0  0  0  0  0  0  0  0  0  0  0
  -15.7210   10.6890   31.7090 C   0  0  0  0  0  0  0  0  0  0  0  0
  -15.2190    9.4870   31.1920 C   0  0  0  0  0  0  0  0  0  0  0  0
  -15.9750    8.3140   31.2450 C   0  0  0  0  0  0  0  0  0  0  0  0
  -17.2530    8.2960   31.8150 C   0  0  0  0  0  0  0  0  0  0  0  0
  -17.7290    9.5060   32.3240 C   0  0  0  0  0  0  0  0  0  0  0  0
  -18.9100    9.8460   32.9340 N   0  0  0  0  0  0  0  0  0  0  0  0
  -21.0400   11.0350   34.4870 C   0  0  2  0  0  0  0  0  0  0  0  0
  -22.1800   11.8460   34.8180 O   0  0  0  0  0  0  0  0  0  0  0  0
  -20.4230   10.4730   35.7720 C   0  0  2  0  0  0  0  0  0  0  0  0
  -21.4810   10.0730   36.6370 O   0  0  0  0  0  0  0  0  0  0  0  0
  -19.7254   11.8694   38.4403 H   0  0  0  0  0  0  0  0  0  0  0  0
  -19.7535   13.4055   37.5096 H   0  0  0  0  0  0  0  0  0  0  0  0
  -21.1915   12.3290   37.5096 H   0  0  0  0  0  0  0  0  0  0  0  0
  -18.5939   11.1997   36.6480 H   0  0  0  0  0  0  0  0  0  0  0  0
  -18.4380   12.8760   35.0160 H   0  0  0  0  0  0  0  0  0  0  0  0
  -19.9850   13.4560   35.3380 H   0  0  0  0  0  0  0  0  0  0  0  0
  -20.3314   12.6102   33.1378 H   0  0  0  0  0  0  0  0  0  0  0  0
  -15.1255   11.6128   31.6645 H   0  0  0  0  0  0  0  0  0  0  0  0
  -14.2169    9.4672   30.7388 H   0  0  0  0  0  0  0  0  0  0  0  0
  -15.5572    7.3848   30.8301 H   0  0  0  0  0  0  0  0  0  0  0  0
  -17.8525    7.3748   31.8598 H   0  0  0  0  0  0  0  0  0  0  0  0
  -19.6760    9.2060   33.1080 H   0  0  0  0  0  0  0  0  0  0  0  0
  -21.3656   10.2474   33.7915 H   0  0  0  0  0  0  0  0  0  0  0  0
  -21.8360   12.7650   34.8960 H   0  0  0  0  0  0  0  0  0  0  0  0
  -19.7992    9.5755   35.6481 H   0  0  0  0  0  0  0  0  0  0  0  0
  -22.3340   10.2940   36.2140 H   0  0  0  0  0  0  0  0  0  0  0  0
  1  2  1  0
  2  3  1  0
  3  4  1  0
  4  5  1  0
  5  6  2  0
  6  7  1  0
  7  8  2  0
  8  9  1  0
  9 10  2  0
 10 11  1  0
 11 12  2  0
 12 13  1  0
  4 14  1  0
 14 15  1  0
 14 16  1  0
 16 17  1  0
 16  2  1  0
 13  5  1  0
 12  7  1  0
  1 18  1  0
  1 19  1  0
  1 20  1  0
  2 21  1  1
  3 22  1  0
  3 23  1  0
  4 24  1  6
  8 25  1  0
  9 26  1  0
 10 27  1  0
 11 28  1  0
 13 29  1  0
 14 30  1  6
 15 31  1  0
 16 32  1  6
 17 33  1  0
M  CHG  1   3   1
M  END
>  <meeko>  (4) 
{"is_sidechain": [false], "free_energy": -6.072, "intermolecular_energy": -6.925, "internal_energy": -0.153}

$$$$
4j28_ligand
     RDKit          3D

 33 35  0  0  0  0  0  0  0  0999 V2000
  -16.2670    8.5670   31.7860 C   0  0  0  0  0  0  0  0  0  0  0  0
  -16.3050    9.9390   32.4400 C   0  0  2  0  0  0  0  0  0  0  0  0
  -17.7060   10.4960   32.3270 N   0  0  0  0  0  0  0  0  0  0  0  0
  -17.5890   11.9520   31.9240 C   0  0  1  0  0  0  0  0  0  0  0  0
  -17.4640   12.8100   33.1360 C   0  0  0  0  0  0  0  0  0  0  0  0
  -17.9230   12.4860   34.3290 N   0  0  0  0  0  0  0  0  0  0  0  0
  -17.6040   13.5470   35.1450 C   0  0  0  0  0  0  0  0  0  0  0  0
  -17.8490   13.7330   36.5120 C   0  0  0  0  0  0  0  0  0  0  0  0
  -17.4150   14.9230   37.1120 C   0  0  0  0  0  0  0  0  0  0  0  0
  -16.7540   15.9020   36.3660 C   0  0  0  0  0  0  0  0  0  0  0  0
  -16.5030   15.7310   35.0000 C   0  0  0  0  0  0  0  0  0  0  0  0
  -16.9450   14.5370   34.4270 C   0  0  0  0  0  0  0  0  0  0  0  0
  -16.8730   14.0500   33.1470 N   0  0  0  0  0  0  0  0  0  0  0  0
  -16.3320   11.9370   31.0590 C   0  0  2  0  0  0  0  0  0  0  0  0
  -16.6570   11.3590   29.7830 O   0  0  0  0  0  0  0  0  0  0  0  0
  -15.3770   11.0060   31.8120 C   0  0  2  0  0  0  0  0  0  0  0  0
  -14.4230   10.4990   30.8840 O   0  0  0  0  0  0  0  0  0  0  0  0
  -16.2455    7.7902   32.5645 H   0  0  0  0  0  0  0  0  0  0  0  0
  -17.1618    8.4342   31.1602 H   0  0  0  0  0  0  0  0  0  0  0  0
  -15.3662    8.4840   31.1602 H   0  0  0  0  0  0  0  0  0  0  0  0
  -15.9634    9.7629   33.4707 H   0  0  0  0  0  0  0  0  0  0  0  0
  -18.1970   10.4370   33.2300 H   0  0  0  0  0  0  0  0  0  0  0  0
  -18.2450   10.0020   31.6050 H   0  0  0  0  0  0  0  0  0  0  0  0
  -18.4567   12.3647   31.3886 H   0  0  0  0  0  0  0  0  0  0  0  0
  -18.3697   12.9632   37.1004 H   0  0  0  0  0  0  0  0  0  0  0  0
  -17.5972   15.0883   38.1841 H   0  0  0  0  0  0  0  0  0  0  0  0
  -16.4240   16.8264   36.8627 H   0  0  0  0  0  0  0  0  0  0  0  0
  -15.9836   16.4986   34.4075 H   0  0  0  0  0  0  0  0  0  0  0  0
  -16.4560   14.5410   32.3640 H   0  0  0  0  0  0  0  0  0  0  0  0
  -15.9059   12.9366   30.8879 H   0  0  0  0  0  0  0  0  0  0  0  0
  -16.7920   12.1210   29.1750 H   0  0  0  0  0  0  0  0  0  0  0  0
  -14.7805   11.4778   32.6067 H   0  0  0  0  0  0  0  0  0  0  0  0
  -14.0550   11.2460   30.3720 H   0  0  0  0  0  0  0  0  0  0  0  0
  1  2  1  0
  2  3  1  0
  3  4  1  0
  4  5  1  0
  5  6  2  0
  6  7  1  0
  7  8  2  0
  8  9  1  0
  9 10  2  0
 10 11  1  0
 11 12  2  0
 12 13  1  0
  4 14  1  0
 14 15  1  0
 14 16  1  0
 16 17  1  0
 16  2  1  0
 13  5  1  0
 12  7  1  0
  1 18  1  0
  1 19  1  0
  1 20  1  0
  2 21  1  1
  3 22  1  0
  3 23  1  0
  4 24  1  6
  8 25  1  0
  9 26  1  0
 10 27  1  0
 11 28  1  0
 13 29  1  0
 14 30  1  6
 15 31  1  0
 16 32  1  1
 17 33  1  0
M  CHG  1   3   1
M  END
>  <meeko>  (5) 
{"is_sidechain": [false], "free_energy": -6.019, "intermolecular_energy": -6.723, "internal_energy": -0.297}

$$$$
4j28_ligand
     RDKit          3D

 33 35  0  0  0  0  0  0  0  0999 V2000
  -13.2980   15.7630   35.8950 C   0  0  0  0  0  0  0  0  0  0  0  0
  -13.9410   14.5190   35.3030 C   0  0  2  0  0  0  0  0  0  0  0  0
  -14.9330   14.9380   34.2430 N   0  0  0  0  0  0  0  0  0  0  0  0
  -16.1860   14.1050   34.4320 C   0  0  1  0  0  0  0  0  0  0  0  0
  -16.0730   12.8320   33.6660 C   0  0  0  0  0  0  0  0  0  0  0  0
  -15.3460   12.6790   32.5760 N   0  0  0  0  0  0  0  0  0  0  0  0
  -15.5270   11.3700   32.1950 C   0  0  0  0  0  0  0  0  0  0  0  0
  -14.9880   10.6680   31.1090 C   0  0  0  0  0  0  0  0  0  0  0  0
  -15.3380    9.3220   30.9430 C   0  0  0  0  0  0  0  0  0  0  0  0
  -16.2060    8.6920   31.8380 C   0  0  0  0  0  0  0  0  0  0  0  0
  -16.7540    9.3790   32.9270 C   0  0  0  0  0  0  0  0  0  0  0  0
  -16.3880   10.7190   33.0700 C   0  0  0  0  0  0  0  0  0  0  0  0
  -16.7300   11.6720   33.9960 N   0  0  0  0  0  0  0  0  0  0  0  0
  -16.2020   13.9040   35.9450 C   0  0  2  0  0  0  0  0  0  0  0  0
  -16.6300   15.1260   36.5680 O   0  0  0  0  0  0  0  0  0  0  0  0
  -14.7340   13.6380   36.2980 C   0  0  2  0  0  0  0  0  0  0  0  0
  -14.5410   13.9600   37.6710 O   0  0  0  0  0  0  0  0  0  0  0  0
  -13.3284   15.7043   36.9930 H   0  0  0  0  0  0  0  0  0  0  0  0
  -12.2523   15.8300   35.5602 H   0  0  0  0  0  0  0  0  0  0  0  0
  -13.8481   16.6548   35.5602 H   0  0  0  0  0  0  0  0  0  0  0  0
  -13.0959   13.9228   34.9282 H   0  0  0  0  0  0  0  0  0  0  0  0
  -14.5560   14.7670   33.3010 H   0  0  0  0  0  0  0  0  0  0  0  0
  -15.1860   15.9290   34.3420 H   0  0  0  0  0  0  0  0  0  0  0  0
  -17.1169   14.5610   34.0640 H   0  0  0  0  0  0  0  0  0  0  0  0
  -14.3053   11.1628   30.4026 H   0  0  0  0  0  0  0  0  0  0  0  0
  -14.9241    8.7537   30.0970 H   0  0  0  0  0  0  0  0  0  0  0  0
  -16.4641    7.6339   31.6835 H   0  0  0  0  0  0  0  0  0  0  0  0
  -17.4385    8.8883   33.6346 H   0  0  0  0  0  0  0  0  0  0  0  0
  -17.3620   11.5210   34.7740 H   0  0  0  0  0  0  0  0  0  0  0  0
  -16.8721   13.0954   36.2724 H   0  0  0  0  0  0  0  0  0  0  0  0
  -16.2470   15.8490   36.0200 H   0  0  0  0  0  0  0  0  0  0  0  0
  -14.4006   12.5944   36.1996 H   0  0  0  0  0  0  0  0  0  0  0  0
  -13.6220   13.7400   37.9200 H   0  0  0  0  0  0  0  0  0  0  0  0
  1  2  1  0
  2  3  1  0
  3  4  1  0
  4  5  1  0
  5  6  2  0
  6  7  1  0
  7  8  2  0
  8  9  1  0
  9 10  2  0
 10 11  1  0
 11 12  2  0
 12 13  1  0
  4 14  1  0
 14 15  1  0
 14 16  1  0
 16 17  1  0
 16  2  1  0
 13  5  1  0
 12  7  1  0
  1 18  1  0
  1 19  1  0
  1 20  1  0
  2 21  1  6
  3 22  1  0
  3 23  1  0
  4 24  1  6
  8 25  1  0
  9 26  1  0
 10 27  1  0
 11 28  1  0
 13 29  1  0
 14 30  1  6
 15 31  1  0
 16 32  1  1
 17 33  1  0
M  CHG  1   3   1
M  END
>  <meeko>  (6) 
{"is_sidechain": [false], "free_energy": -6.019, "intermolecular_energy": -6.72, "internal_energy": -0.3}

$$$$
4j28_ligand
     RDKit          3D

 33 35  0  0  0  0  0  0  0  0999 V2000
  -15.3530   11.0450   31.1230 C   0  0  0  0  0  0  0  0  0  0  0  0
  -16.3690   11.8520   31.9160 C   0  0  2  0  0  0  0  0  0  0  0  0
  -15.6520   12.5810   33.0290 N   0  0  0  0  0  0  0  0  0  0  0  0
  -16.4890   12.4370   34.2850 C   0  0  1  0  0  0  0  0  0  0  0  0
  -17.4930   13.5370   34.3590 C   0  0  0  0  0  0  0  0  0  0  0  0
  -17.2480   14.7930   34.0370 N   0  0  0  0  0  0  0  0  0  0  0  0
  -18.4290   15.4640   34.2540 C   0  0  0  0  0  0  0  0  0  0  0  0
  -18.7390   16.8170   34.0710 C   0  0  0  0  0  0  0  0  0  0  0  0
  -20.0370   17.2520   34.3720 C   0  0  0  0  0  0  0  0  0  0  0  0
  -21.0000   16.3580   34.8450 C   0  0  0  0  0  0  0  0  0  0  0  0
  -20.7060   15.0030   35.0340 C   0  0  0  0  0  0  0  0  0  0  0  0
  -19.4070   14.5960   34.7250 C   0  0  0  0  0  0  0  0  0  0  0  0
  -18.7860   13.3740   34.7920 N   0  0  0  0  0  0  0  0  0  0  0  0
  -17.1140   11.0590   34.0880 C   0  0  2  0  0  0  0  0  0  0  0  0
  -16.1150   10.0590   34.3490 O   0  0  0  0  0  0  0  0  0  0  0  0
  -17.4870   11.0310   32.6020 C   0  0  2  0  0  0  0  0  0  0  0  0
  -17.5720    9.6710   32.1890 O   0  0  0  0  0  0  0  0  0  0  0  0
  -14.6845   10.5140   31.8167 H   0  0  0  0  0  0  0  0  0  0  0  0
  -15.8784   10.3153   30.4893 H   0  0  0  0  0  0  0  0  0  0  0  0
  -14.7611   11.7219   30.4893 H   0  0  0  0  0  0  0  0  0  0  0  0
  -16.8443   12.5071   31.1711 H   0  0  0  0  0  0  0  0  0  0  0  0
  -15.5520   13.5810   32.8060 H   0  0  0  0  0  0  0  0  0  0  0  0
  -14.7280   12.1700   33.2080 H   0  0  0  0  0  0  0  0  0  0  0  0
  -15.9350   12.5105   35.2325 H   0  0  0  0  0  0  0  0  0  0  0  0
  -17.9812   17.5225   33.6995 H   0  0  0  0  0  0  0  0  0  0  0  0
  -20.3005   18.3110   34.2339 H   0  0  0  0  0  0  0  0  0  0  0  0
  -22.0108   16.7267   35.0738 H   0  0  0  0  0  0  0  0  0  0  0  0
  -21.4602   14.2946   35.4071 H   0  0  0  0  0  0  0  0  0  0  0  0
  -19.2250   12.5190   35.1120 H   0  0  0  0  0  0  0  0  0  0  0  0
  -17.9746   10.8700   34.7466 H   0  0  0  0  0  0  0  0  0  0  0  0
  -15.2500   10.5050   34.2010 H   0  0  0  0  0  0  0  0  0  0  0  0
  -18.4634   11.4688   32.3473 H   0  0  0  0  0  0  0  0  0  0  0  0
  -17.2260    9.1020   32.9040 H   0  0  0  0  0  0  0  0  0  0  0  0
  1  2  1  0
  2  3  1  0
  3  4  1  0
  4  5  1  0
  5  6  2  0
  6  7  1  0
  7  8  2  0
  8  9  1  0
  9 10  2  0
 10 11  1  0
 11 12  2  0
 12 13  1  0
  4 14  1  0
 14 15  1  0
 14 16  1  0
 16 17  1  0
 16  2  1  0
 13  5  1  0
 12  7  1  0
  1 18  1  0
  1 19  1  0
  1 20  1  0
  2 21  1  6
  3 22  1  0
  3 23  1  0
  4 24  1  1
  8 25  1  0
  9 26  1  0
 10 27  1  0
 11 28  1  0
 13 29  1  0
 14 30  1  1
 15 31  1  0
 16 32  1  1
 17 33  1  0
M  CHG  1   3   1
M  END
>  <meeko>  (7) 
{"is_sidechain": [false], "free_energy": -6.002, "intermolecular_energy": -6.73, "internal_energy": -0.27}

$$$$
4j28_ligand
     RDKit          3D

 33 35  0  0  0  0  0  0  0  0999 V2000
  -16.5040    9.2780   32.2030 C   0  0  0  0  0  0  0  0  0  0  0  0
  -16.0800   10.6450   32.7170 C   0  0  2  0  0  0  0  0  0  0  0  0
  -16.9430   11.0100   33.9030 N   0  0  0  0  0  0  0  0  0  0  0  0
  -17.3500   12.4610   33.7450 C   0  0  1  0  0  0  0  0  0  0  0  0
  -16.3230   13.3500   34.3580 C   0  0  0  0  0  0  0  0  0  0  0  0
  -15.3940   13.9950   33.6790 N   0  0  0  0  0  0  0  0  0  0  0  0
  -14.6650   14.6850   34.6200 C   0  0  0  0  0  0  0  0  0  0  0  0
  -13.5640   15.5350   34.4560 C   0  0  0  0  0  0  0  0  0  0  0  0
  -12.9960   16.1200   35.5950 C   0  0  0  0  0  0  0  0  0  0  0  0
  -13.5130   15.8620   36.8670 C   0  0  0  0  0  0  0  0  0  0  0  0
  -14.6110   15.0140   37.0480 C   0  0  0  0  0  0  0  0  0  0  0  0
  -15.1590   14.4450   35.8960 C   0  0  0  0  0  0  0  0  0  0  0  0
  -16.2110   13.5850   35.7070 N   0  0  0  0  0  0  0  0  0  0  0  0
  -17.4420   12.5960   32.2270 C   0  0  2  0  0  0  0  0  0  0  0  0
  -18.6490   11.9570   31.7800 O   0  0  0  0  0  0  0  0  0  0  0  0
  -16.2290   11.8130   31.7130 C   0  0  2  0  0  0  0  0  0  0  0  0
  -16.4900   11.4190   30.3690 O   0  0  0  0  0  0  0  0  0  0  0  0
  -16.7101    8.6136   33.0551 H   0  0  0  0  0  0  0  0  0  0  0  0
  -17.4121    9.3819   31.5910 H   0  0  0  0  0  0  0  0  0  0  0  0
  -15.6965    8.8497   31.5910 H   0  0  0  0  0  0  0  0  0  0  0  0
  -15.0097   10.5348   32.9457 H   0  0  0  0  0  0  0  0  0  0  0  0
  -16.4190   10.9030   34.7830 H   0  0  0  0  0  0  0  0  0  0  0  0
  -17.7950   10.4360   33.9340 H   0  0  0  0  0  0  0  0  0  0  0  0
  -18.2875   12.7458   34.2450 H   0  0  0  0  0  0  0  0  0  0  0  0
  -13.1546   15.7386   33.4555 H   0  0  0  0  0  0  0  0  0  0  0  0
  -12.1315   16.7914   35.4865 H   0  0  0  0  0  0  0  0  0  0  0  0
  -13.0473   16.3352   37.7441 H   0  0  0  0  0  0  0  0  0  0  0  0
  -15.0219   14.8059   38.0469 H   0  0  0  0  0  0  0  0  0  0  0  0
  -16.7860   13.2030   36.4480 H   0  0  0  0  0  0  0  0  0  0  0  0
  -17.4538   13.6396   31.8794 H   0  0  0  0  0  0  0  0  0  0  0  0
  -18.7780   12.2580   30.8520 H   0  0  0  0  0  0  0  0  0  0  0  0
  -15.2834   12.3733   31.6690 H   0  0  0  0  0  0  0  0  0  0  0  0
  -17.3620   11.7710   30.1010 H   0  0  0  0  0  0  0  0  0  0  0  0
  1  2  1  0
  2  3  1  0
  3  4  1  0
  4  5  1  0
  5  6  2  0
  6  7  1  0
  7  8  2  0
  8  9  1  0
  9 10  2  0
 10 11  1  0
 11 12  2  0
 12 13  1  0
  4 14  1  0
 14 15  1  0
 14 16  1  0
 16 17  1  0
 16  2  1  0
 13  5  1  0
 12  7  1  0
  1 18  1  0
  1 19  1  0
  1 20  1  0
  2 21  1  1
  3 22  1  0
  3 23  1  0
  4 24  1  1
  8 25  1  0
  9 26  1  0
 10 27  1  0
 11 28  1  0
 13 29  1  0
 14 30  1  1
 15 31  1  0
 16 32  1  6
 17 33  1  0
M  CHG  1   3   1
M  END
>  <meeko>  (8) 
{"is_sidechain": [false], "free_energy": -6.0, "intermolecular_energy": -7.094, "internal_energy": 0.096}

$$$$
4j28_ligand
     RDKit          3D

 33 35  0  0  0  0  0  0  0  0999 V2000
  -16.5140   16.0350   36.2900 C   0  0  0  0  0  0  0  0  0  0  0  0
  -16.1800   14.9000   35.3350 C   0  0  2  0  0  0  0  0  0  0  0  0
  -15.8360   13.6680   36.1410 N   0  0  0  0  0  0  0  0  0  0  0  0
  -14.6120   13.0350   35.5110 C   0  0  1  0  0  0  0  0  0  0  0  0
  -15.0220   12.0840   34.4390 C   0  0  0  0  0  0  0  0  0  0  0  0
  -15.8310   11.0580   34.6210 N   0  0  0  0  0  0  0  0  0  0  0  0
  -15.9370   10.4520   33.3910 C   0  0  0  0  0  0  0  0  0  0  0  0
  -16.6710    9.3220   33.0070 C   0  0  0  0  0  0  0  0  0  0  0  0
  -16.6060    8.9050   31.6710 C   0  0  0  0  0  0  0  0  0  0  0  0
  -15.8260    9.5970   30.7420 C   0  0  0  0  0  0  0  0  0  0  0  0
  -15.0860   10.7270   31.1090 C   0  0  0  0  0  0  0  0  0  0  0  0
  -15.1690   11.1220   32.4460 C   0  0  0  0  0  0  0  0  0  0  0  0
  -14.5880   12.1550   33.1370 N   0  0  0  0  0  0  0  0  0  0  0  0
  -13.8640   14.2560   34.9850 C   0  0  2  0  0  0  0  0  0  0  0  0
  -13.2440   14.9300   36.0930 O   0  0  0  0  0  0  0  0  0  0  0  0
  -14.9690   15.1440   34.4030 C   0  0  2  0  0  0  0  0  0  0  0  0
  -14.4950   16.4870   34.3750 O   0  0  0  0  0  0  0  0  0  0  0  0
  -16.4107   15.6838   37.3273 H   0  0  0  0  0  0  0  0  0  0  0  0
  -15.8249   16.8747   36.1168 H   0  0  0  0  0  0  0  0  0  0  0  0
  -17.5481   16.3676   36.1168 H   0  0  0  0  0  0  0  0  0  0  0  0
  -17.0743   14.7990   34.7026 H   0  0  0  0  0  0  0  0  0  0  0  0
  -16.6110   12.9900   36.1210 H   0  0  0  0  0  0  0  0  0  0  0  0
  -15.6110   13.9110   37.1130 H   0  0  0  0  0  0  0  0  0  0  0  0
  -13.9927   12.4287   36.1884 H   0  0  0  0  0  0  0  0  0  0  0  0
  -17.2844    8.7746   33.7379 H   0  0  0  0  0  0  0  0  0  0  0  0
  -17.1767    8.0212   31.3497 H   0  0  0  0  0  0  0  0  0  0  0  0
  -15.7925    9.2466   29.6998 H   0  0  0  0  0  0  0  0  0  0  0  0
  -14.4703   11.2760   30.3813 H   0  0  0  0  0  0  0  0  0  0  0  0
  -13.9520   12.8340   32.7360 H   0  0  0  0  0  0  0  0  0  0  0  0
  -13.0844   14.0082   34.2496 H   0  0  0  0  0  0  0  0  0  0  0  0
  -13.4270   14.3670   36.8800 H   0  0  0  0  0  0  0  0  0  0  0  0
  -15.2613   14.9224   33.3660 H   0  0  0  0  0  0  0  0  0  0  0  0
  -13.5780   16.4900   34.0360 H   0  0  0  0  0  0  0  0  0  0  0  0
  1  2  1  0
  2  3  1  0
  3  4  1  0
  4  5  1  0
  5  6  2  0
  6  7  1  0
  7  8  2  0
  8  9  1  0
  9 10  2  0
 10 11  1  0
 11 12  2  0
 12 13  1  0
  4 14  1  0
 14 15  1  0
 14 16  1  0
 16 17  1  0
 16  2  1  0
 13  5  1  0
 12  7  1  0
  1 18  1  0
  1 19  1  0
  1 20  1  0
  2 21  1  6
  3 22  1  0
  3 23  1  0
  4 24  1  1
  8 25  1  0
  9 26  1  0
 10 27  1  0
 11 28  1  0
 13 29  1  0
 14 30  1  6
 15 31  1  0
 16 32  1  6
 17 33  1  0
M  CHG  1   3   1
M  END
>  <meeko>  (9) 
{"is_sidechain": [false], "free_energy": -5.786, "intermolecular_energy": -6.614, "internal_energy": -0.145}

$$$$
