3kgp_ligand
     RDKit          3D

 20 20  0  0  0  0  0  0  0  0999 V2000
  -31.8920   90.5890  -12.2300 N   0  0  0  0  0  0  0  0  0  0  0  0
  -32.0530   89.4580  -11.2890 C   0  0  0  0  0  0  0  0  0  0  0  0
  -30.7370   88.7770  -11.1130 C   0  0  0  0  0  0  0  0  0  0  0  0
  -29.8620   88.6470  -12.2010 C   0  0  0  0  0  0  0  0  0  0  0  0
  -28.7060   87.8810  -12.0780 C   0  0  0  0  0  0  0  0  0  0  0  0
  -28.4000   87.2280  -10.8750 C   0  0  0  0  0  0  0  0  0  0  0  0
  -27.1690   86.3520  -10.7620 C   0  0  0  0  0  0  0  0  0  0  0  0
  -27.1270   85.3310  -11.5150 O   0  0  0  0  0  0  0  0  0  0  0  0
  -26.2970   86.7040   -9.9110 O   0  0  0  0  0  0  0  0  0  0  0  0
  -29.2650   87.3910   -9.7830 C   0  0  0  0  0  0  0  0  0  0  0  0
  -30.4240   88.1560   -9.8970 C   0  0  0  0  0  0  0  0  0  0  0  0
  -32.7190   91.1900  -12.2710 H   0  0  0  0  0  0  0  0  0  0  0  0
  -31.0750   91.1500  -11.9560 H   0  0  0  0  0  0  0  0  0  0  0  0
  -31.6850   90.2280  -13.1700 H   0  0  0  0  0  0  0  0  0  0  0  0
  -32.4055   89.8347  -10.3175 H   0  0  0  0  0  0  0  0  0  0  0  0
  -32.7883   88.7447  -11.6898 H   0  0  0  0  0  0  0  0  0  0  0  0
  -30.0891   89.1506  -13.1522 H   0  0  0  0  0  0  0  0  0  0  0  0
  -28.0236   87.7866  -12.9356 H   0  0  0  0  0  0  0  0  0  0  0  0
  -29.0253   86.9086   -8.8240 H   0  0  0  0  0  0  0  0  0  0  0  0
  -31.0934   88.2723   -9.0319 H   0  0  0  0  0  0  0  0  0  0  0  0
  1  2  1  0
  2  3  1  0
  3  4  2  0
  4  5  1  0
  5  6  2  0
  6  7  1  0
  7  8  2  0
  7  9  1  0
  6 10  1  0
 10 11  2  0
 11  3  1  0
  1 12  1  0
  1 13  1  0
  1 14  1  0
  2 15  1  0
  2 16  1  0
  4 17  1  0
  5 18  1  0
 10 19  1  0
 11 20  1  0
M  CHG  2   1   1   9  -1
M  END
>  <meeko>  (1) 
{"is_sidechain": [false], "free_energy": -5.698, "intermolecular_energy": -6.53, "internal_energy": -0.065}

$$$$
3kgp_ligand
     RDKit          3D

 20 20  0  0  0  0  0  0  0  0999 V2000
  -31.6570   90.5580  -12.3760 N   0  0  0  0  0  0  0  0  0  0  0  0
  -31.9240   89.5510  -11.3240 C   0  0  0  0  0  0  0  0  0  0  0  0
  -30.7470   88.6410  -11.2090 C   0  0  0  0  0  0  0  0  0  0  0  0
  -30.4010   88.0950   -9.9660 C   0  0  0  0  0  0  0  0  0  0  0  0
  -29.2190   87.3710   -9.8260 C   0  0  0  0  0  0  0  0  0  0  0  0
  -28.3590   87.1810  -10.9190 C   0  0  0  0  0  0  0  0  0  0  0  0
  -27.0480   86.4410  -10.7500 C   0  0  0  0  0  0  0  0  0  0  0  0
  -26.8000   85.5260  -11.5940 O   0  0  0  0  0  0  0  0  0  0  0  0
  -26.3220   86.7860   -9.7690 O   0  0  0  0  0  0  0  0  0  0  0  0
  -28.7310   87.7040  -12.1650 C   0  0  0  0  0  0  0  0  0  0  0  0
  -29.9110   88.4300  -12.3130 C   0  0  0  0  0  0  0  0  0  0  0  0
  -32.4750   91.1340  -12.5880 H   0  0  0  0  0  0  0  0  0  0  0  0
  -30.8790   91.1630  -12.0830 H   0  0  0  0  0  0  0  0  0  0  0  0
  -31.3410   90.0850  -13.2320 H   0  0  0  0  0  0  0  0  0  0  0  0
  -32.0926   90.0584  -10.3627 H   0  0  0  0  0  0  0  0  0  0  0  0
  -32.8187   88.9680  -11.5877 H   0  0  0  0  0  0  0  0  0  0  0  0
  -31.0634   88.2381   -9.0996 H   0  0  0  0  0  0  0  0  0  0  0  0
  -28.9565   86.9431   -8.8472 H   0  0  0  0  0  0  0  0  0  0  0  0
  -28.0825   87.5390  -13.0380 H   0  0  0  0  0  0  0  0  0  0  0  0
  -30.1861   88.8375  -13.2970 H   0  0  0  0  0  0  0  0  0  0  0  0
  1  2  1  0
  2  3  1  0
  3  4  2  0
  4  5  1  0
  5  6  2  0
  6  7  1  0
  7  8  2  0
  7  9  1  0
  6 10  1  0
 10 11  2  0
 11  3  1  0
  1 12  1  0
  1 13  1  0
  1 14  1  0
  2 15  1  0
  2 16  1  0
  4 17  1  0
  5 18  1  0
 10 19  1  0
 11 20  1  0
M  CHG  2   1   1   9  -1
M  END
>  <meeko>  (2) 
{"is_sidechain": [false], "free_energy": -5.669, "intermolecular_energy": -6.49, "internal_energy": -0.073}

$$$$
3kgp_ligand
     RDKit          3D

 20 20  0  0  0  0  0  0  0  0999 V2000
  -25.9330   85.7550  -10.4830 N   0  0  0  0  0  0  0  0  0  0  0  0
  -26.6830   85.9600  -11.7430 C   0  0  0  0  0  0  0  0  0  0  0  0
  -27.8460   86.8570  -11.4790 C   0  0  0  0  0  0  0  0  0  0  0  0
  -28.4970   86.8160  -10.2380 C   0  0  0  0  0  0  0  0  0  0  0  0
  -29.6720   87.5380  -10.0430 C   0  0  0  0  0  0  0  0  0  0  0  0
  -30.2230   88.3080  -11.0780 C   0  0  0  0  0  0  0  0  0  0  0  0
  -31.5300   89.0480  -10.8780 C   0  0  0  0  0  0  0  0  0  0  0  0
  -32.0360   89.0050   -9.7150 O   0  0  0  0  0  0  0  0  0  0  0  0
  -32.0150   89.6290  -11.8960 O   0  0  0  0  0  0  0  0  0  0  0  0
  -29.5460   88.3680  -12.3040 C   0  0  0  0  0  0  0  0  0  0  0  0
  -28.3710   87.6490  -12.5080 C   0  0  0  0  0  0  0  0  0  0  0  0
  -25.8290   84.7660  -10.2430 H   0  0  0  0  0  0  0  0  0  0  0  0
  -25.0050   86.1870  -10.5630 H   0  0  0  0  0  0  0  0  0  0  0  0
  -26.4100   86.2440   -9.7160 H   0  0  0  0  0  0  0  0  0  0  0  0
  -26.0241   86.4223  -12.4927 H   0  0  0  0  0  0  0  0  0  0  0  0
  -27.0408   84.9917  -12.1229 H   0  0  0  0  0  0  0  0  0  0  0  0
  -28.0796   86.2133   -9.4179 H   0  0  0  0  0  0  0  0  0  0  0  0
  -30.1743   87.5040   -9.0650 H   0  0  0  0  0  0  0  0  0  0  0  0
  -29.9484   88.9915  -13.1160 H   0  0  0  0  0  0  0  0  0  0  0  0
  -27.8549   87.7031  -13.4779 H   0  0  0  0  0  0  0  0  0  0  0  0
  1  2  1  0
  2  3  1  0
  3  4  2  0
  4  5  1  0
  5  6  2  0
  6  7  1  0
  7  8  2  0
  7  9  1  0
  6 10  1  0
 10 11  2  0
 11  3  1  0
  1 12  1  0
  1 13  1  0
  1 14  1  0
  2 15  1  0
  2 16  1  0
  4 17  1  0
  5 18  1  0
 10 19  1  0
 11 20  1  0
M  CHG  2   1   1   9  -1
M  END
>  <meeko>  (3) 
{"is_sidechain": [false], "free_energy": -5.033, "intermolecular_energy": -5.757, "internal_energy": -0.076}

$$$$
3kgp_ligand
     RDKit          3D

 20 20  0  0  0  0  0  0  0  0999 V2000
  -26.7570   84.8120  -10.5890 N   0  0  0  0  0  0  0  0  0  0  0  0
  -26.7050   86.0510  -11.3970 C   0  0  0  0  0  0  0  0  0  0  0  0
  -28.0260   86.7400  -11.3210 C   0  0  0  0  0  0  0  0  0  0  0  0
  -28.4370   87.5870  -12.3590 C   0  0  0  0  0  0  0  0  0  0  0  0
  -29.5950   88.3480  -12.2210 C   0  0  0  0  0  0  0  0  0  0  0  0
  -30.3630   88.2830  -11.0480 C   0  0  0  0  0  0  0  0  0  0  0  0
  -31.5920   89.1530  -10.8800 C   0  0  0  0  0  0  0  0  0  0  0  0
  -32.1810   89.0940   -9.7580 O   0  0  0  0  0  0  0  0  0  0  0  0
  -31.9370   89.8490  -11.8830 O   0  0  0  0  0  0  0  0  0  0  0  0
  -29.9610   87.4080  -10.0290 C   0  0  0  0  0  0  0  0  0  0  0  0
  -28.8030   86.6430  -10.1590 C   0  0  0  0  0  0  0  0  0  0  0  0
  -26.5490   84.9750   -9.6010 H   0  0  0  0  0  0  0  0  0  0  0  0
  -27.6880   84.3850  -10.6760 H   0  0  0  0  0  0  0  0  0  0  0  0
  -26.0930   84.1250  -10.9690 H   0  0  0  0  0  0  0  0  0  0  0  0
  -25.9206   86.7144  -11.0038 H   0  0  0  0  0  0  0  0  0  0  0  0
  -26.4774   85.8011  -12.4438 H   0  0  0  0  0  0  0  0  0  0  0  0
  -27.8444   87.6508  -13.2835 H   0  0  0  0  0  0  0  0  0  0  0  0
  -29.9118   89.0084  -13.0416 H   0  0  0  0  0  0  0  0  0  0  0  0
  -30.5673   87.3241   -9.1150 H   0  0  0  0  0  0  0  0  0  0  0  0
  -28.4992   85.9632   -9.3494 H   0  0  0  0  0  0  0  0  0  0  0  0
  1  2  1  0
  2  3  1  0
  3  4  2  0
  4  5  1  0
  5  6  2  0
  6  7  1  0
  7  8  2  0
  7  9  1  0
  6 10  1  0
 10 11  2  0
 11  3  1  0
  1 12  1  0
  1 13  1  0
  1 14  1  0
  2 15  1  0
  2 16  1  0
  4 17  1  0
  5 18  1  0
 10 19  1  0
 11 20  1  0
M  CHG  2   1   1   9  -1
M  END
>  <meeko>  (4) 
{"is_sidechain": [false], "free_energy": -4.995, "intermolecular_energy": -5.714, "internal_energy": -0.076}

$$$$
3kgp_ligand
     RDKit          3D

 20 20  0  0  0  0  0  0  0  0999 V2000
  -25.5630   83.8880  -10.1640 N   0  0  0  0  0  0  0  0  0  0  0  0
  -26.1470   84.0240  -11.5180 C   0  0  0  0  0  0  0  0  0  0  0  0
  -27.2070   85.0740  -11.4890 C   0  0  0  0  0  0  0  0  0  0  0  0
  -27.0720   86.2300  -12.2700 C   0  0  0  0  0  0  0  0  0  0  0  0
  -27.9810   87.2770  -12.1300 C   0  0  0  0  0  0  0  0  0  0  0  0
  -29.0360   87.1940  -11.2090 C   0  0  0  0  0  0  0  0  0  0  0  0
  -29.9900   88.3560  -11.0210 C   0  0  0  0  0  0  0  0  0  0  0  0
  -29.7260   89.1600  -10.0750 O   0  0  0  0  0  0  0  0  0  0  0  0
  -30.9790   88.4130  -11.8120 O   0  0  0  0  0  0  0  0  0  0  0  0
  -29.1810   86.0200  -10.4570 C   0  0  0  0  0  0  0  0  0  0  0  0
  -28.2770   84.9680  -10.5900 C   0  0  0  0  0  0  0  0  0  0  0  0
  -25.7870   82.9910   -9.7260 H   0  0  0  0  0  0  0  0  0  0  0  0
  -24.5430   83.9960  -10.2180 H   0  0  0  0  0  0  0  0  0  0  0  0
  -25.8990   84.6540   -9.5670 H   0  0  0  0  0  0  0  0  0  0  0  0
  -25.3609   84.3137  -12.2309 H   0  0  0  0  0  0  0  0  0  0  0  0
  -26.5841   83.0644  -11.8313 H   0  0  0  0  0  0  0  0  0  0  0  0
  -26.2479   86.3109  -12.9940 H   0  0  0  0  0  0  0  0  0  0  0  0
  -27.8700   88.1794  -12.7491 H   0  0  0  0  0  0  0  0  0  0  0  0
  -30.0203   85.9279   -9.7519 H   0  0  0  0  0  0  0  0  0  0  0  0
  -28.4031   84.0549   -9.9898 H   0  0  0  0  0  0  0  0  0  0  0  0
  1  2  1  0
  2  3  1  0
  3  4  2  0
  4  5  1  0
  5  6  2  0
  6  7  1  0
  7  8  2  0
  7  9  1  0
  6 10  1  0
 10 11  2  0
 11  3  1  0
  1 12  1  0
  1 13  1  0
  1 14  1  0
  2 15  1  0
  2 16  1  0
  4 17  1  0
  5 18  1  0
 10 19  1  0
 11 20  1  0
M  CHG  2   1   1   9  -1
M  END
>  <meeko>  (5) 
{"is_sidechain": [false], "free_energy": -4.757, "intermolecular_energy": -5.456, "internal_energy": -0.062}

$$$$
3kgp_ligand
     RDKit          3D

 20 20  0  0  0  0  0  0  0  0999 V2000
  -29.5860   84.5380  -15.0330 N   0  0  0  0  0  0  0  0  0  0  0  0
  -28.4370   84.6850  -14.1120 C   0  0  0  0  0  0  0  0  0  0  0  0
  -28.7570   85.7270  -13.0940 C   0  0  0  0  0  0  0  0  0  0  0  0
  -28.8780   85.3750  -11.7430 C   0  0  0  0  0  0  0  0  0  0  0  0
  -29.3260   86.3130  -10.8150 C   0  0  0  0  0  0  0  0  0  0  0  0
  -29.6640   87.6150  -11.2140 C   0  0  0  0  0  0  0  0  0  0  0  0
  -30.2030   88.6150  -10.2120 C   0  0  0  0  0  0  0  0  0  0  0  0
  -31.4520   88.8310  -10.2400 O   0  0  0  0  0  0  0  0  0  0  0  0
  -29.3540   89.1630   -9.4450 O   0  0  0  0  0  0  0  0  0  0  0  0
  -29.5080   87.9660  -12.5630 C   0  0  0  0  0  0  0  0  0  0  0  0
  -29.0610   87.0340  -13.4970 C   0  0  0  0  0  0  0  0  0  0  0  0
  -29.7330   83.5700  -15.3310 H   0  0  0  0  0  0  0  0  0  0  0  0
  -30.4380   84.8880  -14.5770 H   0  0  0  0  0  0  0  0  0  0  0  0
  -29.4420   85.1320  -15.8590 H   0  0  0  0  0  0  0  0  0  0  0  0
  -28.2432   83.7261  -13.6091 H   0  0  0  0  0  0  0  0  0  0  0  0
  -27.5433   84.9838  -14.6795 H   0  0  0  0  0  0  0  0  0  0  0  0
  -28.6191   84.3575  -11.4148 H   0  0  0  0  0  0  0  0  0  0  0  0
  -29.4158   86.0291   -9.7561 H   0  0  0  0  0  0  0  0  0  0  0  0
  -29.7417   88.9907  -12.8877 H   0  0  0  0  0  0  0  0  0  0  0  0
  -28.9466   87.3245  -14.5518 H   0  0  0  0  0  0  0  0  0  0  0  0
  1  2  1  0
  2  3  1  0
  3  4  2  0
  4  5  1  0
  5  6  2  0
  6  7  1  0
  7  8  2  0
  7  9  1  0
  6 10  1  0
 10 11  2  0
 11  3  1  0
  1 12  1  0
  1 13  1  0
  1 14  1  0
  2 15  1  0
  2 16  1  0
  4 17  1  0
  5 18  1  0
 10 19  1  0
 11 20  1  0
M  CHG  2   1   1   9  -1
M  END
>  <meeko>  (6) 
{"is_sidechain": [false], "free_energy": -4.666, "intermolecular_energy": -5.351, "internal_energy": -0.062}

$$$$
3kgp_ligand
     RDKit          3D

 20 20  0  0  0  0  0  0  0  0999 V2000
  -32.0680   88.8250   -9.6690 N   0  0  0  0  0  0  0  0  0  0  0  0
  -30.9470   87.9700   -9.2160 C   0  0  0  0  0  0  0  0  0  0  0  0
  -29.9360   87.8700  -10.3080 C   0  0  0  0  0  0  0  0  0  0  0  0
  -30.2570   88.2980  -11.6030 C   0  0  0  0  0  0  0  0  0  0  0  0
  -29.3730   88.0650  -12.6540 C   0  0  0  0  0  0  0  0  0  0  0  0
  -28.1570   87.3990  -12.4370 C   0  0  0  0  0  0  0  0  0  0  0  0
  -27.2230   87.1000  -13.5920 C   0  0  0  0  0  0  0  0  0  0  0  0
  -26.9270   88.0720  -14.3510 O   0  0  0  0  0  0  0  0  0  0  0  0
  -26.8340   85.8980  -13.7100 O   0  0  0  0  0  0  0  0  0  0  0  0
  -27.8310   87.0050  -11.1310 C   0  0  0  0  0  0  0  0  0  0  0  0
  -28.7100   87.2330  -10.0750 C   0  0  0  0  0  0  0  0  0  0  0  0
  -31.9250   89.1970  -10.6110 H   0  0  0  0  0  0  0  0  0  0  0  0
  -32.9420   88.2860   -9.6440 H   0  0  0  0  0  0  0  0  0  0  0  0
  -32.1950   89.6030   -9.0100 H   0  0  0  0  0  0  0  0  0  0  0  0
  -30.4823   88.4145   -8.3236 H   0  0  0  0  0  0  0  0  0  0  0  0
  -31.3236   86.9669   -8.9672 H   0  0  0  0  0  0  0  0  0  0  0  0
  -31.2079   88.8184  -11.7899 H   0  0  0  0  0  0  0  0  0  0  0  0
  -29.6314   88.4074  -13.6669 H   0  0  0  0  0  0  0  0  0  0  0  0
  -26.8682   86.5093  -10.9382 H   0  0  0  0  0  0  0  0  0  0  0  0
  -28.4416   86.9128   -9.0574 H   0  0  0  0  0  0  0  0  0  0  0  0
  1  2  1  0
  2  3  1  0
  3  4  2  0
  4  5  1  0
  5  6  2  0
  6  7  1  0
  7  8  2  0
  7  9  1  0
  6 10  1  0
 10 11  2  0
 11  3  1  0
  1 12  1  0
  1 13  1  0
  1 14  1  0
  2 15  1  0
  2 16  1  0
  4 17  1  0
  5 18  1  0
 10 19  1  0
 11 20  1  0
M  CHG  2   1   1   9  -1
M  END
>  <meeko>  (7) 
{"is_sidechain": [false], "free_energy": -4.624, "intermolecular_energy": -5.292, "internal_energy": -0.072}

$$$$
3kgp_ligand
     RDKit          3D

 20 20  0  0  0  0  0  0  0  0999 V2000
  -31.7390   88.8430  -10.1290 N   0  0  0  0  0  0  0  0  0  0  0  0
  -30.5040   89.0280  -10.9240 C   0  0  0  0  0  0  0  0  0  0  0  0
  -29.9300   87.6910  -11.2530 C   0  0  0  0  0  0  0  0  0  0  0  0
  -29.4400   86.8670  -10.2320 C   0  0  0  0  0  0  0  0  0  0  0  0
  -28.7660   85.6890  -10.5480 C   0  0  0  0  0  0  0  0  0  0  0  0
  -28.5650   85.3130  -11.8850 C   0  0  0  0  0  0  0  0  0  0  0  0
  -27.7850   84.0600  -12.2250 C   0  0  0  0  0  0  0  0  0  0  0  0
  -26.9540   83.6540  -11.3560 O   0  0  0  0  0  0  0  0  0  0  0  0
  -28.0160   83.5370  -13.3580 O   0  0  0  0  0  0  0  0  0  0  0  0
  -29.0880   86.1290  -12.8980 C   0  0  0  0  0  0  0  0  0  0  0  0
  -29.7630   87.3080  -12.5900 C   0  0  0  0  0  0  0  0  0  0  0  0
  -32.2940   89.7000  -10.0560 H   0  0  0  0  0  0  0  0  0  0  0  0
  -32.3110   88.1010  -10.5510 H   0  0  0  0  0  0  0  0  0  0  0  0
  -31.4950   88.5130   -9.1870 H   0  0  0  0  0  0  0  0  0  0  0  0
  -30.7416   89.5657  -11.8538 H   0  0  0  0  0  0  0  0  0  0  0  0
  -29.7741   89.6120  -10.3441 H   0  0  0  0  0  0  0  0  0  0  0  0
  -29.5874   87.1501   -9.1793 H   0  0  0  0  0  0  0  0  0  0  0  0
  -28.3870   85.0462   -9.7398 H   0  0  0  0  0  0  0  0  0  0  0  0
  -28.9636   85.8342  -13.9504 H   0  0  0  0  0  0  0  0  0  0  0  0
  -30.1650   87.9384  -13.3969 H   0  0  0  0  0  0  0  0  0  0  0  0
  1  2  1  0
  2  3  1  0
  3  4  2  0
  4  5  1  0
  5  6  2  0
  6  7  1  0
  7  8  2  0
  7  9  1  0
  6 10  1  0
 10 11  2  0
 11  3  1  0
  1 12  1  0
  1 13  1  0
  1 14  1  0
  2 15  1  0
  2 16  1  0
  4 17  1  0
  5 18  1  0
 10 19  1  0
 11 20  1  0
M  CHG  2   1   1   9  -1
M  END
>  <meeko>  (8) 
{"is_sidechain": [false], "free_energy": -4.385, "intermolecular_energy": -5.025, "internal_energy": -0.066}

$$$$
3kgp_ligand
     RDKit          3D

 20 20  0  0  0  0  0  0  0  0999 V2000
  -30.3510   83.7880  -15.1480 N   0  0  0  0  0  0  0  0  0  0  0  0
  -28.9280   84.1960  -15.1560 C   0  0  0  0  0  0  0  0  0  0  0  0
  -28.6330   84.9650  -13.9120 C   0  0  0  0  0  0  0  0  0  0  0  0
  -27.5700   85.8770  -13.8850 C   0  0  0  0  0  0  0  0  0  0  0  0
  -27.1980   86.4800  -12.6860 C   0  0  0  0  0  0  0  0  0  0  0  0
  -27.8730   86.1840  -11.4920 C   0  0  0  0  0  0  0  0  0  0  0  0
  -27.4310   86.8000  -10.1810 C   0  0  0  0  0  0  0  0  0  0  0  0
  -26.1910   86.7460   -9.9170 O   0  0  0  0  0  0  0  0  0  0  0  0
  -28.3410   87.2980   -9.4510 O   0  0  0  0  0  0  0  0  0  0  0  0
  -28.9570   85.2950  -11.5360 C   0  0  0  0  0  0  0  0  0  0  0  0
  -29.3350   84.6870  -12.7310 C   0  0  0  0  0  0  0  0  0  0  0  0
  -30.4760   82.7870  -15.3240 H   0  0  0  0  0  0  0  0  0  0  0  0
  -30.7720   84.0300  -14.2430 H   0  0  0  0  0  0  0  0  0  0  0  0
  -30.8670   84.3260  -15.8550 H   0  0  0  0  0  0  0  0  0  0  0  0
  -28.2887   83.3017  -15.1964 H   0  0  0  0  0  0  0  0  0  0  0  0
  -28.7279   84.8247  -16.0362 H   0  0  0  0  0  0  0  0  0  0  0  0
  -27.0285   86.1171  -14.8119 H   0  0  0  0  0  0  0  0  0  0  0  0
  -26.3643   87.1975  -12.6749 H   0  0  0  0  0  0  0  0  0  0  0  0
  -29.5161   85.0750  -10.6146 H   0  0  0  0  0  0  0  0  0  0  0  0
  -30.1846   83.9885  -12.7478 H   0  0  0  0  0  0  0  0  0  0  0  0
  1  2  1  0
  2  3  1  0
  3  4  2  0
  4  5  1  0
  5  6  2  0
  6  7  1  0
  7  8  2  0
  7  9  1  0
  6 10  1  0
 10 11  2  0
 11  3  1  0
  1 12  1  0
  1 13  1  0
  1 14  1  0
  2 15  1  0
  2 16  1  0
  4 17  1  0
  5 18  1  0
 10 19  1  0
 11 20  1  0
M  CHG  2   1   1   9  -1
M  END
>  <meeko>  (9) 
{"is_sidechain": [false], "free_energy": -3.863, "intermolecular_energy": -4.423, "internal_energy": -0.069}

$$$$
