2qbr_ligand
     RDKit          3D

 42 44  0  0  0  0  0  0  0  0999 V2000
   49.1820   17.9270    5.0060 O   0  0  0  0  0  0  0  0  0  0  0  0
   48.1680   17.1830    5.1850 C   0  0  0  0  0  0  0  0  0  0  0  0
   47.2600   17.3090    6.0640 O   0  0  0  0  0  0  0  0  0  0  0  0
   48.0690   15.9390    4.2740 C   0  0  0  0  0  0  0  0  0  0  0  0
   46.8510   15.1950    4.5120 O   0  0  0  0  0  0  0  0  0  0  0  0
   46.1080   15.0830    3.3820 C   0  0  0  0  0  0  0  0  0  0  0  0
   45.1730   16.0090    2.9540 C   0  0  0  0  0  0  0  0  0  0  0  0
   44.7990   17.4040    3.6220 C   0  0  0  0  0  0  0  0  0  0  0  0
   44.7170   18.4040    2.8350 O   0  0  0  0  0  0  0  0  0  0  0  0
   44.6300   17.4580    4.8800 O   0  0  0  0  0  0  0  0  0  0  0  0
   44.3840   15.4690    1.5230 S   0  0  0  0  0  0  0  0  0  0  0  0
   45.3440   14.0520    1.4200 C   0  0  0  0  0  0  0  0  0  0  0  0
   45.0700   13.0770    0.3580 C   0  0  0  0  0  0  0  0  0  0  0  0
   44.7280   13.4780   -0.9400 C   0  0  0  0  0  0  0  0  0  0  0  0
   44.4250   12.5290   -1.9180 C   0  0  0  0  0  0  0  0  0  0  0  0
   44.4680   11.1690   -1.6070 C   0  0  0  0  0  0  0  0  0  0  0  0
   44.8380   10.7460   -0.3290 C   0  0  0  0  0  0  0  0  0  0  0  0
   44.8050    9.3680   -0.0030 N   0  0  0  0  0  0  0  0  0  0  0  0
   45.9110    8.6610   -0.6570 C   0  0  0  0  0  0  0  0  0  0  0  0
   47.1630    8.8300    0.1730 C   0  0  0  0  0  0  0  0  0  0  0  0
   47.1900    8.4110    1.5110 C   0  0  0  0  0  0  0  0  0  0  0  0
   48.3390    8.5850    2.2850 C   0  0  0  0  0  0  0  0  0  0  0  0
   49.4680    9.1860    1.7310 C   0  0  0  0  0  0  0  0  0  0  0  0
   49.4480    9.6200    0.4060 C   0  0  0  0  0  0  0  0  0  0  0  0
   48.2990    9.4480   -0.3680 C   0  0  0  0  0  0  0  0  0  0  0  0
   45.1200   11.7060    0.6510 C   0  0  0  0  0  0  0  0  0  0  0  0
   46.2660   14.0210    2.4440 C   0  0  0  0  0  0  0  0  0  0  0  0
   47.6290   12.7100    2.6360 Br  0  0  0  0  0  0  0  0  0  0  0  0
   48.0880   16.2645    3.2234 H   0  0  0  0  0  0  0  0  0  0  0  0
   48.9214   15.2812    4.4993 H   0  0  0  0  0  0  0  0  0  0  0  0
   44.6980   14.5487   -1.1905 H   0  0  0  0  0  0  0  0  0  0  0  0
   44.1525   12.8529   -2.9333 H   0  0  0  0  0  0  0  0  0  0  0  0
   44.2084   10.4250   -2.3745 H   0  0  0  0  0  0  0  0  0  0  0  0
   43.9310    8.9860   -0.3740 H   0  0  0  0  0  0  0  0  0  0  0  0
   45.6664    7.5919   -0.7418 H   0  0  0  0  0  0  0  0  0  0  0  0
   46.0735    9.0753   -1.6630 H   0  0  0  0  0  0  0  0  0  0  0  0
   46.2993    7.9417    1.9541 H   0  0  0  0  0  0  0  0  0  0  0  0
   48.3532    8.2478    3.3319 H   0  0  0  0  0  0  0  0  0  0  0  0
   50.3750    9.3180    2.3392 H   0  0  0  0  0  0  0  0  0  0  0  0
   50.3378   10.0980   -0.0295 H   0  0  0  0  0  0  0  0  0  0  0  0
   48.2849    9.8000   -1.4101 H   0  0  0  0  0  0  0  0  0  0  0  0
   45.3851   11.3795    1.6674 H   0  0  0  0  0  0  0  0  0  0  0  0
  1  2  2  0
  2  3  1  0
  2  4  1  0
  4  5  1  0
  5  6  1  0
  6  7  2  0
  7  8  1  0
  8  9  2  0
  8 10  1  0
  7 11  1  0
 11 12  1  0
 12 13  1  0
 13 14  2  0
 14 15  1  0
 15 16  2  0
 16 17  1  0
 17 18  1  0
 18 19  1  0
 19 20  1  0
 20 21  2  0
 21 22  1  0
 22 23  2  0
 23 24  1  0
 24 25  2  0
 17 26  2  0
 12 27  2  0
 27 28  1  0
 27  6  1  0
 26 13  1  0
 25 20  1  0
  4 29  1  0
  4 30  1  0
 14 31  1  0
 15 32  1  0
 16 33  1  0
 18 34  1  0
 19 35  1  0
 19 36  1  0
 21 37  1  0
 22 38  1  0
 23 39  1  0
 24 40  1  0
 25 41  1  0
 26 42  1  0
M  CHG  2   3  -1  10  -1
M  END
>  <meeko>  (1) 
{"is_sidechain": [false], "free_energy": -8.046, "intermolecular_energy": -11.81, "internal_energy": -1.18}

$$$$
2qbr_ligand
     RDKit          3D

 42 44  0  0  0  0  0  0  0  0999 V2000
   53.2780    8.0640    5.4750 O   0  0  0  0  0  0  0  0  0  0  0  0
   52.7880    7.3320    4.5600 C   0  0  0  0  0  0  0  0  0  0  0  0
   53.3830    6.4420    3.8770 O   0  0  0  0  0  0  0  0  0  0  0  0
   51.3150    7.6090    4.1840 C   0  0  0  0  0  0  0  0  0  0  0  0
   50.9470    6.9630    2.9420 O   0  0  0  0  0  0  0  0  0  0  0  0
   50.3360    7.8270    2.0940 C   0  0  0  0  0  0  0  0  0  0  0  0
   50.9110    8.3560    0.9520 C   0  0  0  0  0  0  0  0  0  0  0  0
   52.3490    8.0450    0.3460 C   0  0  0  0  0  0  0  0  0  0  0  0
   52.9400    9.0150   -0.2350 O   0  0  0  0  0  0  0  0  0  0  0  0
   52.8180    6.8690    0.4450 O   0  0  0  0  0  0  0  0  0  0  0  0
   49.8480    9.4730    0.1880 S   0  0  0  0  0  0  0  0  0  0  0  0
   48.5910    9.1880    1.3200 C   0  0  0  0  0  0  0  0  0  0  0  0
   47.3510    9.9670    1.2230 C   0  0  0  0  0  0  0  0  0  0  0  0
   46.1910    9.4370    0.6440 C   0  0  0  0  0  0  0  0  0  0  0  0
   45.0390   10.2180    0.5230 C   0  0  0  0  0  0  0  0  0  0  0  0
   45.0370   11.5340    0.9860 C   0  0  0  0  0  0  0  0  0  0  0  0
   46.1730   12.0720    1.5970 C   0  0  0  0  0  0  0  0  0  0  0  0
   46.1840   13.4320    1.9950 N   0  0  0  0  0  0  0  0  0  0  0  0
   47.0120   13.6070    3.1920 C   0  0  0  0  0  0  0  0  0  0  0  0
   47.1010   15.0800    3.5180 C   0  0  0  0  0  0  0  0  0  0  0  0
   46.0880   15.9600    3.1110 C   0  0  0  0  0  0  0  0  0  0  0  0
   46.1790   17.3250    3.3940 C   0  0  0  0  0  0  0  0  0  0  0  0
   47.2860   17.8220    4.0790 C   0  0  0  0  0  0  0  0  0  0  0  0
   48.3060   16.9590    4.4760 C   0  0  0  0  0  0  0  0  0  0  0  0
   48.2170   15.5950    4.1930 C   0  0  0  0  0  0  0  0  0  0  0  0
   47.3280   11.2880    1.6960 C   0  0  0  0  0  0  0  0  0  0  0  0
   48.9770    8.2330    2.2360 C   0  0  0  0  0  0  0  0  0  0  0  0
   47.8480    7.5020    3.5800 Br  0  0  0  0  0  0  0  0  0  0  0  0
   50.6654    7.2320    4.9876 H   0  0  0  0  0  0  0  0  0  0  0  0
   51.1934    8.6945    4.0541 H   0  0  0  0  0  0  0  0  0  0  0  0
   46.1870    8.3983    0.2819 H   0  0  0  0  0  0  0  0  0  0  0  0
   44.1337    9.7954    0.0628 H   0  0  0  0  0  0  0  0  0  0  0  0
   44.1349   12.1526    0.8693 H   0  0  0  0  0  0  0  0  0  0  0  0
   45.2240   13.6870    2.2410 H   0  0  0  0  0  0  0  0  0  0  0  0
   46.5571   13.0692    4.0369 H   0  0  0  0  0  0  0  0  0  0  0  0
   48.0196   13.2055    3.0087 H   0  0  0  0  0  0  0  0  0  0  0  0
   45.2152   15.5727    2.5649 H   0  0  0  0  0  0  0  0  0  0  0  0
   45.3769   18.0074    3.0761 H   0  0  0  0  0  0  0  0  0  0  0  0
   47.3549   18.8960    4.3066 H   0  0  0  0  0  0  0  0  0  0  0  0
   49.1816   17.3530    5.0126 H   0  0  0  0  0  0  0  0  0  0  0  0
   49.0282   14.9192    4.5017 H   0  0  0  0  0  0  0  0  0  0  0  0
   48.2334   11.7146    2.1524 H   0  0  0  0  0  0  0  0  0  0  0  0
  1  2  2  0
  2  3  1  0
  2  4  1  0
  4  5  1  0
  5  6  1  0
  6  7  2  0
  7  8  1  0
  8  9  2  0
  8 10  1  0
  7 11  1  0
 11 12  1  0
 12 13  1  0
 13 14  2  0
 14 15  1  0
 15 16  2  0
 16 17  1  0
 17 18  1  0
 18 19  1  0
 19 20  1  0
 20 21  2  0
 21 22  1  0
 22 23  2  0
 23 24  1  0
 24 25  2  0
 17 26  2  0
 12 27  2  0
 27 28  1  0
 27  6  1  0
 26 13  1  0
 25 20  1  0
  4 29  1  0
  4 30  1  0
 14 31  1  0
 15 32  1  0
 16 33  1  0
 18 34  1  0
 19 35  1  0
 19 36  1  0
 21 37  1  0
 22 38  1  0
 23 39  1  0
 24 40  1  0
 25 41  1  0
 26 42  1  0
M  CHG  2   3  -1  10  -1
M  END
>  <meeko>  (2) 
{"is_sidechain": [false], "free_energy": -7.858, "intermolecular_energy": -11.838, "internal_energy": -0.875}

$$$$
2qbr_ligand
     RDKit          3D

 42 44  0  0  0  0  0  0  0  0999 V2000
   49.2390   17.9930    5.1050 O   0  0  0  0  0  0  0  0  0  0  0  0
   48.1970   17.2730    5.2120 C   0  0  0  0  0  0  0  0  0  0  0  0
   47.2560   17.3930    6.0560 O   0  0  0  0  0  0  0  0  0  0  0  0
   48.1050   16.0660    4.2520 C   0  0  0  0  0  0  0  0  0  0  0  0
   46.9670   15.2240    4.5560 O   0  0  0  0  0  0  0  0  0  0  0  0
   46.1880   15.0260    3.4630 C   0  0  0  0  0  0  0  0  0  0  0  0
   45.2310   15.9120    3.0000 C   0  0  0  0  0  0  0  0  0  0  0  0
   44.8670   17.3490    3.5780 C   0  0  0  0  0  0  0  0  0  0  0  0
   44.8760   18.3130    2.7420 O   0  0  0  0  0  0  0  0  0  0  0  0
   44.6170   17.4690    4.8170 O   0  0  0  0  0  0  0  0  0  0  0  0
   44.4020   15.2650    1.6390 S   0  0  0  0  0  0  0  0  0  0  0  0
   45.3710   13.8500    1.6060 C   0  0  0  0  0  0  0  0  0  0  0  0
   45.0710   12.8000    0.6270 C   0  0  0  0  0  0  0  0  0  0  0  0
   45.0140   11.4480    0.9910 C   0  0  0  0  0  0  0  0  0  0  0  0
   44.7730   10.4650    0.0280 C   0  0  0  0  0  0  0  0  0  0  0  0
   44.5820   10.8270   -1.3060 C   0  0  0  0  0  0  0  0  0  0  0  0
   44.6020   12.1710   -1.6850 C   0  0  0  0  0  0  0  0  0  0  0  0
   44.4820   12.5210   -3.0520 N   0  0  0  0  0  0  0  0  0  0  0  0
   43.1110   12.9480   -3.3520 C   0  0  0  0  0  0  0  0  0  0  0  0
   43.0510   14.4580   -3.3340 C   0  0  0  0  0  0  0  0  0  0  0  0
   44.1350   15.2180   -3.7960 C   0  0  0  0  0  0  0  0  0  0  0  0
   44.0890   16.6130   -3.7610 C   0  0  0  0  0  0  0  0  0  0  0  0
   42.9620   17.2610   -3.2560 C   0  0  0  0  0  0  0  0  0  0  0  0
   41.8850   16.5160   -2.7800 C   0  0  0  0  0  0  0  0  0  0  0  0
   41.9300   15.1210   -2.8130 C   0  0  0  0  0  0  0  0  0  0  0  0
   44.8640   13.1480   -0.7170 C   0  0  0  0  0  0  0  0  0  0  0  0
   46.3260   13.9000    2.5990 C   0  0  0  0  0  0  0  0  0  0  0  0
   47.7070   12.6160    2.8400 Br  0  0  0  0  0  0  0  0  0  0  0  0
   48.0082   16.4373    3.2211 H   0  0  0  0  0  0  0  0  0  0  0  0
   49.0179   15.4638    4.3706 H   0  0  0  0  0  0  0  0  0  0  0  0
   45.1600   11.1587    2.0422 H   0  0  0  0  0  0  0  0  0  0  0  0
   44.7338    9.4056    0.3214 H   0  0  0  0  0  0  0  0  0  0  0  0
   44.4145   10.0482   -2.0645 H   0  0  0  0  0  0  0  0  0  0  0  0
   44.6710   11.6790   -3.6020 H   0  0  0  0  0  0  0  0  0  0  0  0
   42.8191   12.5791   -4.3463 H   0  0  0  0  0  0  0  0  0  0  0  0
   42.4213   12.5396   -2.5987 H   0  0  0  0  0  0  0  0  0  0  0  0
   45.0286   14.7112   -4.1891 H   0  0  0  0  0  0  0  0  0  0  0  0
   44.9416   17.2009   -4.1317 H   0  0  0  0  0  0  0  0  0  0  0  0
   42.9233   18.3601   -3.2335 H   0  0  0  0  0  0  0  0  0  0  0  0
   40.9982   17.0276   -2.3777 H   0  0  0  0  0  0  0  0  0  0  0  0
   41.0806   14.5378   -2.4278 H   0  0  0  0  0  0  0  0  0  0  0  0
   44.9084   14.2060   -1.0147 H   0  0  0  0  0  0  0  0  0  0  0  0
  1  2  2  0
  2  3  1  0
  2  4  1  0
  4  5  1  0
  5  6  1  0
  6  7  2  0
  7  8  1  0
  8  9  2  0
  8 10  1  0
  7 11  1  0
 11 12  1  0
 12 13  1  0
 13 14  2  0
 14 15  1  0
 15 16  2  0
 16 17  1  0
 17 18  1  0
 18 19  1  0
 19 20  1  0
 20 21  2  0
 21 22  1  0
 22 23  2  0
 23 24  1  0
 24 25  2  0
 17 26  2  0
 12 27  2  0
 27 28  1  0
 27  6  1  0
 26 13  1  0
 25 20  1  0
  4 29  1  0
  4 30  1  0
 14 31  1  0
 15 32  1  0
 16 33  1  0
 18 34  1  0
 19 35  1  0
 19 36  1  0
 21 37  1  0
 22 38  1  0
 23 39  1  0
 24 40  1  0
 25 41  1  0
 26 42  1  0
M  CHG  2   3  -1  10  -1
M  END
>  <meeko>  (3) 
{"is_sidechain": [false], "free_energy": -7.846, "intermolecular_energy": -11.757, "internal_energy": -0.939}

$$$$
2qbr_ligand
     RDKit          3D

 42 44  0  0  0  0  0  0  0  0999 V2000
   47.1600   17.3690    5.8470 O   0  0  0  0  0  0  0  0  0  0  0  0
   48.1390   17.2180    5.0520 C   0  0  0  0  0  0  0  0  0  0  0  0
   49.2170   17.8880    5.0140 O   0  0  0  0  0  0  0  0  0  0  0  0
   47.9650   16.1420    3.9570 C   0  0  0  0  0  0  0  0  0  0  0  0
   46.8500   15.2640    4.2380 O   0  0  0  0  0  0  0  0  0  0  0  0
   46.1670   14.9490    3.1090 C   0  0  0  0  0  0  0  0  0  0  0  0
   45.3690   15.8260    2.3950 C   0  0  0  0  0  0  0  0  0  0  0  0
   45.1170   17.3710    2.6780 C   0  0  0  0  0  0  0  0  0  0  0  0
   45.3490   18.1680    1.7090 O   0  0  0  0  0  0  0  0  0  0  0  0
   44.7300   17.7310    3.8320 O   0  0  0  0  0  0  0  0  0  0  0  0
   44.6100   15.0280    1.0730 S   0  0  0  0  0  0  0  0  0  0  0  0
   45.4090   13.5440    1.3910 C   0  0  0  0  0  0  0  0  0  0  0  0
   45.0900   12.3690    0.5740 C   0  0  0  0  0  0  0  0  0  0  0  0
   45.0530   11.0800    1.1190 C   0  0  0  0  0  0  0  0  0  0  0  0
   44.7930    9.9740    0.3070 C   0  0  0  0  0  0  0  0  0  0  0  0
   44.5610   10.1500   -1.0580 C   0  0  0  0  0  0  0  0  0  0  0  0
   44.5610   11.4300   -1.6170 C   0  0  0  0  0  0  0  0  0  0  0  0
   44.3990   11.5900   -3.0150 N   0  0  0  0  0  0  0  0  0  0  0  0
   42.9760   11.6640   -3.3600 C   0  0  0  0  0  0  0  0  0  0  0  0
   42.4470   10.2650   -3.5720 C   0  0  0  0  0  0  0  0  0  0  0  0
   41.3260    9.8140   -2.8610 C   0  0  0  0  0  0  0  0  0  0  0  0
   40.8480    8.5150   -3.0400 C   0  0  0  0  0  0  0  0  0  0  0  0
   41.4910    7.6510   -3.9260 C   0  0  0  0  0  0  0  0  0  0  0  0
   42.6160    8.0830   -4.6270 C   0  0  0  0  0  0  0  0  0  0  0  0
   43.0950    9.3820   -4.4480 C   0  0  0  0  0  0  0  0  0  0  0  0
   44.8420   12.5300   -0.7980 C   0  0  0  0  0  0  0  0  0  0  0  0
   46.2600   13.6790    2.4680 C   0  0  0  0  0  0  0  0  0  0  0  0
   47.4530   12.3320    3.0820 Br  0  0  0  0  0  0  0  0  0  0  0  0
   47.7909   16.6409    2.9922 H   0  0  0  0  0  0  0  0  0  0  0  0
   48.8805   15.5330    3.9280 H   0  0  0  0  0  0  0  0  0  0  0  0
   45.2301   10.9373    2.1952 H   0  0  0  0  0  0  0  0  0  0  0  0
   44.7710    8.9644    0.7431 H   0  0  0  0  0  0  0  0  0  0  0  0
   44.3769    9.2745   -1.6980 H   0  0  0  0  0  0  0  0  0  0  0  0
   44.7850   10.7570   -3.4660 H   0  0  0  0  0  0  0  0  0  0  0  0
   42.4228   12.1471   -2.5411 H   0  0  0  0  0  0  0  0  0  0  0  0
   42.8472   12.2530   -4.2801 H   0  0  0  0  0  0  0  0  0  0  0  0
   40.8190   10.4895   -2.1563 H   0  0  0  0  0  0  0  0  0  0  0  0
   39.9639    8.1726   -2.4821 H   0  0  0  0  0  0  0  0  0  0  0  0
   41.1107    6.6292   -4.0717 H   0  0  0  0  0  0  0  0  0  0  0  0
   43.1266    7.3998   -5.3217 H   0  0  0  0  0  0  0  0  0  0  0  0
   43.9873    9.7155   -4.9981 H   0  0  0  0  0  0  0  0  0  0  0  0
   44.8689   13.5381   -1.2374 H   0  0  0  0  0  0  0  0  0  0  0  0
  1  2  2  0
  2  3  1  0
  2  4  1  0
  4  5  1  0
  5  6  1  0
  6  7  2  0
  7  8  1  0
  8  9  2  0
  8 10  1  0
  7 11  1  0
 11 12  1  0
 12 13  1  0
 13 14  2  0
 14 15  1  0
 15 16  2  0
 16 17  1  0
 17 18  1  0
 18 19  1  0
 19 20  1  0
 20 21  2  0
 21 22  1  0
 22 23  2  0
 23 24  1  0
 24 25  2  0
 17 26  2  0
 12 27  2  0
 27 28  1  0
 27  6  1  0
 26 13  1  0
 25 20  1  0
  4 29  1  0
  4 30  1  0
 14 31  1  0
 15 32  1  0
 16 33  1  0
 18 34  1  0
 19 35  1  0
 19 36  1  0
 21 37  1  0
 22 38  1  0
 23 39  1  0
 24 40  1  0
 25 41  1  0
 26 42  1  0
M  CHG  2   3  -1  10  -1
M  END
>  <meeko>  (4) 
{"is_sidechain": [false], "free_energy": -7.717, "intermolecular_energy": -11.785, "internal_energy": -0.72}

$$$$
2qbr_ligand
     RDKit          3D

 42 44  0  0  0  0  0  0  0  0999 V2000
   47.7550   18.2430    4.5950 O   0  0  0  0  0  0  0  0  0  0  0  0
   46.7940   17.4140    4.5330 C   0  0  0  0  0  0  0  0  0  0  0  0
   45.6470   17.5150    5.0670 O   0  0  0  0  0  0  0  0  0  0  0  0
   47.0840   16.0950    3.7810 C   0  0  0  0  0  0  0  0  0  0  0  0
   45.9400   15.2080    3.7930 O   0  0  0  0  0  0  0  0  0  0  0  0
   45.6940   14.6970    2.5610 C   0  0  0  0  0  0  0  0  0  0  0  0
   45.0020   15.3490    1.5560 C   0  0  0  0  0  0  0  0  0  0  0  0
   44.4040   16.8240    1.5770 C   0  0  0  0  0  0  0  0  0  0  0  0
   43.1370   16.9180    1.6920 O   0  0  0  0  0  0  0  0  0  0  0  0
   45.1950   17.8100    1.4570 O   0  0  0  0  0  0  0  0  0  0  0  0
   44.8300   14.3410    0.1730 S   0  0  0  0  0  0  0  0  0  0  0  0
   45.7490   13.0720    0.8710 C   0  0  0  0  0  0  0  0  0  0  0  0
   45.9050   11.8120    0.1360 C   0  0  0  0  0  0  0  0  0  0  0  0
   47.0430   11.5470   -0.6380 C   0  0  0  0  0  0  0  0  0  0  0  0
   47.1430   10.3590   -1.3650 C   0  0  0  0  0  0  0  0  0  0  0  0
   46.1080    9.4230   -1.3200 C   0  0  0  0  0  0  0  0  0  0  0  0
   44.9790    9.6530   -0.5290 C   0  0  0  0  0  0  0  0  0  0  0  0
   43.9030    8.7330   -0.5500 N   0  0  0  0  0  0  0  0  0  0  0  0
   43.5870    8.3470   -1.9290 C   0  0  0  0  0  0  0  0  0  0  0  0
   42.5070    9.2590   -2.4610 C   0  0  0  0  0  0  0  0  0  0  0  0
   42.8400   10.4890   -3.0470 C   0  0  0  0  0  0  0  0  0  0  0  0
   41.8410   11.3420   -3.5200 C   0  0  0  0  0  0  0  0  0  0  0  0
   40.5010   10.9770   -3.4060 C   0  0  0  0  0  0  0  0  0  0  0  0
   40.1570    9.7640   -2.8120 C   0  0  0  0  0  0  0  0  0  0  0  0
   41.1540    8.9110   -2.3370 C   0  0  0  0  0  0  0  0  0  0  0  0
   44.8790   10.8560    0.1800 C   0  0  0  0  0  0  0  0  0  0  0  0
   46.2010   13.4390    2.1210 C   0  0  0  0  0  0  0  0  0  0  0  0
   47.3770   12.4010    3.1960 Br  0  0  0  0  0  0  0  0  0  0  0  0
   47.3424   16.3291    2.7377 H   0  0  0  0  0  0  0  0  0  0  0  0
   47.9167   15.5869    4.2894 H   0  0  0  0  0  0  0  0  0  0  0  0
   47.8627   12.2797   -0.6730 H   0  0  0  0  0  0  0  0  0  0  0  0
   48.0376   10.1605   -1.9734 H   0  0  0  0  0  0  0  0  0  0  0  0
   46.1817    8.4983   -1.9111 H   0  0  0  0  0  0  0  0  0  0  0  0
   43.0840    9.2100   -0.1660 H   0  0  0  0  0  0  0  0  0  0  0  0
   44.4880    8.4394   -2.5533 H   0  0  0  0  0  0  0  0  0  0  0  0
   43.2368    7.3045   -1.9516 H   0  0  0  0  0  0  0  0  0  0  0  0
   43.8961   10.7838   -3.1346 H   0  0  0  0  0  0  0  0  0  0  0  0
   42.1118   12.3025   -3.9828 H   0  0  0  0  0  0  0  0  0  0  0  0
   39.7146   11.6463   -3.7849 H   0  0  0  0  0  0  0  0  0  0  0  0
   39.0988    9.4789   -2.7176 H   0  0  0  0  0  0  0  0  0  0  0  0
   40.8767    7.9585   -1.8617 H   0  0  0  0  0  0  0  0  0  0  0  0
   43.9803   11.0552    0.7822 H   0  0  0  0  0  0  0  0  0  0  0  0
  1  2  2  0
  2  3  1  0
  2  4  1  0
  4  5  1  0
  5  6  1  0
  6  7  2  0
  7  8  1  0
  8  9  2  0
  8 10  1  0
  7 11  1  0
 11 12  1  0
 12 13  1  0
 13 14  2  0
 14 15  1  0
 15 16  2  0
 16 17  1  0
 17 18  1  0
 18 19  1  0
 19 20  1  0
 20 21  2  0
 21 22  1  0
 22 23  2  0
 23 24  1  0
 24 25  2  0
 17 26  2  0
 12 27  2  0
 27 28  1  0
 27  6  1  0
 26 13  1  0
 25 20  1  0
  4 29  1  0
  4 30  1  0
 14 31  1  0
 15 32  1  0
 16 33  1  0
 18 34  1  0
 19 35  1  0
 19 36  1  0
 21 37  1  0
 22 38  1  0
 23 39  1  0
 24 40  1  0
 25 41  1  0
 26 42  1  0
M  CHG  2   3  -1  10  -1
M  END
>  <meeko>  (5) 
{"is_sidechain": [false], "free_energy": -7.682, "intermolecular_energy": -11.159, "internal_energy": -1.296}

$$$$
2qbr_ligand
     RDKit          3D

 42 44  0  0  0  0  0  0  0  0999 V2000
   47.0940   17.3920    5.8340 O   0  0  0  0  0  0  0  0  0  0  0  0
   48.1010   17.1970    5.0840 C   0  0  0  0  0  0  0  0  0  0  0  0
   49.2020   17.8290    5.0860 O   0  0  0  0  0  0  0  0  0  0  0  0
   47.9370   16.1150    3.9940 C   0  0  0  0  0  0  0  0  0  0  0  0
   46.7870   15.2720    4.2420 O   0  0  0  0  0  0  0  0  0  0  0  0
   46.1350   14.9670    3.0930 C   0  0  0  0  0  0  0  0  0  0  0  0
   45.3600   15.8520    2.3630 C   0  0  0  0  0  0  0  0  0  0  0  0
   45.1060   17.3960    2.6490 C   0  0  0  0  0  0  0  0  0  0  0  0
   45.3680   18.1990    1.6930 O   0  0  0  0  0  0  0  0  0  0  0  0
   44.6880   17.7490    3.7950 O   0  0  0  0  0  0  0  0  0  0  0  0
   44.6360   15.0670    1.0130 S   0  0  0  0  0  0  0  0  0  0  0  0
   45.4210   13.5780    1.3440 C   0  0  0  0  0  0  0  0  0  0  0  0
   45.1200   12.4100    0.5080 C   0  0  0  0  0  0  0  0  0  0  0  0
   44.9630   11.1320    1.0590 C   0  0  0  0  0  0  0  0  0  0  0  0
   44.7240   10.0300    0.2340 C   0  0  0  0  0  0  0  0  0  0  0  0
   44.6350   10.1990   -1.1480 C   0  0  0  0  0  0  0  0  0  0  0  0
   44.7560   11.4700   -1.7150 C   0  0  0  0  0  0  0  0  0  0  0  0
   44.7380   11.6200   -3.1240 N   0  0  0  0  0  0  0  0  0  0  0  0
   45.9810   11.1060   -3.7080 C   0  0  0  0  0  0  0  0  0  0  0  0
   47.1020   12.0740   -3.4120 C   0  0  0  0  0  0  0  0  0  0  0  0
   47.0730   13.3760   -3.9330 C   0  0  0  0  0  0  0  0  0  0  0  0
   48.1180   14.2650   -3.6770 C   0  0  0  0  0  0  0  0  0  0  0  0
   49.2050   13.8600   -2.9040 C   0  0  0  0  0  0  0  0  0  0  0  0
   49.2530   12.5640   -2.3930 C   0  0  0  0  0  0  0  0  0  0  0  0
   48.2090   11.6730   -2.6500 C   0  0  0  0  0  0  0  0  0  0  0  0
   45.0140   12.5650   -0.8820 C   0  0  0  0  0  0  0  0  0  0  0  0
   46.2410   13.7020    2.4450 C   0  0  0  0  0  0  0  0  0  0  0  0
   47.4120   12.3450    3.0810 Br  0  0  0  0  0  0  0  0  0  0  0  0
   47.8132   16.6082    3.0186 H   0  0  0  0  0  0  0  0  0  0  0  0
   48.8351   15.4799    4.0049 H   0  0  0  0  0  0  0  0  0  0  0  0
   45.0283   10.9949    2.1485 H   0  0  0  0  0  0  0  0  0  0  0  0
   44.6060    9.0289    0.6742 H   0  0  0  0  0  0  0  0  0  0  0  0
   44.4684    9.3255   -1.7956 H   0  0  0  0  0  0  0  0  0  0  0  0
   44.6920   12.6220   -3.3250 H   0  0  0  0  0  0  0  0  0  0  0  0
   46.2160   10.1248   -3.2698 H   0  0  0  0  0  0  0  0  0  0  0  0
   45.8625   10.9970   -4.7961 H   0  0  0  0  0  0  0  0  0  0  0  0
   46.2201   13.6989   -4.5481 H   0  0  0  0  0  0  0  0  0  0  0  0
   48.0838   15.2858   -4.0854 H   0  0  0  0  0  0  0  0  0  0  0  0
   50.0251   14.5633   -2.6972 H   0  0  0  0  0  0  0  0  0  0  0  0
   50.1133   12.2432   -1.7873 H   0  0  0  0  0  0  0  0  0  0  0  0
   48.2552   10.6487   -2.2517 H   0  0  0  0  0  0  0  0  0  0  0  0
   45.1357   13.5644   -1.3252 H   0  0  0  0  0  0  0  0  0  0  0  0
  1  2  2  0
  2  3  1  0
  2  4  1  0
  4  5  1  0
  5  6  1  0
  6  7  2  0
  7  8  1  0
  8  9  2  0
  8 10  1  0
  7 11  1  0
 11 12  1  0
 12 13  1  0
 13 14  2  0
 14 15  1  0
 15 16  2  0
 16 17  1  0
 17 18  1  0
 18 19  1  0
 19 20  1  0
 20 21  2  0
 21 22  1  0
 22 23  2  0
 23 24  1  0
 24 25  2  0
 17 26  2  0
 12 27  2  0
 27 28  1  0
 27  6  1  0
 26 13  1  0
 25 20  1  0
  4 29  1  0
  4 30  1  0
 14 31  1  0
 15 32  1  0
 16 33  1  0
 18 34  1  0
 19 35  1  0
 19 36  1  0
 21 37  1  0
 22 38  1  0
 23 39  1  0
 24 40  1  0
 25 41  1  0
 26 42  1  0
M  CHG  2   3  -1  10  -1
M  END
>  <meeko>  (6) 
{"is_sidechain": [false], "free_energy": -7.457, "intermolecular_energy": -11.005, "internal_energy": -1.12}

$$$$
2qbr_ligand
     RDKit          3D

 42 44  0  0  0  0  0  0  0  0999 V2000
   47.7930    7.9940    2.5290 O   0  0  0  0  0  0  0  0  0  0  0  0
   48.0350    9.1640    2.0950 C   0  0  0  0  0  0  0  0  0  0  0  0
   48.3520   10.1900    2.7720 O   0  0  0  0  0  0  0  0  0  0  0  0
   47.8480    9.3770    0.5770 C   0  0  0  0  0  0  0  0  0  0  0  0
   46.4540    9.3100    0.1920 O   0  0  0  0  0  0  0  0  0  0  0  0
   46.1240   10.3120   -0.6590 C   0  0  0  0  0  0  0  0  0  0  0  0
   46.1850   10.2330   -2.0390 C   0  0  0  0  0  0  0  0  0  0  0  0
   46.5830    8.9760   -2.9300 C   0  0  0  0  0  0  0  0  0  0  0  0
   45.6580    8.4820   -3.6560 O   0  0  0  0  0  0  0  0  0  0  0  0
   47.7670    8.5220   -2.8590 O   0  0  0  0  0  0  0  0  0  0  0  0
   45.7630   11.7360   -2.7620 S   0  0  0  0  0  0  0  0  0  0  0  0
   45.4110   12.4670   -1.2500 C   0  0  0  0  0  0  0  0  0  0  0  0
   45.0360   13.8840   -1.2100 C   0  0  0  0  0  0  0  0  0  0  0  0
   45.0830   14.6910   -2.3540 C   0  0  0  0  0  0  0  0  0  0  0  0
   44.7660   16.0500   -2.2770 C   0  0  0  0  0  0  0  0  0  0  0  0
   44.3930   16.6100   -1.0540 C   0  0  0  0  0  0  0  0  0  0  0  0
   44.3070   15.8170    0.0920 C   0  0  0  0  0  0  0  0  0  0  0  0
   44.0010   16.4110    1.3410 N   0  0  0  0  0  0  0  0  0  0  0  0
   44.3690   15.5120    2.4390 C   0  0  0  0  0  0  0  0  0  0  0  0
   45.6720   15.9800    3.0440 C   0  0  0  0  0  0  0  0  0  0  0  0
   45.9130   17.3470    3.2430 C   0  0  0  0  0  0  0  0  0  0  0  0
   47.1240   17.7830    3.7830 C   0  0  0  0  0  0  0  0  0  0  0  0
   48.1090   16.8560    4.1230 C   0  0  0  0  0  0  0  0  0  0  0  0
   47.8870   15.4960    3.9160 C   0  0  0  0  0  0  0  0  0  0  0  0
   46.6770   15.0590    3.3750 C   0  0  0  0  0  0  0  0  0  0  0  0
   44.6460   14.4610    0.0090 C   0  0  0  0  0  0  0  0  0  0  0  0
   45.5840   11.5600   -0.2270 C   0  0  0  0  0  0  0  0  0  0  0  0
   45.1680   11.8920    1.5980 Br  0  0  0  0  0  0  0  0  0  0  0  0
   48.2454   10.3659    0.3047 H   0  0  0  0  0  0  0  0  0  0  0  0
   48.3868    8.5755    0.0505 H   0  0  0  0  0  0  0  0  0  0  0  0
   45.3716   14.2518   -3.3203 H   0  0  0  0  0  0  0  0  0  0  0  0
   44.8104   16.6777   -3.1792 H   0  0  0  0  0  0  0  0  0  0  0  0
   44.1651   17.6844   -0.9926 H   0  0  0  0  0  0  0  0  0  0  0  0
   42.9880   16.5460    1.3760 H   0  0  0  0  0  0  0  0  0  0  0  0
   43.5807   15.5252    3.2061 H   0  0  0  0  0  0  0  0  0  0  0  0
   44.4844   14.4871    2.0566 H   0  0  0  0  0  0  0  0  0  0  0  0
   45.1411   18.0820    2.9712 H   0  0  0  0  0  0  0  0  0  0  0  0
   47.3014   18.8571    3.9403 H   0  0  0  0  0  0  0  0  0  0  0  0
   49.0611   17.1984    4.5546 H   0  0  0  0  0  0  0  0  0  0  0  0
   48.6665   14.7659    4.1793 H   0  0  0  0  0  0  0  0  0  0  0  0
   46.5102   13.9848    3.2070 H   0  0  0  0  0  0  0  0  0  0  0  0
   44.6061   13.8373    0.9142 H   0  0  0  0  0  0  0  0  0  0  0  0
  1  2  2  0
  2  3  1  0
  2  4  1  0
  4  5  1  0
  5  6  1  0
  6  7  2  0
  7  8  1  0
  8  9  2  0
  8 10  1  0
  7 11  1  0
 11 12  1  0
 12 13  1  0
 13 14  2  0
 14 15  1  0
 15 16  2  0
 16 17  1  0
 17 18  1  0
 18 19  1  0
 19 20  1  0
 20 21  2  0
 21 22  1  0
 22 23  2  0
 23 24  1  0
 24 25  2  0
 17 26  2  0
 12 27  2  0
 27 28  1  0
 27  6  1  0
 26 13  1  0
 25 20  1  0
  4 29  1  0
  4 30  1  0
 14 31  1  0
 15 32  1  0
 16 33  1  0
 18 34  1  0
 19 35  1  0
 19 36  1  0
 21 37  1  0
 22 38  1  0
 23 39  1  0
 24 40  1  0
 25 41  1  0
 26 42  1  0
M  CHG  2   3  -1  10  -1
M  END
>  <meeko>  (7) 
{"is_sidechain": [false], "free_energy": -7.409, "intermolecular_energy": -11.098, "internal_energy": -0.956}

$$$$
2qbr_ligand
     RDKit          3D

 42 44  0  0  0  0  0  0  0  0999 V2000
   54.2040    6.5070    1.2580 O   0  0  0  0  0  0  0  0  0  0  0  0
   53.5770    6.2490    0.1840 C   0  0  0  0  0  0  0  0  0  0  0  0
   53.9500    5.4960   -0.7690 O   0  0  0  0  0  0  0  0  0  0  0  0
   52.2410    6.9980   -0.0200 C   0  0  0  0  0  0  0  0  0  0  0  0
   52.2430    8.2880    0.6370 O   0  0  0  0  0  0  0  0  0  0  0  0
   51.0810    8.5100    1.3010 C   0  0  0  0  0  0  0  0  0  0  0  0
   50.7930    8.0430    2.5710 C   0  0  0  0  0  0  0  0  0  0  0  0
   51.7390    7.2170    3.5490 C   0  0  0  0  0  0  0  0  0  0  0  0
   52.5550    7.8980    4.2540 O   0  0  0  0  0  0  0  0  0  0  0  0
   51.6560    5.9500    3.5600 O   0  0  0  0  0  0  0  0  0  0  0  0
   49.1900    8.4660    3.0330 S   0  0  0  0  0  0  0  0  0  0  0  0
   48.9090    9.3450    1.5870 C   0  0  0  0  0  0  0  0  0  0  0  0
   47.5840    9.9280    1.3500 C   0  0  0  0  0  0  0  0  0  0  0  0
   46.6030    9.2530    0.6130 C   0  0  0  0  0  0  0  0  0  0  0  0
   45.3660    9.8540    0.3640 C   0  0  0  0  0  0  0  0  0  0  0  0
   45.1000   11.1330    0.8550 C   0  0  0  0  0  0  0  0  0  0  0  0
   46.0520   11.8100    1.6200 C   0  0  0  0  0  0  0  0  0  0  0  0
   45.8000   13.1360    2.0490 N   0  0  0  0  0  0  0  0  0  0  0  0
   46.7640   13.5330    3.0790 C   0  0  0  0  0  0  0  0  0  0  0  0
   46.7300   15.0350    3.2340 C   0  0  0  0  0  0  0  0  0  0  0  0
   45.6790   15.7830    2.6850 C   0  0  0  0  0  0  0  0  0  0  0  0
   45.6570   17.1730    2.8100 C   0  0  0  0  0  0  0  0  0  0  0  0
   46.6900   17.8290    3.4780 C   0  0  0  0  0  0  0  0  0  0  0  0
   47.7480   17.0980    4.0160 C   0  0  0  0  0  0  0  0  0  0  0  0
   47.7720   15.7080    3.8900 C   0  0  0  0  0  0  0  0  0  0  0  0
   47.2950   11.2090    1.8480 C   0  0  0  0  0  0  0  0  0  0  0  0
   50.0360    9.3350    0.7930 C   0  0  0  0  0  0  0  0  0  0  0  0
   50.2240   10.3040   -0.8320 Br  0  0  0  0  0  0  0  0  0  0  0  0
   52.0772    7.1473   -1.0975 H   0  0  0  0  0  0  0  0  0  0  0  0
   51.4372    6.3904    0.4212 H   0  0  0  0  0  0  0  0  0  0  0  0
   46.8073    8.2432    0.2276 H   0  0  0  0  0  0  0  0  0  0  0  0
   44.6020    9.3189   -0.2190 H   0  0  0  0  0  0  0  0  0  0  0  0
   44.1335   11.6112    0.6378 H   0  0  0  0  0  0  0  0  0  0  0  0
   44.8690   13.1500    2.4730 H   0  0  0  0  0  0  0  0  0  0  0  0
   46.4986   13.0578    4.0349 H   0  0  0  0  0  0  0  0  0  0  0  0
   47.7744   13.2133    2.7843 H   0  0  0  0  0  0  0  0  0  0  0  0
   44.8651   15.2703    2.1514 H   0  0  0  0  0  0  0  0  0  0  0  0
   44.8248   17.7507    2.3815 H   0  0  0  0  0  0  0  0  0  0  0  0
   46.6702   18.9240    3.5806 H   0  0  0  0  0  0  0  0  0  0  0  0
   48.5643   17.6167    4.5400 H   0  0  0  0  0  0  0  0  0  0  0  0
   48.6137   15.1362    4.3079 H   0  0  0  0  0  0  0  0  0  0  0  0
   48.0586   11.7490    2.4270 H   0  0  0  0  0  0  0  0  0  0  0  0
  1  2  2  0
  2  3  1  0
  2  4  1  0
  4  5  1  0
  5  6  1  0
  6  7  2  0
  7  8  1  0
  8  9  2  0
  8 10  1  0
  7 11  1  0
 11 12  1  0
 12 13  1  0
 13 14  2  0
 14 15  1  0
 15 16  2  0
 16 17  1  0
 17 18  1  0
 18 19  1  0
 19 20  1  0
 20 21  2  0
 21 22  1  0
 22 23  2  0
 23 24  1  0
 24 25  2  0
 17 26  2  0
 12 27  2  0
 27 28  1  0
 27  6  1  0
 26 13  1  0
 25 20  1  0
  4 29  1  0
  4 30  1  0
 14 31  1  0
 15 32  1  0
 16 33  1  0
 18 34  1  0
 19 35  1  0
 19 36  1  0
 21 37  1  0
 22 38  1  0
 23 39  1  0
 24 40  1  0
 25 41  1  0
 26 42  1  0
M  CHG  2   3  -1  10  -1
M  END
>  <meeko>  (8) 
{"is_sidechain": [false], "free_energy": -7.313, "intermolecular_energy": -10.75, "internal_energy": -1.163}

$$$$
2qbr_ligand
     RDKit          3D

 42 44  0  0  0  0  0  0  0  0999 V2000
   47.4930   18.4390    4.3440 O   0  0  0  0  0  0  0  0  0  0  0  0
   47.2230   17.3010    4.8420 C   0  0  0  0  0  0  0  0  0  0  0  0
   47.0010   17.0220    6.0610 O   0  0  0  0  0  0  0  0  0  0  0  0
   47.2430   16.1080    3.8610 C   0  0  0  0  0  0  0  0  0  0  0  0
   46.0120   15.3490    3.9140 O   0  0  0  0  0  0  0  0  0  0  0  0
   45.7360   14.7640    2.7220 C   0  0  0  0  0  0  0  0  0  0  0  0
   45.0320   15.3600    1.6910 C   0  0  0  0  0  0  0  0  0  0  0  0
   44.4500   16.8400    1.6310 C   0  0  0  0  0  0  0  0  0  0  0  0
   45.3080   17.7840    1.6070 O   0  0  0  0  0  0  0  0  0  0  0  0
   43.1910   17.0070    1.6340 O   0  0  0  0  0  0  0  0  0  0  0  0
   44.8210   14.2680    0.3780 S   0  0  0  0  0  0  0  0  0  0  0  0
   45.7400   13.0350    1.1380 C   0  0  0  0  0  0  0  0  0  0  0  0
   45.8680   11.7300    0.4810 C   0  0  0  0  0  0  0  0  0  0  0  0
   44.7710   10.8740    0.3240 C   0  0  0  0  0  0  0  0  0  0  0  0
   44.9320    9.6160   -0.2630 C   0  0  0  0  0  0  0  0  0  0  0  0
   46.1910    9.2080   -0.7040 C   0  0  0  0  0  0  0  0  0  0  0  0
   47.2930   10.0590   -0.5870 C   0  0  0  0  0  0  0  0  0  0  0  0
   48.5790    9.6050   -0.9670 N   0  0  0  0  0  0  0  0  0  0  0  0
   49.5020    9.6700    0.1700 C   0  0  0  0  0  0  0  0  0  0  0  0
   49.1530    8.5730    1.1500 C   0  0  0  0  0  0  0  0  0  0  0  0
   48.7770    8.8880    2.4640 C   0  0  0  0  0  0  0  0  0  0  0  0
   48.4750    7.8750    3.3760 C   0  0  0  0  0  0  0  0  0  0  0  0
   48.5520    6.5390    2.9860 C   0  0  0  0  0  0  0  0  0  0  0  0
   48.9400    6.2140    1.6870 C   0  0  0  0  0  0  0  0  0  0  0  0
   49.2440    7.2250    0.7740 C   0  0  0  0  0  0  0  0  0  0  0  0
   47.1260   11.3090    0.0210 C   0  0  0  0  0  0  0  0  0  0  0  0
   46.2200   13.4740    2.3530 C   0  0  0  0  0  0  0  0  0  0  0  0
   47.4060   12.4930    3.4680 Br  0  0  0  0  0  0  0  0  0  0  0  0
   47.3824   16.4897    2.8388 H   0  0  0  0  0  0  0  0  0  0  0  0
   48.0689   15.4413    4.1497 H   0  0  0  0  0  0  0  0  0  0  0  0
   43.7754   11.1940    0.6651 H   0  0  0  0  0  0  0  0  0  0  0  0
   44.0659    8.9475   -0.3773 H   0  0  0  0  0  0  0  0  0  0  0  0
   46.3171    8.2091   -1.1471 H   0  0  0  0  0  0  0  0  0  0  0  0
   48.9290   10.2420   -1.6870 H   0  0  0  0  0  0  0  0  0  0  0  0
   50.5343    9.5332   -0.1846 H   0  0  0  0  0  0  0  0  0  0  0  0
   49.4166   10.6498    0.6627 H   0  0  0  0  0  0  0  0  0  0  0  0
   48.7197    9.9406    2.7782 H   0  0  0  0  0  0  0  0  0  0  0  0
   48.1761    8.1314    4.4031 H   0  0  0  0  0  0  0  0  0  0  0  0
   48.3067    5.7415    3.7028 H   0  0  0  0  0  0  0  0  0  0  0  0
   49.0066    5.1595    1.3812 H   0  0  0  0  0  0  0  0  0  0  0  0
   49.5571    6.9627   -0.2474 H   0  0  0  0  0  0  0  0  0  0  0  0
   47.9951   11.9726    0.1404 H   0  0  0  0  0  0  0  0  0  0  0  0
  1  2  2  0
  2  3  1  0
  2  4  1  0
  4  5  1  0
  5  6  1  0
  6  7  2  0
  7  8  1  0
  8  9  2  0
  8 10  1  0
  7 11  1  0
 11 12  1  0
 12 13  1  0
 13 14  2  0
 14 15  1  0
 15 16  2  0
 16 17  1  0
 17 18  1  0
 18 19  1  0
 19 20  1  0
 20 21  2  0
 21 22  1  0
 22 23  2  0
 23 24  1  0
 24 25  2  0
 17 26  2  0
 12 27  2  0
 27 28  1  0
 27  6  1  0
 26 13  1  0
 25 20  1  0
  4 29  1  0
  4 30  1  0
 14 31  1  0
 15 32  1  0
 16 33  1  0
 18 34  1  0
 19 35  1  0
 19 36  1  0
 21 37  1  0
 22 38  1  0
 23 39  1  0
 24 40  1  0
 25 41  1  0
 26 42  1  0
M  CHG  2   3  -1  10  -1
M  END
>  <meeko>  (9) 
{"is_sidechain": [false], "free_energy": -7.283, "intermolecular_energy": -10.479, "internal_energy": -1.39}

$$$$
