2p15_ligand
     RDKit          3D

 61 65  0  0  0  0  0  0  0  0999 V2000
  -37.0570    2.2540   21.1540 C   0  0  0  0  0  0  0  0  0  0  0  0
  -36.8310    3.7780   20.9260 C   0  0  2  0  0  0  0  0  0  0  0  0
  -36.4630    3.9910   19.4460 C   0  0  0  0  0  0  0  0  0  0  0  0
  -35.0800    3.4050   19.0980 C   0  0  0  0  0  0  0  0  0  0  0  0
  -33.9500    3.8870   20.0460 C   0  0  2  0  0  0  0  0  0  0  0  0
  -32.5700    3.2980   19.7570 C   0  0  0  0  0  0  0  0  0  0  0  0
  -32.1710    2.9910   18.4430 C   0  0  0  0  0  0  0  0  0  0  0  0
  -30.8970    2.4910   18.1710 C   0  0  0  0  0  0  0  0  0  0  0  0
  -29.9960    2.3060   19.2060 C   0  0  0  0  0  0  0  0  0  0  0  0
  -28.7630    1.8120   18.8990 O   0  0  0  0  0  0  0  0  0  0  0  0
  -30.3490    2.6200   20.5120 C   0  0  0  0  0  0  0  0  0  0  0  0
  -31.6280    3.1320   20.7970 C   0  0  0  0  0  0  0  0  0  0  0  0
  -31.9590    3.4380   22.2390 C   0  0  0  0  0  0  0  0  0  0  0  0
  -33.2340    4.2540   22.4250 C   0  0  0  0  0  0  0  0  0  0  0  0
  -34.3460    3.6890   21.5390 C   0  0  1  0  0  0  0  0  0  0  0  0
  -35.6940    4.3690   21.7900 C   0  0  2  0  0  0  0  0  0  0  0  0
  -36.2680    4.3640   23.2060 C   0  0  0  0  0  0  0  0  0  0  0  0
  -37.7900    4.5210   23.0220 C   0  0  0  0  0  0  0  0  0  0  0  0
  -38.0500    4.5860   21.4920 C   0  0  2  0  0  0  0  0  0  0  0  0
  -39.2900    3.9390   21.2220 O   0  0  0  0  0  0  0  0  0  0  0  0
  -38.1870    5.9850   20.9180 C   0  0  0  0  0  0  0  0  0  0  0  0
  -37.3200    7.0060   21.0120 C   0  0  0  0  0  0  0  0  0  0  0  0
  -37.5820    8.2920   20.3590 C   0  0  0  0  0  0  0  0  0  0  0  0
  -38.6310    8.3670   19.4300 C   0  0  0  0  0  0  0  0  0  0  0  0
  -38.9160    9.5660   18.7780 C   0  0  0  0  0  0  0  0  0  0  0  0
  -38.1550   10.7000   19.0440 C   0  0  0  0  0  0  0  0  0  0  0  0
  -37.1080   10.6350   19.9650 C   0  0  0  0  0  0  0  0  0  0  0  0
  -36.8080    9.4340   20.6360 C   0  0  0  0  0  0  0  0  0  0  0  0
  -35.6580    9.3900   21.6130 C   0  0  0  0  0  0  0  0  0  0  0  0
  -35.0150    8.1860   21.6360 F   0  0  0  0  0  0  0  0  0  0  0  0
  -36.0450    9.6160   22.9000 F   0  0  0  0  0  0  0  0  0  0  0  0
  -34.6870   10.3090   21.3440 F   0  0  0  0  0  0  0  0  0  0  0  0
  -37.0879    2.0454   22.2336 H   0  0  0  0  0  0  0  0  0  0  0  0
  -38.0098    1.9519   20.6947 H   0  0  0  0  0  0  0  0  0  0  0  0
  -36.2329    1.6884   20.6947 H   0  0  0  0  0  0  0  0  0  0  0  0
  -37.2227    3.5021   18.8185 H   0  0  0  0  0  0  0  0  0  0  0  0
  -36.4263    5.0746   19.2604 H   0  0  0  0  0  0  0  0  0  0  0  0
  -35.1410    2.3083   19.1576 H   0  0  0  0  0  0  0  0  0  0  0  0
  -34.8253    3.7529   18.0860 H   0  0  0  0  0  0  0  0  0  0  0  0
  -33.8463    4.9623   19.8387 H   0  0  0  0  0  0  0  0  0  0  0  0
  -32.8770    3.1482   17.6143 H   0  0  0  0  0  0  0  0  0  0  0  0
  -30.6095    2.2447   17.1382 H   0  0  0  0  0  0  0  0  0  0  0  0
  -28.0930    2.3910   19.2960 H   0  0  0  0  0  0  0  0  0  0  0  0
  -29.6258    2.4678   21.3267 H   0  0  0  0  0  0  0  0  0  0  0  0
  -32.0770    2.4853   22.7761 H   0  0  0  0  0  0  0  0  0  0  0  0
  -31.1319    4.0474   22.6321 H   0  0  0  0  0  0  0  0  0  0  0  0
  -33.5472    4.2068   23.4784 H   0  0  0  0  0  0  0  0  0  0  0  0
  -33.0403    5.2992   22.1419 H   0  0  0  0  0  0  0  0  0  0  0  0
  -34.4598    2.6226   21.7834 H   0  0  0  0  0  0  0  0  0  0  0  0
  -35.4074    5.4004   21.5369 H   0  0  0  0  0  0  0  0  0  0  0  0
  -36.0360    3.4161   23.7135 H   0  0  0  0  0  0  0  0  0  0  0  0
  -35.8426    5.1666   23.8263 H   0  0  0  0  0  0  0  0  0  0  0  0
  -38.3157    3.6595   23.4597 H   0  0  0  0  0  0  0  0  0  0  0  0
  -38.1580    5.4275   23.5249 H   0  0  0  0  0  0  0  0  0  0  0  0
  -39.4540    4.0050   20.2660 H   0  0  0  0  0  0  0  0  0  0  0  0
  -39.1106    6.1871   20.3557 H   0  0  0  0  0  0  0  0  0  0  0  0
  -36.3940    6.8747   21.5910 H   0  0  0  0  0  0  0  0  0  0  0  0
  -39.2335    7.4723   19.2143 H   0  0  0  0  0  0  0  0  0  0  0  0
  -39.7423    9.6154   18.0535 H   0  0  0  0  0  0  0  0  0  0  0  0
  -38.3780   11.6463   18.5294 H   0  0  0  0  0  0  0  0  0  0  0  0
  -36.5089   11.5346   20.1694 H   0  0  0  0  0  0  0  0  0  0  0  0
  2  1  1  6
  2  3  1  0
  3  4  1  0
  4  5  1  0
  5  6  1  0
  6  7  2  0
  7  8  1  0
  8  9  2  0
  9 10  1  0
  9 11  1  0
 11 12  2  0
 12 13  1  0
 13 14  1  0
 14 15  1  0
 15 16  1  0
 16 17  1  0
 17 18  1  0
 18 19  1  0
 19 20  1  1
 19 21  1  0
 21 22  2  0
 22 23  1  0
 23 24  2  0
 24 25  1  0
 25 26  2  0
 26 27  1  0
 27 28  2  0
 28 29  1  0
 29 30  1  0
 29 31  1  0
 29 32  1  0
 16  2  1  0
 28 23  1  0
 19  2  1  0
 15  5  1  0
 12  6  1  0
  1 33  1  0
  1 34  1  0
  1 35  1  0
  3 36  1  0
  3 37  1  0
  4 38  1  0
  4 39  1  0
  5 40  1  1
  7 41  1  0
  8 42  1  0
 10 43  1  0
 11 44  1  0
 13 45  1  0
 13 46  1  0
 14 47  1  0
 14 48  1  0
 15 49  1  1
 16 50  1  6
 17 51  1  0
 17 52  1  0
 18 53  1  0
 18 54  1  0
 20 55  1  0
 21 56  1  0
 22 57  1  0
 24 58  1  0
 25 59  1  0
 26 60  1  0
 27 61  1  0
M  END
>  <meeko>  (1) 
{"is_sidechain": [false], "free_energy": -11.141, "intermolecular_energy": -13.746, "internal_energy": -0.645}

$$$$
