1pxn_ligand
     RDKit          3D

 37 39  0  0  0  0  0  0  0  0999 V2000
   -4.9570    7.7220   17.9580 C   0  0  0  0  0  0  0  0  0  0  0  0
   -4.9870    9.0420   18.5440 N   0  0  0  0  0  0  0  0  0  0  0  0
   -4.5660    9.1890   19.8210 C   0  0  0  0  0  0  0  0  0  0  0  0
   -5.2210    9.8220   20.7640 N   0  0  0  0  0  0  0  0  0  0  0  0
   -4.5190    9.7850   21.9590 C   0  0  0  0  0  0  0  0  0  0  0  0
   -5.1370   10.4350   23.1450 C   0  0  0  0  0  0  0  0  0  0  0  0
   -3.3000    9.1250   21.8990 C   0  0  0  0  0  0  0  0  0  0  0  0
   -2.2820    8.9170   22.9220 C   0  0  0  0  0  0  0  0  0  0  0  0
   -1.2830    9.8380   23.1410 C   0  0  0  0  0  0  0  0  0  0  0  0
   -0.4030    9.5150   24.1410 C   0  0  0  0  0  0  0  0  0  0  0  0
   -0.4930    8.3900   24.8710 N   0  0  0  0  0  0  0  0  0  0  0  0
   -1.4960    7.5440   24.5920 C   0  0  0  0  0  0  0  0  0  0  0  0
   -1.6760    6.3530   25.2870 N   0  0  0  0  0  0  0  0  0  0  0  0
   -0.8310    5.5060   26.0100 C   0  0  0  0  0  0  0  0  0  0  0  0
   -1.1160    4.1290   26.0260 C   0  0  0  0  0  0  0  0  0  0  0  0
   -0.3140    3.2270   26.7310 C   0  0  0  0  0  0  0  0  0  0  0  0
    0.7860    3.6940   27.4350 C   0  0  0  0  0  0  0  0  0  0  0  0
    1.5430    2.7870   28.1110 O   0  0  0  0  0  0  0  0  0  0  0  0
    1.0940    5.0480   27.4420 C   0  0  0  0  0  0  0  0  0  0  0  0
    0.2850    5.9450   26.7320 C   0  0  0  0  0  0  0  0  0  0  0  0
   -2.4020    7.7770   23.6320 N   0  0  0  0  0  0  0  0  0  0  0  0
   -3.0640    8.5150   20.3120 S   0  0  0  0  0  0  0  0  0  0  0  0
   -4.9398    6.9663   18.7572 H   0  0  0  0  0  0  0  0  0  0  0  0
   -5.8521    7.5768   17.3353 H   0  0  0  0  0  0  0  0  0  0  0  0
   -4.0563    7.6177   17.3353 H   0  0  0  0  0  0  0  0  0  0  0  0
   -4.7620    9.8020   17.9100 H   0  0  0  0  0  0  0  0  0  0  0  0
   -4.7194    9.9958   24.0630 H   0  0  0  0  0  0  0  0  0  0  0  0
   -4.9235   11.5139   23.1247 H   0  0  0  0  0  0  0  0  0  0  0  0
   -6.2253   10.2762   23.1247 H   0  0  0  0  0  0  0  0  0  0  0  0
   -1.1970   10.7657   22.5562 H   0  0  0  0  0  0  0  0  0  0  0  0
    0.4195   10.2126   24.3573 H   0  0  0  0  0  0  0  0  0  0  0  0
   -2.6430    6.0750   25.2080 H   0  0  0  0  0  0  0  0  0  0  0  0
   -1.9889    3.7536   25.4718 H   0  0  0  0  0  0  0  0  0  0  0  0
   -0.5538    2.1535   26.7275 H   0  0  0  0  0  0  0  0  0  0  0  0
    1.3750    1.9070   27.7360 H   0  0  0  0  0  0  0  0  0  0  0  0
    1.9676    5.4140   28.0014 H   0  0  0  0  0  0  0  0  0  0  0  0
    0.5321    7.0168   26.7422 H   0  0  0  0  0  0  0  0  0  0  0  0
  1  2  1  0
  2  3  1  0
  3  4  2  0
  4  5  1  0
  5  6  1  0
  5  7  2  0
  7  8  1  0
  8  9  2  0
  9 10  1  0
 10 11  2  0
 11 12  1  0
 12 13  1  0
 13 14  1  0
 14 15  2  0
 15 16  1  0
 16 17  2  0
 17 18  1  0
 17 19  1  0
 19 20  2  0
 12 21  2  0
  7 22  1  0
 22  3  1  0
 21  8  1  0
 20 14  1  0
  1 23  1  0
  1 24  1  0
  1 25  1  0
  2 26  1  0
  6 27  1  0
  6 28  1  0
  6 29  1  0
  9 30  1  0
 10 31  1  0
 13 32  1  0
 15 33  1  0
 16 34  1  0
 18 35  1  0
 19 36  1  0
 20 37  1  0
M  END
>  <meeko>  (1) 
{"is_sidechain": [false], "free_energy": -9.126, "intermolecular_energy": -11.527, "internal_energy": -0.23}

$$$$
1pxn_ligand
     RDKit          3D

 37 39  0  0  0  0  0  0  0  0999 V2000
   -2.2010    8.5540   21.8810 C   0  0  0  0  0  0  0  0  0  0  0  0
   -1.0250    8.4310   22.7110 N   0  0  0  0  0  0  0  0  0  0  0  0
   -1.0540    7.5520   23.7390 C   0  0  0  0  0  0  0  0  0  0  0  0
   -2.1420    7.0830   24.3020 N   0  0  0  0  0  0  0  0  0  0  0  0
   -1.8250    6.1990   25.3220 C   0  0  0  0  0  0  0  0  0  0  0  0
   -2.9480    5.5500   26.0490 C   0  0  0  0  0  0  0  0  0  0  0  0
   -0.4670    6.0210   25.5390 C   0  0  0  0  0  0  0  0  0  0  0  0
    0.2400    5.2160   26.5290 C   0  0  0  0  0  0  0  0  0  0  0  0
   -0.0520    3.8840   26.7150 C   0  0  0  0  0  0  0  0  0  0  0  0
    0.6980    3.2520   27.6710 C   0  0  0  0  0  0  0  0  0  0  0  0
    1.6580    3.8660   28.3840 N   0  0  0  0  0  0  0  0  0  0  0  0
    1.8790    5.1670   28.1420 C   0  0  0  0  0  0  0  0  0  0  0  0
    2.8470    5.8940   28.8270 N   0  0  0  0  0  0  0  0  0  0  0  0
    3.6480    6.9950   28.5090 C   0  0  0  0  0  0  0  0  0  0  0  0
    3.3160    7.7620   27.3790 C   0  0  0  0  0  0  0  0  0  0  0  0
    4.0760    8.8740   27.0030 C   0  0  0  0  0  0  0  0  0  0  0  0
    5.1850    9.2310   27.7560 C   0  0  0  0  0  0  0  0  0  0  0  0
    5.9020   10.3180   27.3600 O   0  0  0  0  0  0  0  0  0  0  0  0
    5.5420    8.4930   28.8760 C   0  0  0  0  0  0  0  0  0  0  0  0
    4.7740    7.3810   29.2460 C   0  0  0  0  0  0  0  0  0  0  0  0
    1.1930    5.8660   27.2270 N   0  0  0  0  0  0  0  0  0  0  0  0
    0.4160    6.9630   24.4060 S   0  0  0  0  0  0  0  0  0  0  0  0
   -3.0921    8.6472   22.5192 H   0  0  0  0  0  0  0  0  0  0  0  0
   -2.1097    9.4475   21.2459 H   0  0  0  0  0  0  0  0  0  0  0  0
   -2.2966    7.6610   21.2459 H   0  0  0  0  0  0  0  0  0  0  0  0
   -0.1400    8.5170   22.2240 H   0  0  0  0  0  0  0  0  0  0  0  0
   -2.7859    5.6437   27.1329 H   0  0  0  0  0  0  0  0  0  0  0  0
   -3.8938    6.0407   25.7759 H   0  0  0  0  0  0  0  0  0  0  0  0
   -2.9950    4.4855   25.7759 H   0  0  0  0  0  0  0  0  0  0  0  0
   -0.8312    3.3647   26.1378 H   0  0  0  0  0  0  0  0  0  0  0  0
    0.5048    2.1867   27.8654 H   0  0  0  0  0  0  0  0  0  0  0  0
    2.9700    5.4880   29.7430 H   0  0  0  0  0  0  0  0  0  0  0  0
    2.4391    7.4814   26.7771 H   0  0  0  0  0  0  0  0  0  0  0  0
    3.7963    9.4616   26.1162 H   0  0  0  0  0  0  0  0  0  0  0  0
    6.8330   10.0560   27.2700 H   0  0  0  0  0  0  0  0  0  0  0  0
    6.4227    8.7794   29.4696 H   0  0  0  0  0  0  0  0  0  0  0  0
    5.0618    6.7992   30.1341 H   0  0  0  0  0  0  0  0  0  0  0  0
  1  2  1  0
  2  3  1  0
  3  4  2  0
  4  5  1  0
  5  6  1  0
  5  7  2  0
  7  8  1  0
  8  9  2  0
  9 10  1  0
 10 11  2  0
 11 12  1  0
 12 13  1  0
 13 14  1  0
 14 15  2  0
 15 16  1  0
 16 17  2  0
 17 18  1  0
 17 19  1  0
 19 20  2  0
 12 21  2  0
  7 22  1  0
 22  3  1  0
 21  8  1  0
 20 14  1  0
  1 23  1  0
  1 24  1  0
  1 25  1  0
  2 26  1  0
  6 27  1  0
  6 28  1  0
  6 29  1  0
  9 30  1  0
 10 31  1  0
 13 32  1  0
 15 33  1  0
 16 34  1  0
 18 35  1  0
 19 36  1  0
 20 37  1  0
M  END
>  <meeko>  (2) 
{"is_sidechain": [false], "free_energy": -8.697, "intermolecular_energy": -11.354, "internal_energy": 0.14}

$$$$
1pxn_ligand
     RDKit          3D

 37 39  0  0  0  0  0  0  0  0999 V2000
   -4.8820    7.8080   18.1960 C   0  0  0  0  0  0  0  0  0  0  0  0
   -4.6530    9.2160   18.4240 N   0  0  0  0  0  0  0  0  0  0  0  0
   -3.7270    9.5760   19.3420 C   0  0  0  0  0  0  0  0  0  0  0  0
   -2.9260   10.6100   19.2410 N   0  0  0  0  0  0  0  0  0  0  0  0
   -2.1030   10.7030   20.3530 C   0  0  0  0  0  0  0  0  0  0  0  0
   -1.1480   11.8420   20.4130 C   0  0  0  0  0  0  0  0  0  0  0  0
   -2.2810    9.7020   21.2960 C   0  0  0  0  0  0  0  0  0  0  0  0
   -1.5880    9.4480   22.5540 C   0  0  0  0  0  0  0  0  0  0  0  0
   -0.7240   10.3700   23.0990 C   0  0  0  0  0  0  0  0  0  0  0  0
   -0.1530   10.0010   24.2880 C   0  0  0  0  0  0  0  0  0  0  0  0
   -0.4070    8.8310   24.8990 N   0  0  0  0  0  0  0  0  0  0  0  0
   -1.2610    7.9880   24.3010 C   0  0  0  0  0  0  0  0  0  0  0  0
   -1.5890    6.7530   24.8490 N   0  0  0  0  0  0  0  0  0  0  0  0
   -0.9140    5.8290   25.6530 C   0  0  0  0  0  0  0  0  0  0  0  0
   -1.3790    4.5030   25.6850 C   0  0  0  0  0  0  0  0  0  0  0  0
   -0.7520    3.5300   26.4690 C   0  0  0  0  0  0  0  0  0  0  0  0
    0.3500    3.8750   27.2360 C   0  0  0  0  0  0  0  0  0  0  0  0
    0.9340    2.9010   27.9880 O   0  0  0  0  0  0  0  0  0  0  0  0
    0.8320    5.1760   27.2290 C   0  0  0  0  0  0  0  0  0  0  0  0
    0.1990    6.1450   26.4400 C   0  0  0  0  0  0  0  0  0  0  0  0
   -1.8650    8.2650   23.1370 N   0  0  0  0  0  0  0  0  0  0  0  0
   -3.5360    8.6510   20.7780 S   0  0  0  0  0  0  0  0  0  0  0  0
   -4.9664    7.2891   19.1622 H   0  0  0  0  0  0  0  0  0  0  0  0
   -5.8135    7.6756   17.6261 H   0  0  0  0  0  0  0  0  0  0  0  0
   -4.0405    7.3872   17.6261 H   0  0  0  0  0  0  0  0  0  0  0  0
   -4.7150    9.8030   17.5990 H   0  0  0  0  0  0  0  0  0  0  0  0
   -0.9395   12.0907   21.4640 H   0  0  0  0  0  0  0  0  0  0  0  0
   -0.2109   11.5617   19.9097 H   0  0  0  0  0  0  0  0  0  0  0  0
   -1.5874   12.7158   19.9097 H   0  0  0  0  0  0  0  0  0  0  0  0
   -0.5076   11.3337   22.6148 H   0  0  0  0  0  0  0  0  0  0  0  0
    0.5498   10.6982   24.7677 H   0  0  0  0  0  0  0  0  0  0  0  0
   -2.5260    6.5090   24.5610 H   0  0  0  0  0  0  0  0  0  0  0  0
   -2.2548    4.2249   25.0804 H   0  0  0  0  0  0  0  0  0  0  0  0
   -1.1307    2.4973   26.4772 H   0  0  0  0  0  0  0  0  0  0  0  0
    0.2650    2.2260   28.1880 H   0  0  0  0  0  0  0  0  0  0  0  0
    1.7064    5.4451   27.8397 H   0  0  0  0  0  0  0  0  0  0  0  0
    0.5847    7.1752   26.4391 H   0  0  0  0  0  0  0  0  0  0  0  0
  1  2  1  0
  2  3  1  0
  3  4  2  0
  4  5  1  0
  5  6  1  0
  5  7  2  0
  7  8  1  0
  8  9  2  0
  9 10  1  0
 10 11  2  0
 11 12  1  0
 12 13  1  0
 13 14  1  0
 14 15  2  0
 15 16  1  0
 16 17  2  0
 17 18  1  0
 17 19  1  0
 19 20  2  0
 12 21  2  0
  7 22  1  0
 22  3  1  0
 21  8  1  0
 20 14  1  0
  1 23  1  0
  1 24  1  0
  1 25  1  0
  2 26  1  0
  6 27  1  0
  6 28  1  0
  6 29  1  0
  9 30  1  0
 10 31  1  0
 13 32  1  0
 15 33  1  0
 16 34  1  0
 18 35  1  0
 19 36  1  0
 20 37  1  0
M  END
>  <meeko>  (3) 
{"is_sidechain": [false], "free_energy": -8.652, "intermolecular_energy": -11.398, "internal_energy": 0.239}

$$$$
1pxn_ligand
     RDKit          3D

 37 39  0  0  0  0  0  0  0  0999 V2000
    1.9300    4.5420   28.2760 C   0  0  0  0  0  0  0  0  0  0  0  0
    0.7670    3.9890   27.6210 N   0  0  0  0  0  0  0  0  0  0  0  0
   -0.0040    4.8130   26.8750 C   0  0  0  0  0  0  0  0  0  0  0  0
   -1.2790    4.6320   26.6230 N   0  0  0  0  0  0  0  0  0  0  0  0
   -1.7740    5.6600   25.8360 C   0  0  0  0  0  0  0  0  0  0  0  0
   -3.2170    5.6230   25.4780 C   0  0  0  0  0  0  0  0  0  0  0  0
   -0.8410    6.6200   25.4750 C   0  0  0  0  0  0  0  0  0  0  0  0
   -0.9740    7.8070   24.6380 C   0  0  0  0  0  0  0  0  0  0  0  0
   -0.3420    8.9870   24.9560 C   0  0  0  0  0  0  0  0  0  0  0  0
   -0.5480   10.0140   24.0730 C   0  0  0  0  0  0  0  0  0  0  0  0
   -1.3060    9.9000   22.9690 N   0  0  0  0  0  0  0  0  0  0  0  0
   -1.8890    8.7150   22.7320 C   0  0  0  0  0  0  0  0  0  0  0  0
   -2.6930    8.4930   21.6190 N   0  0  0  0  0  0  0  0  0  0  0  0
   -3.3220    9.3240   20.6870 C   0  0  0  0  0  0  0  0  0  0  0  0
   -4.5280    8.8900   20.1100 C   0  0  0  0  0  0  0  0  0  0  0  0
   -5.2070    9.6690   19.1690 C   0  0  0  0  0  0  0  0  0  0  0  0
   -4.6830   10.8960   18.7890 C   0  0  0  0  0  0  0  0  0  0  0  0
   -5.3710   11.6260   17.8700 O   0  0  0  0  0  0  0  0  0  0  0  0
   -3.4920   11.3510   19.3370 C   0  0  0  0  0  0  0  0  0  0  0  0
   -2.8190   10.5650   20.2810 C   0  0  0  0  0  0  0  0  0  0  0  0
   -1.7430    7.6560   23.5410 N   0  0  0  0  0  0  0  0  0  0  0  0
    0.6760    6.2280   26.1770 S   0  0  0  0  0  0  0  0  0  0  0  0
    1.8005    4.4804   29.3666 H   0  0  0  0  0  0  0  0  0  0  0  0
    2.8231    3.9722   27.9800 H   0  0  0  0  0  0  0  0  0  0  0  0
    2.0518    5.5944   27.9800 H   0  0  0  0  0  0  0  0  0  0  0  0
    0.8760    3.0430   27.2700 H   0  0  0  0  0  0  0  0  0  0  0  0
   -3.8223    5.6075   26.3963 H   0  0  0  0  0  0  0  0  0  0  0  0
   -3.4710    6.5149   24.8864 H   0  0  0  0  0  0  0  0  0  0  0  0
   -3.4250    4.7192   24.8864 H   0  0  0  0  0  0  0  0  0  0  0  0
    0.2834    9.0978   25.8541 H   0  0  0  0  0  0  0  0  0  0  0  0
   -0.0681   10.9823   24.2782 H   0  0  0  0  0  0  0  0  0  0  0  0
   -2.8340    7.4990   21.5160 H   0  0  0  0  0  0  0  0  0  0  0  0
   -4.9463    7.9165   20.4054 H   0  0  0  0  0  0  0  0  0  0  0  0
   -6.1512    9.3114   18.7324 H   0  0  0  0  0  0  0  0  0  0  0  0
   -5.0510   11.3850   16.9850 H   0  0  0  0  0  0  0  0  0  0  0  0
   -3.0787   12.3236   19.0317 H   0  0  0  0  0  0  0  0  0  0  0  0
   -1.8755   10.9309   20.7121 H   0  0  0  0  0  0  0  0  0  0  0  0
  1  2  1  0
  2  3  1  0
  3  4  2  0
  4  5  1  0
  5  6  1  0
  5  7  2  0
  7  8  1  0
  8  9  2  0
  9 10  1  0
 10 11  2  0
 11 12  1  0
 12 13  1  0
 13 14  1  0
 14 15  2  0
 15 16  1  0
 16 17  2  0
 17 18  1  0
 17 19  1  0
 19 20  2  0
 12 21  2  0
  7 22  1  0
 22  3  1  0
 21  8  1  0
 20 14  1  0
  1 23  1  0
  1 24  1  0
  1 25  1  0
  2 26  1  0
  6 27  1  0
  6 28  1  0
  6 29  1  0
  9 30  1  0
 10 31  1  0
 13 32  1  0
 15 33  1  0
 16 34  1  0
 18 35  1  0
 19 36  1  0
 20 37  1  0
M  END
>  <meeko>  (4) 
{"is_sidechain": [false], "free_energy": -8.431, "intermolecular_energy": -10.93, "internal_energy": 0.051}

$$$$
1pxn_ligand
     RDKit          3D

 37 39  0  0  0  0  0  0  0  0999 V2000
   -4.3970    7.5390   17.9880 C   0  0  0  0  0  0  0  0  0  0  0  0
   -5.1500    8.4740   18.7920 N   0  0  0  0  0  0  0  0  0  0  0  0
   -4.5790    8.9590   19.9180 C   0  0  0  0  0  0  0  0  0  0  0  0
   -5.2320    9.4650   20.9380 N   0  0  0  0  0  0  0  0  0  0  0  0
   -4.3520    9.8650   21.9330 C   0  0  0  0  0  0  0  0  0  0  0  0
   -4.9310   10.4380   23.1770 C   0  0  0  0  0  0  0  0  0  0  0  0
   -3.0110    9.6720   21.6390 C   0  0  0  0  0  0  0  0  0  0  0  0
   -1.8140    9.9970   22.4060 C   0  0  0  0  0  0  0  0  0  0  0  0
   -0.9910   11.0410   22.0480 C   0  0  0  0  0  0  0  0  0  0  0  0
    0.0900   11.2360   22.8670 C   0  0  0  0  0  0  0  0  0  0  0  0
    0.3450   10.4800   23.9480 N   0  0  0  0  0  0  0  0  0  0  0  0
   -0.5060    9.4820   24.2270 C   0  0  0  0  0  0  0  0  0  0  0  0
   -0.3300    8.6410   25.3200 N   0  0  0  0  0  0  0  0  0  0  0  0
   -0.5510    7.2800   25.5520 C   0  0  0  0  0  0  0  0  0  0  0  0
    0.3260    6.5960   26.4120 C   0  0  0  0  0  0  0  0  0  0  0  0
    0.1640    5.2340   26.6850 C   0  0  0  0  0  0  0  0  0  0  0  0
   -0.8800    4.5370   26.0950 C   0  0  0  0  0  0  0  0  0  0  0  0
   -1.0050    3.2120   26.3830 O   0  0  0  0  0  0  0  0  0  0  0  0
   -1.7610    5.1820   25.2390 C   0  0  0  0  0  0  0  0  0  0  0  0
   -1.5920    6.5470   24.9720 C   0  0  0  0  0  0  0  0  0  0  0  0
   -1.5880    9.2160   23.4810 N   0  0  0  0  0  0  0  0  0  0  0  0
   -2.8700    8.9390   20.0920 S   0  0  0  0  0  0  0  0  0  0  0  0
   -3.8439    6.8523   18.6457 H   0  0  0  0  0  0  0  0  0  0  0  0
   -5.0864    6.9631   17.3531 H   0  0  0  0  0  0  0  0  0  0  0  0
   -3.6874    8.0898   17.3531 H   0  0  0  0  0  0  0  0  0  0  0  0
   -5.7300    9.1240   18.2710 H   0  0  0  0  0  0  0  0  0  0  0  0
   -4.4571    9.9690   24.0519 H   0  0  0  0  0  0  0  0  0  0  0  0
   -4.7504   11.5228   23.1997 H   0  0  0  0  0  0  0  0  0  0  0  0
   -6.0139   10.2461   23.1997 H   0  0  0  0  0  0  0  0  0  0  0  0
   -1.1869   11.6724   21.1688 H   0  0  0  0  0  0  0  0  0  0  0  0
    0.7852   12.0540   22.6270 H   0  0  0  0  0  0  0  0  0  0  0  0
    0.0210    9.1860   26.0950 H   0  0  0  0  0  0  0  0  0  0  0  0
    1.1572    7.1437   26.8801 H   0  0  0  0  0  0  0  0  0  0  0  0
    0.8601    4.7188   27.3633 H   0  0  0  0  0  0  0  0  0  0  0  0
   -0.2630    2.7380   25.9730 H   0  0  0  0  0  0  0  0  0  0  0  0
   -2.5871    4.6251   24.7728 H   0  0  0  0  0  0  0  0  0  0  0  0
   -2.2928    7.0532   24.2918 H   0  0  0  0  0  0  0  0  0  0  0  0
  1  2  1  0
  2  3  1  0
  3  4  2  0
  4  5  1  0
  5  6  1  0
  5  7  2  0
  7  8  1  0
  8  9  2  0
  9 10  1  0
 10 11  2  0
 11 12  1  0
 12 13  1  0
 13 14  1  0
 14 15  2  0
 15 16  1  0
 16 17  2  0
 17 18  1  0
 17 19  1  0
 19 20  2  0
 12 21  2  0
  7 22  1  0
 22  3  1  0
 21  8  1  0
 20 14  1  0
  1 23  1  0
  1 24  1  0
  1 25  1  0
  2 26  1  0
  6 27  1  0
  6 28  1  0
  6 29  1  0
  9 30  1  0
 10 31  1  0
 13 32  1  0
 15 33  1  0
 16 34  1  0
 18 35  1  0
 19 36  1  0
 20 37  1  0
M  END
>  <meeko>  (5) 
{"is_sidechain": [false], "free_energy": -8.301, "intermolecular_energy": -10.528, "internal_energy": -0.188}

$$$$
1pxn_ligand
     RDKit          3D

 37 39  0  0  0  0  0  0  0  0999 V2000
    1.4700    4.2070   27.9430 C   0  0  0  0  0  0  0  0  0  0  0  0
    0.3040    4.6240   27.1990 N   0  0  0  0  0  0  0  0  0  0  0  0
    0.3610    5.7900   26.5160 C   0  0  0  0  0  0  0  0  0  0  0  0
    1.3710    6.6260   26.5320 N   0  0  0  0  0  0  0  0  0  0  0  0
    1.1140    7.7210   25.7210 C   0  0  0  0  0  0  0  0  0  0  0  0
    2.1740    8.7580   25.6020 C   0  0  0  0  0  0  0  0  0  0  0  0
   -0.1270    7.7110   25.1020 C   0  0  0  0  0  0  0  0  0  0  0  0
   -0.7580    8.6890   24.2240 C   0  0  0  0  0  0  0  0  0  0  0  0
   -0.2770    9.9740   24.1130 C   0  0  0  0  0  0  0  0  0  0  0  0
   -0.9630   10.7790   23.2420 C   0  0  0  0  0  0  0  0  0  0  0  0
   -2.0290   10.3650   22.5350 N   0  0  0  0  0  0  0  0  0  0  0  0
   -2.4350    9.0980   22.7020 C   0  0  0  0  0  0  0  0  0  0  0  0
   -3.5260    8.5720   22.0190 N   0  0  0  0  0  0  0  0  0  0  0  0
   -4.2310    8.9430   20.8690 C   0  0  0  0  0  0  0  0  0  0  0  0
   -5.1450   10.0070   20.9580 C   0  0  0  0  0  0  0  0  0  0  0  0
   -5.8840   10.4260   19.8480 C   0  0  0  0  0  0  0  0  0  0  0  0
   -5.7190    9.7800   18.6310 C   0  0  0  0  0  0  0  0  0  0  0  0
   -6.4560   10.2150   17.5730 O   0  0  0  0  0  0  0  0  0  0  0  0
   -4.8260    8.7240   18.5120 C   0  0  0  0  0  0  0  0  0  0  0  0
   -4.0890    8.3110   19.6290 C   0  0  0  0  0  0  0  0  0  0  0  0
   -1.8250    8.2390   23.5320 N   0  0  0  0  0  0  0  0  0  0  0  0
   -0.9610    6.2730   25.5300 S   0  0  0  0  0  0  0  0  0  0  0  0
    1.2630    4.2810   29.0208 H   0  0  0  0  0  0  0  0  0  0  0  0
    1.7150    3.1655   27.6873 H   0  0  0  0  0  0  0  0  0  0  0  0
    2.3199    4.8569   27.6873 H   0  0  0  0  0  0  0  0  0  0  0  0
   -0.2190    3.8750   26.7590 H   0  0  0  0  0  0  0  0  0  0  0  0
    2.4946    9.0716   26.6064 H   0  0  0  0  0  0  0  0  0  0  0  0
    3.0337    8.3426   25.0558 H   0  0  0  0  0  0  0  0  0  0  0  0
    1.7775    9.6266   25.0558 H   0  0  0  0  0  0  0  0  0  0  0  0
    0.5948   10.3288   24.6823 H   0  0  0  0  0  0  0  0  0  0  0  0
   -0.6241   11.8177   23.1146 H   0  0  0  0  0  0  0  0  0  0  0  0
   -3.8520    7.7530   22.5120 H   0  0  0  0  0  0  0  0  0  0  0  0
   -5.2816   10.5206   21.9211 H   0  0  0  0  0  0  0  0  0  0  0  0
   -6.5922   11.2628   19.9386 H   0  0  0  0  0  0  0  0  0  0  0  0
   -5.9280   10.1050   16.7650 H   0  0  0  0  0  0  0  0  0  0  0  0
   -4.6979    8.2143   17.5457 H   0  0  0  0  0  0  0  0  0  0  0  0
   -3.3840    7.4725   19.5293 H   0  0  0  0  0  0  0  0  0  0  0  0
  1  2  1  0
  2  3  1  0
  3  4  2  0
  4  5  1  0
  5  6  1  0
  5  7  2  0
  7  8  1  0
  8  9  2  0
  9 10  1  0
 10 11  2  0
 11 12  1  0
 12 13  1  0
 13 14  1  0
 14 15  2  0
 15 16  1  0
 16 17  2  0
 17 18  1  0
 17 19  1  0
 19 20  2  0
 12 21  2  0
  7 22  1  0
 22  3  1  0
 21  8  1  0
 20 14  1  0
  1 23  1  0
  1 24  1  0
  1 25  1  0
  2 26  1  0
  6 27  1  0
  6 28  1  0
  6 29  1  0
  9 30  1  0
 10 31  1  0
 13 32  1  0
 15 33  1  0
 16 34  1  0
 18 35  1  0
 19 36  1  0
 20 37  1  0
M  END
>  <meeko>  (6) 
{"is_sidechain": [false], "free_energy": -8.261, "intermolecular_energy": -10.628, "internal_energy": -0.036}

$$$$
1pxn_ligand
     RDKit          3D

 37 39  0  0  0  0  0  0  0  0999 V2000
   -2.3180    3.5730   25.1290 C   0  0  0  0  0  0  0  0  0  0  0  0
   -1.3990    3.6160   26.2420 N   0  0  0  0  0  0  0  0  0  0  0  0
   -0.5510    4.6650   26.3360 C   0  0  0  0  0  0  0  0  0  0  0  0
    0.3680    4.8130   27.2610 N   0  0  0  0  0  0  0  0  0  0  0  0
    1.0710    5.9930   27.0700 C   0  0  0  0  0  0  0  0  0  0  0  0
    2.1730    6.3030   28.0190 C   0  0  0  0  0  0  0  0  0  0  0  0
    0.6510    6.7530   25.9880 C   0  0  0  0  0  0  0  0  0  0  0  0
    1.1130    8.0480   25.5020 C   0  0  0  0  0  0  0  0  0  0  0  0
    2.3410    8.5550   25.8590 C   0  0  0  0  0  0  0  0  0  0  0  0
    2.6460    9.7770   25.3190 C   0  0  0  0  0  0  0  0  0  0  0  0
    1.8230   10.4470   24.4940 N   0  0  0  0  0  0  0  0  0  0  0  0
    0.6430    9.8840   24.1970 C   0  0  0  0  0  0  0  0  0  0  0  0
   -0.2800   10.4950   23.3550 N   0  0  0  0  0  0  0  0  0  0  0  0
   -1.4370   10.0670   22.6980 C   0  0  0  0  0  0  0  0  0  0  0  0
   -2.6840   10.4750   23.2020 C   0  0  0  0  0  0  0  0  0  0  0  0
   -3.8800   10.0800   22.5950 C   0  0  0  0  0  0  0  0  0  0  0  0
   -3.8420    9.2660   21.4720 C   0  0  0  0  0  0  0  0  0  0  0  0
   -5.0260    8.9010   20.9090 O   0  0  0  0  0  0  0  0  0  0  0  0
   -2.6270    8.8430   20.9510 C   0  0  0  0  0  0  0  0  0  0  0  0
   -1.4340    9.2440   21.5650 C   0  0  0  0  0  0  0  0  0  0  0  0
    0.2600    8.6930   24.6800 N   0  0  0  0  0  0  0  0  0  0  0  0
   -0.6290    5.9380   25.1850 S   0  0  0  0  0  0  0  0  0  0  0  0
   -3.3498    3.5247   25.5071 H   0  0  0  0  0  0  0  0  0  0  0  0
   -2.1941    4.4779   24.5160 H   0  0  0  0  0  0  0  0  0  0  0  0
   -2.1101    2.6836   24.5160 H   0  0  0  0  0  0  0  0  0  0  0  0
   -1.7640    3.2580   27.1190 H   0  0  0  0  0  0  0  0  0  0  0  0
    1.8076    6.2002   29.0514 H   0  0  0  0  0  0  0  0  0  0  0  0
    3.0065    5.6045   27.8538 H   0  0  0  0  0  0  0  0  0  0  0  0
    2.5201    7.3336   27.8538 H   0  0  0  0  0  0  0  0  0  0  0  0
    3.0284    8.0183   26.5294 H   0  0  0  0  0  0  0  0  0  0  0  0
    3.6140   10.2331   25.5738 H   0  0  0  0  0  0  0  0  0  0  0  0
    0.0020   11.4540   23.2080 H   0  0  0  0  0  0  0  0  0  0  0  0
   -2.7198   11.1189   24.0931 H   0  0  0  0  0  0  0  0  0  0  0  0
   -4.8450   10.4125   23.0052 H   0  0  0  0  0  0  0  0  0  0  0  0
   -5.1700    7.9560   21.0820 H   0  0  0  0  0  0  0  0  0  0  0  0
   -2.6014    8.1967   20.0612 H   0  0  0  0  0  0  0  0  0  0  0  0
   -0.4740    8.9053   21.1484 H   0  0  0  0  0  0  0  0  0  0  0  0
  1  2  1  0
  2  3  1  0
  3  4  2  0
  4  5  1  0
  5  6  1  0
  5  7  2  0
  7  8  1  0
  8  9  2  0
  9 10  1  0
 10 11  2  0
 11 12  1  0
 12 13  1  0
 13 14  1  0
 14 15  2  0
 15 16  1  0
 16 17  2  0
 17 18  1  0
 17 19  1  0
 19 20  2  0
 12 21  2  0
  7 22  1  0
 22  3  1  0
 21  8  1  0
 20 14  1  0
  1 23  1  0
  1 24  1  0
  1 25  1  0
  2 26  1  0
  6 27  1  0
  6 28  1  0
  6 29  1  0
  9 30  1  0
 10 31  1  0
 13 32  1  0
 15 33  1  0
 16 34  1  0
 18 35  1  0
 19 36  1  0
 20 37  1  0
M  END
>  <meeko>  (7) 
{"is_sidechain": [false], "free_energy": -8.03, "intermolecular_energy": -10.136, "internal_energy": -0.237}

$$$$
1pxn_ligand
     RDKit          3D

 37 39  0  0  0  0  0  0  0  0999 V2000
    4.3700    7.5530   28.2410 C   0  0  0  0  0  0  0  0  0  0  0  0
    3.8770    6.3100   28.7880 N   0  0  0  0  0  0  0  0  0  0  0  0
    2.7560    5.7730   28.2550 C   0  0  0  0  0  0  0  0  0  0  0  0
    2.4580    4.4960   28.2530 N   0  0  0  0  0  0  0  0  0  0  0  0
    1.2360    4.2790   27.6340 C   0  0  0  0  0  0  0  0  0  0  0  0
    0.7320    2.8800   27.5710 C   0  0  0  0  0  0  0  0  0  0  0  0
    0.6180    5.4190   27.1450 C   0  0  0  0  0  0  0  0  0  0  0  0
   -0.6330    5.5830   26.4130 C   0  0  0  0  0  0  0  0  0  0  0  0
   -1.8260    5.1180   26.9160 C   0  0  0  0  0  0  0  0  0  0  0  0
   -2.9210    5.3510   26.1250 C   0  0  0  0  0  0  0  0  0  0  0  0
   -2.8580    5.9900   24.9440 N   0  0  0  0  0  0  0  0  0  0  0  0
   -1.6560    6.4110   24.5260 C   0  0  0  0  0  0  0  0  0  0  0  0
   -1.4820    7.0800   23.3190 N   0  0  0  0  0  0  0  0  0  0  0  0
   -1.2460    8.4110   22.9650 C   0  0  0  0  0  0  0  0  0  0  0  0
   -1.4560    8.7970   21.6290 C   0  0  0  0  0  0  0  0  0  0  0  0
   -1.2360   10.1110   21.2070 C   0  0  0  0  0  0  0  0  0  0  0  0
   -0.7970   11.0590   22.1190 C   0  0  0  0  0  0  0  0  0  0  0  0
   -0.5920   12.3280   21.6710 O   0  0  0  0  0  0  0  0  0  0  0  0
   -0.5770   10.7100   23.4440 C   0  0  0  0  0  0  0  0  0  0  0  0
   -0.8010    9.3910   23.8590 C   0  0  0  0  0  0  0  0  0  0  0  0
   -0.5310    6.2260   25.2320 N   0  0  0  0  0  0  0  0  0  0  0  0
    1.5880    6.7890   27.5090 S   0  0  0  0  0  0  0  0  0  0  0  0
    4.6399    8.2335   29.0621 H   0  0  0  0  0  0  0  0  0  0  0  0
    5.2576    7.3548   27.6222 H   0  0  0  0  0  0  0  0  0  0  0  0
    3.5879    8.0171   27.6222 H   0  0  0  0  0  0  0  0  0  0  0  0
    4.5920    5.6510   29.0790 H   0  0  0  0  0  0  0  0  0  0  0  0
    0.5930    2.4940   28.5916 H   0  0  0  0  0  0  0  0  0  0  0  0
   -0.2297    2.8604   27.0374 H   0  0  0  0  0  0  0  0  0  0  0  0
    1.4603    2.2516   27.0374 H   0  0  0  0  0  0  0  0  0  0  0  0
   -1.8961    4.5972   27.8824 H   0  0  0  0  0  0  0  0  0  0  0  0
   -3.9019    4.9968   26.4747 H   0  0  0  0  0  0  0  0  0  0  0  0
   -1.5710    6.4140   22.5650 H   0  0  0  0  0  0  0  0  0  0  0  0
   -1.8009    8.0485   20.9005 H   0  0  0  0  0  0  0  0  0  0  0  0
   -1.4100   10.3916   20.1577 H   0  0  0  0  0  0  0  0  0  0  0  0
   -1.4440   12.6910   21.3770 H   0  0  0  0  0  0  0  0  0  0  0  0
   -0.2287   11.4649   24.1643 H   0  0  0  0  0  0  0  0  0  0  0  0
   -0.6233    9.1199   24.9101 H   0  0  0  0  0  0  0  0  0  0  0  0
  1  2  1  0
  2  3  1  0
  3  4  2  0
  4  5  1  0
  5  6  1  0
  5  7  2  0
  7  8  1  0
  8  9  2  0
  9 10  1  0
 10 11  2  0
 11 12  1  0
 12 13  1  0
 13 14  1  0
 14 15  2  0
 15 16  1  0
 16 17  2  0
 17 18  1  0
 17 19  1  0
 19 20  2  0
 12 21  2  0
  7 22  1  0
 22  3  1  0
 21  8  1  0
 20 14  1  0
  1 23  1  0
  1 24  1  0
  1 25  1  0
  2 26  1  0
  6 27  1  0
  6 28  1  0
  6 29  1  0
  9 30  1  0
 10 31  1  0
 13 32  1  0
 15 33  1  0
 16 34  1  0
 18 35  1  0
 19 36  1  0
 20 37  1  0
M  END
>  <meeko>  (8) 
{"is_sidechain": [false], "free_energy": -7.871, "intermolecular_energy": -9.778, "internal_energy": -0.394}

$$$$
1pxn_ligand
     RDKit          3D

 37 39  0  0  0  0  0  0  0  0999 V2000
    1.3650    3.2900   27.5830 C   0  0  0  0  0  0  0  0  0  0  0  0
    1.3020    4.6750   27.9910 N   0  0  0  0  0  0  0  0  0  0  0  0
    0.7570    5.5720   27.1380 C   0  0  0  0  0  0  0  0  0  0  0  0
   -0.3770    5.4130   26.4980 N   0  0  0  0  0  0  0  0  0  0  0  0
   -0.6540    6.5190   25.7090 C   0  0  0  0  0  0  0  0  0  0  0  0
   -1.9230    6.5150   24.9340 C   0  0  0  0  0  0  0  0  0  0  0  0
    0.3080    7.5180   25.7450 C   0  0  0  0  0  0  0  0  0  0  0  0
    0.3850    8.7880   25.0330 C   0  0  0  0  0  0  0  0  0  0  0  0
    1.5480    9.5230   24.9970 C   0  0  0  0  0  0  0  0  0  0  0  0
    1.4760   10.6900   24.2820 C   0  0  0  0  0  0  0  0  0  0  0  0
    0.3640   11.1040   23.6510 N   0  0  0  0  0  0  0  0  0  0  0  0
   -0.7270   10.3290   23.7360 C   0  0  0  0  0  0  0  0  0  0  0  0
   -1.9270   10.6680   23.1220 N   0  0  0  0  0  0  0  0  0  0  0  0
   -2.5460   10.3070   21.9210 C   0  0  0  0  0  0  0  0  0  0  0  0
   -2.0190   10.8080   20.7180 C   0  0  0  0  0  0  0  0  0  0  0  0
   -2.5910   10.4890   19.4830 C   0  0  0  0  0  0  0  0  0  0  0  0
   -3.7050    9.6640   19.4370 C   0  0  0  0  0  0  0  0  0  0  0  0
   -4.2360    9.3770   18.2170 O   0  0  0  0  0  0  0  0  0  0  0  0
   -4.2520    9.1560   20.6070 C   0  0  0  0  0  0  0  0  0  0  0  0
   -3.6720    9.4790   21.8400 C   0  0  0  0  0  0  0  0  0  0  0  0
   -0.7490    9.1720   24.4140 N   0  0  0  0  0  0  0  0  0  0  0  0
    1.5620    7.0580   26.8250 S   0  0  0  0  0  0  0  0  0  0  0  0
    1.3943    2.6461   28.4744 H   0  0  0  0  0  0  0  0  0  0  0  0
    0.4771    3.0440   26.9820 H   0  0  0  0  0  0  0  0  0  0  0  0
    2.2715    3.1257   26.9820 H   0  0  0  0  0  0  0  0  0  0  0  0
    1.1170    4.8280   28.9760 H   0  0  0  0  0  0  0  0  0  0  0  0
   -2.7765    6.5123   25.6280 H   0  0  0  0  0  0  0  0  0  0  0  0
   -1.9685    7.4130   24.3003 H   0  0  0  0  0  0  0  0  0  0  0  0
   -1.9628    5.6167   24.3003 H   0  0  0  0  0  0  0  0  0  0  0  0
    2.4679    9.1977   25.5049 H   0  0  0  0  0  0  0  0  0  0  0  0
    2.3752   11.3206   24.2214 H   0  0  0  0  0  0  0  0  0  0  0  0
   -2.4130   11.3350   23.7040 H   0  0  0  0  0  0  0  0  0  0  0  0
   -1.1375   11.4652   20.7491 H   0  0  0  0  0  0  0  0  0  0  0  0
   -2.1603   10.8898   18.5535 H   0  0  0  0  0  0  0  0  0  0  0  0
   -4.5120    8.4460   18.2140 H   0  0  0  0  0  0  0  0  0  0  0  0
   -5.1364    8.5032   20.5660 H   0  0  0  0  0  0  0  0  0  0  0  0
   -4.1102    9.0738   22.7640 H   0  0  0  0  0  0  0  0  0  0  0  0
  1  2  1  0
  2  3  1  0
  3  4  2  0
  4  5  1  0
  5  6  1  0
  5  7  2  0
  7  8  1  0
  8  9  2  0
  9 10  1  0
 10 11  2  0
 11 12  1  0
 12 13  1  0
 13 14  1  0
 14 15  2  0
 15 16  1  0
 16 17  2  0
 17 18  1  0
 17 19  1  0
 19 20  2  0
 12 21  2  0
  7 22  1  0
 22  3  1  0
 21  8  1  0
 20 14  1  0
  1 23  1  0
  1 24  1  0
  1 25  1  0
  2 26  1  0
  6 27  1  0
  6 28  1  0
  6 29  1  0
  9 30  1  0
 10 31  1  0
 13 32  1  0
 15 33  1  0
 16 34  1  0
 18 35  1  0
 19 36  1  0
 20 37  1  0
M  END
>  <meeko>  (9) 
{"is_sidechain": [false], "free_energy": -7.581, "intermolecular_energy": -9.717, "internal_energy": -0.088}

$$$$
