3twp_ligand
     RDKit          3D

 15 15  0  0  0  0  0  0  0  0999 V2000
   84.0810   79.5610   36.1410 O   0  0  0  0  0  0  0  0  0  0  0  0
   84.0530   80.1100   37.2930 C   0  0  0  0  0  0  0  0  0  0  0  0
   84.2220   79.5250   38.4080 O   0  0  0  0  0  0  0  0  0  0  0  0
   83.7890   81.5970   37.3030 C   0  0  0  0  0  0  0  0  0  0  0  0
   82.9010   82.1740   36.3790 C   0  0  0  0  0  0  0  0  0  0  0  0
   82.6520   83.5500   36.3840 C   0  0  0  0  0  0  0  0  0  0  0  0
   83.2870   84.3710   37.3130 C   0  0  0  0  0  0  0  0  0  0  0  0
   84.1700   83.8170   38.2390 C   0  0  0  0  0  0  0  0  0  0  0  0
   84.4140   82.4450   38.2300 C   0  0  0  0  0  0  0  0  0  0  0  0
   85.2940   81.9660   39.1680 O   0  0  0  0  0  0  0  0  0  0  0  0
   82.3946   81.5341   35.6414 H   0  0  0  0  0  0  0  0  0  0  0  0
   81.9538   83.9846   35.6534 H   0  0  0  0  0  0  0  0  0  0  0  0
   83.0923   85.4536   37.3161 H   0  0  0  0  0  0  0  0  0  0  0  0
   84.6729   84.4615   38.9750 H   0  0  0  0  0  0  0  0  0  0  0  0
   84.8860   81.1160   39.4920 H   0  0  0  0  0  0  0  0  0  0  0  0
  1  2  2  0
  2  3  1  0
  2  4  1  0
  4  5  2  0
  5  6  1  0
  6  7  2  0
  7  8  1  0
  8  9  2  0
  9 10  1  0
  9  4  1  0
  5 11  1  0
  6 12  1  0
  7 13  1  0
  8 14  1  0
 10 15  1  0
M  CHG  1   3  -1
M  END
>  <meeko>  (1) 
{"is_sidechain": [false], "free_energy": -6.048, "intermolecular_energy": -6.578, "internal_energy": -0.235}

$$$$
3twp_ligand
     RDKit          3D

 15 15  0  0  0  0  0  0  0  0999 V2000
   84.5400   78.5490   36.6750 O   0  0  0  0  0  0  0  0  0  0  0  0
   83.9600   79.5050   37.2900 C   0  0  0  0  0  0  0  0  0  0  0  0
   84.2770   79.9670   38.4290 O   0  0  0  0  0  0  0  0  0  0  0  0
   82.7870   80.1290   36.5720 C   0  0  0  0  0  0  0  0  0  0  0  0
   82.6860   81.5250   36.4390 C   0  0  0  0  0  0  0  0  0  0  0  0
   81.6030   82.1080   35.7740 C   0  0  0  0  0  0  0  0  0  0  0  0
   80.6020   81.3040   35.2320 C   0  0  0  0  0  0  0  0  0  0  0  0
   80.6840   79.9180   35.3520 C   0  0  0  0  0  0  0  0  0  0  0  0
   81.7670   79.3420   36.0150 C   0  0  0  0  0  0  0  0  0  0  0  0
   81.7860   77.9720   36.0980 O   0  0  0  0  0  0  0  0  0  0  0  0
   83.4706   82.1680   36.8644 H   0  0  0  0  0  0  0  0  0  0  0  0
   81.5410   83.2021   35.6786 H   0  0  0  0  0  0  0  0  0  0  0  0
   79.7489   81.7625   34.7105 H   0  0  0  0  0  0  0  0  0  0  0  0
   79.8963   79.2800   34.9248 H   0  0  0  0  0  0  0  0  0  0  0  0
   81.5810   77.7700   37.0530 H   0  0  0  0  0  0  0  0  0  0  0  0
  1  2  2  0
  2  3  1  0
  2  4  1  0
  4  5  2  0
  5  6  1  0
  6  7  2  0
  7  8  1  0
  8  9  2  0
  9 10  1  0
  9  4  1  0
  5 11  1  0
  6 12  1  0
  7 13  1  0
  8 14  1  0
 10 15  1  0
M  CHG  1   3  -1
M  END
>  <meeko>  (2) 
{"is_sidechain": [false], "free_energy": -5.902, "intermolecular_energy": -6.399, "internal_energy": -0.255}

$$$$
3twp_ligand
     RDKit          3D

 15 15  0  0  0  0  0  0  0  0999 V2000
   84.4830   78.5800   36.7240 O   0  0  0  0  0  0  0  0  0  0  0  0
   83.9590   79.5650   37.3440 C   0  0  0  0  0  0  0  0  0  0  0  0
   84.3120   80.0110   38.4790 O   0  0  0  0  0  0  0  0  0  0  0  0
   82.8110   80.2460   36.6380 C   0  0  0  0  0  0  0  0  0  0  0  0
   81.6790   79.5150   36.2380 C   0  0  0  0  0  0  0  0  0  0  0  0
   80.6130   80.1400   35.5850 C   0  0  0  0  0  0  0  0  0  0  0  0
   80.6610   81.5080   35.3210 C   0  0  0  0  0  0  0  0  0  0  0  0
   81.7740   82.2510   35.7100 C   0  0  0  0  0  0  0  0  0  0  0  0
   82.8350   81.6220   36.3620 C   0  0  0  0  0  0  0  0  0  0  0  0
   83.8990   82.4120   36.7170 O   0  0  0  0  0  0  0  0  0  0  0  0
   81.6314   78.4351   36.4419 H   0  0  0  0  0  0  0  0  0  0  0  0
   79.7352   79.5519   35.2791 H   0  0  0  0  0  0  0  0  0  0  0  0
   79.8222   81.9999   34.8068 H   0  0  0  0  0  0  0  0  0  0  0  0
   81.8159   83.3306   35.5035 H   0  0  0  0  0  0  0  0  0  0  0  0
   83.5150   83.3260   36.8230 H   0  0  0  0  0  0  0  0  0  0  0  0
  1  2  2  0
  2  3  1  0
  2  4  1  0
  4  5  2  0
  5  6  1  0
  6  7  2  0
  7  8  1  0
  8  9  2  0
  9 10  1  0
  9  4  1  0
  5 11  1  0
  6 12  1  0
  7 13  1  0
  8 14  1  0
 10 15  1  0
M  CHG  1   3  -1
M  END
>  <meeko>  (3) 
{"is_sidechain": [false], "free_energy": -5.836, "intermolecular_energy": -6.328, "internal_energy": -0.256}

$$$$
3twp_ligand
     RDKit          3D

 15 15  0  0  0  0  0  0  0  0999 V2000
   85.3590   83.4200   37.0680 O   0  0  0  0  0  0  0  0  0  0  0  0
   84.6280   82.7570   37.8780 C   0  0  0  0  0  0  0  0  0  0  0  0
   84.7100   82.7680   39.1450 O   0  0  0  0  0  0  0  0  0  0  0  0
   83.5750   81.8820   37.2420 C   0  0  0  0  0  0  0  0  0  0  0  0
   82.6680   82.4140   36.3090 C   0  0  0  0  0  0  0  0  0  0  0  0
   81.6910   81.6090   35.7150 C   0  0  0  0  0  0  0  0  0  0  0  0
   81.6040   80.2580   36.0460 C   0  0  0  0  0  0  0  0  0  0  0  0
   82.4950   79.7110   36.9690 C   0  0  0  0  0  0  0  0  0  0  0  0
   83.4680   80.5190   37.5570 C   0  0  0  0  0  0  0  0  0  0  0  0
   84.3110   79.9170   38.4570 O   0  0  0  0  0  0  0  0  0  0  0  0
   82.7277   83.4795   36.0422 H   0  0  0  0  0  0  0  0  0  0  0  0
   80.9906   82.0424   34.9859 H   0  0  0  0  0  0  0  0  0  0  0  0
   80.8345   79.6247   35.5804 H   0  0  0  0  0  0  0  0  0  0  0  0
   82.4306   78.6450   37.2326 H   0  0  0  0  0  0  0  0  0  0  0  0
   85.0130   80.6000   38.6450 H   0  0  0  0  0  0  0  0  0  0  0  0
  1  2  2  0
  2  3  1  0
  2  4  1  0
  4  5  2  0
  5  6  1  0
  6  7  2  0
  7  8  1  0
  8  9  2  0
  9 10  1  0
  9  4  1  0
  5 11  1  0
  6 12  1  0
  7 13  1  0
  8 14  1  0
 10 15  1  0
M  CHG  1   3  -1
M  END
>  <meeko>  (4) 
{"is_sidechain": [false], "free_energy": -5.835, "intermolecular_energy": -6.324, "internal_energy": -0.258}

$$$$
3twp_ligand
     RDKit          3D

 15 15  0  0  0  0  0  0  0  0999 V2000
   83.1700   78.4710   36.1830 O   0  0  0  0  0  0  0  0  0  0  0  0
   82.4200   79.3010   36.7960 C   0  0  0  0  0  0  0  0  0  0  0  0
   81.2490   79.0740   37.2330 O   0  0  0  0  0  0  0  0  0  0  0  0
   83.0020   80.6780   37.0070 C   0  0  0  0  0  0  0  0  0  0  0  0
   82.5760   81.7660   36.2240 C   0  0  0  0  0  0  0  0  0  0  0  0
   83.1110   83.0430   36.4160 C   0  0  0  0  0  0  0  0  0  0  0  0
   84.0820   83.2540   37.3920 C   0  0  0  0  0  0  0  0  0  0  0  0
   84.5180   82.1890   38.1790 C   0  0  0  0  0  0  0  0  0  0  0  0
   83.9800   80.9170   37.9850 C   0  0  0  0  0  0  0  0  0  0  0  0
   84.4540   79.9150   38.7930 O   0  0  0  0  0  0  0  0  0  0  0  0
   81.8108   81.6097   35.4494 H   0  0  0  0  0  0  0  0  0  0  0  0
   82.7646   83.8826   35.7954 H   0  0  0  0  0  0  0  0  0  0  0  0
   84.5040   84.2588   37.5415 H   0  0  0  0  0  0  0  0  0  0  0  0
   85.2845   82.3516   38.9511 H   0  0  0  0  0  0  0  0  0  0  0  0
   83.7810   79.1830   38.7140 H   0  0  0  0  0  0  0  0  0  0  0  0
  1  2  2  0
  2  3  1  0
  2  4  1  0
  4  5  2  0
  5  6  1  0
  6  7  2  0
  7  8  1  0
  8  9  2  0
  9 10  1  0
  9  4  1  0
  5 11  1  0
  6 12  1  0
  7 13  1  0
  8 14  1  0
 10 15  1  0
M  CHG  1   3  -1
M  END
>  <meeko>  (5) 
{"is_sidechain": [false], "free_energy": -5.798, "intermolecular_energy": -6.355, "internal_energy": -0.187}

$$$$
3twp_ligand
     RDKit          3D

 15 15  0  0  0  0  0  0  0  0999 V2000
   83.9860   84.4500   39.6110 O   0  0  0  0  0  0  0  0  0  0  0  0
   84.2100   84.2870   38.3650 C   0  0  0  0  0  0  0  0  0  0  0  0
   84.6750   85.1570   37.5660 O   0  0  0  0  0  0  0  0  0  0  0  0
   83.8780   82.9210   37.8140 C   0  0  0  0  0  0  0  0  0  0  0  0
   83.0340   82.7820   36.6990 C   0  0  0  0  0  0  0  0  0  0  0  0
   82.7240   81.5200   36.1830 C   0  0  0  0  0  0  0  0  0  0  0  0
   83.2520   80.3750   36.7760 C   0  0  0  0  0  0  0  0  0  0  0  0
   84.0920   80.4910   37.8830 C   0  0  0  0  0  0  0  0  0  0  0  0
   84.3980   81.7530   38.3920 C   0  0  0  0  0  0  0  0  0  0  0  0
   85.2300   81.7950   39.4820 O   0  0  0  0  0  0  0  0  0  0  0  0
   82.6107   83.6798   36.2249 H   0  0  0  0  0  0  0  0  0  0  0  0
   82.0629   81.4310   35.3084 H   0  0  0  0  0  0  0  0  0  0  0  0
   83.0068   79.3818   36.3718 H   0  0  0  0  0  0  0  0  0  0  0  0
   84.5121   79.5898   38.3535 H   0  0  0  0  0  0  0  0  0  0  0  0
   86.1430   81.9250   39.1030 H   0  0  0  0  0  0  0  0  0  0  0  0
  1  2  2  0
  2  3  1  0
  2  4  1  0
  4  5  2  0
  5  6  1  0
  6  7  2  0
  7  8  1  0
  8  9  2  0
  9 10  1  0
  9  4  1  0
  5 11  1  0
  6 12  1  0
  7 13  1  0
  8 14  1  0
 10 15  1  0
M  CHG  1   3  -1
M  END
>  <meeko>  (6) 
{"is_sidechain": [false], "free_energy": -5.784, "intermolecular_energy": -6.268, "internal_energy": -0.259}

$$$$
3twp_ligand
     RDKit          3D

 15 15  0  0  0  0  0  0  0  0999 V2000
   84.2730   79.6030   38.4950 O   0  0  0  0  0  0  0  0  0  0  0  0
   83.9840   79.8850   37.2840 C   0  0  0  0  0  0  0  0  0  0  0  0
   84.1040   79.1130   36.2840 O   0  0  0  0  0  0  0  0  0  0  0  0
   83.4520   81.2790   37.0470 C   0  0  0  0  0  0  0  0  0  0  0  0
   83.9960   82.3810   37.7280 C   0  0  0  0  0  0  0  0  0  0  0  0
   83.5090   83.6730   37.5110 C   0  0  0  0  0  0  0  0  0  0  0  0
   82.4680   83.8840   36.6100 C   0  0  0  0  0  0  0  0  0  0  0  0
   81.9140   82.8050   35.9240 C   0  0  0  0  0  0  0  0  0  0  0  0
   82.4050   81.5180   36.1430 C   0  0  0  0  0  0  0  0  0  0  0  0
   81.8150   80.5010   35.4360 O   0  0  0  0  0  0  0  0  0  0  0  0
   84.8175   82.2246   38.4426 H   0  0  0  0  0  0  0  0  0  0  0  0
   83.9482   84.5239   38.0523 H   0  0  0  0  0  0  0  0  0  0  0  0
   82.0839   84.9007   36.4402 H   0  0  0  0  0  0  0  0  0  0  0  0
   81.0917   82.9678   35.2117 H   0  0  0  0  0  0  0  0  0  0  0  0
   81.6560   79.7810   36.1060 H   0  0  0  0  0  0  0  0  0  0  0  0
  1  2  2  0
  2  3  1  0
  2  4  1  0
  4  5  2  0
  5  6  1  0
  6  7  2  0
  7  8  1  0
  8  9  2  0
  9 10  1  0
  9  4  1  0
  5 11  1  0
  6 12  1  0
  7 13  1  0
  8 14  1  0
 10 15  1  0
M  CHG  1   3  -1
M  END
>  <meeko>  (7) 
{"is_sidechain": [false], "free_energy": -5.709, "intermolecular_energy": -6.201, "internal_energy": -0.244}

$$$$
3twp_ligand
     RDKit          3D

 15 15  0  0  0  0  0  0  0  0999 V2000
   83.4110   81.5080   35.8000 O   0  0  0  0  0  0  0  0  0  0  0  0
   83.2890   81.6510   37.0620 C   0  0  0  0  0  0  0  0  0  0  0  0
   83.1730   80.7180   37.9150 O   0  0  0  0  0  0  0  0  0  0  0  0
   83.2840   83.0760   37.5620 C   0  0  0  0  0  0  0  0  0  0  0  0
   82.1120   83.6470   38.0890 C   0  0  0  0  0  0  0  0  0  0  0  0
   82.1010   84.9650   38.5550 C   0  0  0  0  0  0  0  0  0  0  0  0
   83.2610   85.7350   38.4980 C   0  0  0  0  0  0  0  0  0  0  0  0
   84.4330   85.1880   37.9780 C   0  0  0  0  0  0  0  0  0  0  0  0
   84.4390   83.8720   37.5170 C   0  0  0  0  0  0  0  0  0  0  0  0
   85.6250   83.3960   37.0180 O   0  0  0  0  0  0  0  0  0  0  0  0
   81.1906   83.0480   38.1352 H   0  0  0  0  0  0  0  0  0  0  0  0
   81.1759   85.3945   38.9670 H   0  0  0  0  0  0  0  0  0  0  0  0
   83.2519   86.7727   38.8627 H   0  0  0  0  0  0  0  0  0  0  0  0
   85.3506   85.7929   37.9315 H   0  0  0  0  0  0  0  0  0  0  0  0
   86.3020   83.6110   37.7180 H   0  0  0  0  0  0  0  0  0  0  0  0
  1  2  2  0
  2  3  1  0
  2  4  1  0
  4  5  2  0
  5  6  1  0
  6  7  2  0
  7  8  1  0
  8  9  2  0
  9 10  1  0
  9  4  1  0
  5 11  1  0
  6 12  1  0
  7 13  1  0
  8 14  1  0
 10 15  1  0
M  CHG  1   3  -1
M  END
>  <meeko>  (8) 
{"is_sidechain": [false], "free_energy": -5.683, "intermolecular_energy": -6.19, "internal_energy": -0.226}

$$$$
3twp_ligand
     RDKit          3D

 15 15  0  0  0  0  0  0  0  0999 V2000
   80.3040   79.3430   37.8440 O   0  0  0  0  0  0  0  0  0  0  0  0
   81.0190   79.8000   36.8910 C   0  0  0  0  0  0  0  0  0  0  0  0
   81.5640   79.1190   35.9690 O   0  0  0  0  0  0  0  0  0  0  0  0
   81.2220   81.2960   36.8850 C   0  0  0  0  0  0  0  0  0  0  0  0
   81.1700   82.0230   35.6830 C   0  0  0  0  0  0  0  0  0  0  0  0
   81.3560   83.4080   35.6710 C   0  0  0  0  0  0  0  0  0  0  0  0
   81.5970   84.0910   36.8620 C   0  0  0  0  0  0  0  0  0  0  0  0
   81.6520   83.3880   38.0650 C   0  0  0  0  0  0  0  0  0  0  0  0
   81.4650   82.0070   38.0710 C   0  0  0  0  0  0  0  0  0  0  0  0
   81.5320   81.3780   39.2890 O   0  0  0  0  0  0  0  0  0  0  0  0
   80.9800   81.4937   34.7376 H   0  0  0  0  0  0  0  0  0  0  0  0
   81.3122   83.9599   34.7205 H   0  0  0  0  0  0  0  0  0  0  0  0
   81.7433   85.1812   36.8529 H   0  0  0  0  0  0  0  0  0  0  0  0
   81.8426   83.9224   39.0074 H   0  0  0  0  0  0  0  0  0  0  0  0
   82.1500   81.9390   39.8330 H   0  0  0  0  0  0  0  0  0  0  0  0
  1  2  2  0
  2  3  1  0
  2  4  1  0
  4  5  2  0
  5  6  1  0
  6  7  2  0
  7  8  1  0
  8  9  2  0
  9 10  1  0
  9  4  1  0
  5 11  1  0
  6 12  1  0
  7 13  1  0
  8 14  1  0
 10 15  1  0
M  CHG  1   3  -1
M  END
>  <meeko>  (9) 
{"is_sidechain": [false], "free_energy": -5.525, "intermolecular_energy": -6.006, "internal_energy": -0.238}

$$$$
