3arv_ligand
     RDKit          3D

 39 44  0  0  0  0  0  0  0  0999 V2000
   20.3120  -11.5260   19.0100 C   0  0  0  0  0  0  0  0  0  0  0  0
   18.8470  -11.7080   19.1220 N   0  0  0  0  0  0  0  0  0  0  0  0
   18.3130  -12.5480   18.2070 C   0  0  0  0  0  0  0  0  0  0  0  0
   16.9540  -12.6120   17.9600 C   0  0  0  0  0  0  0  0  0  0  0  0
   16.4430  -13.4750   16.9930 C   0  0  0  0  0  0  0  0  0  0  0  0
   15.1060  -13.5300   16.6960 C   0  0  0  0  0  0  0  0  0  0  0  0
   14.2020  -12.7260   17.3400 C   0  0  0  0  0  0  0  0  0  0  0  0
   14.6930  -11.8490   18.3180 C   0  0  0  0  0  0  0  0  0  0  0  0
   16.0840  -11.7660   18.6600 C   0  0  0  0  0  0  0  0  0  0  0  0
   16.6510  -10.9140   19.6630 C   0  0  0  0  0  0  0  0  0  0  0  0
   15.8560  -10.0000   20.3740 C   0  0  0  0  0  0  0  0  0  0  0  0
   16.3740   -9.1910   21.3790 C   0  0  0  0  0  0  0  0  0  0  0  0
   17.6960   -9.3160   21.7850 C   0  0  0  0  0  0  0  0  0  0  0  0
   18.1210   -8.5260   22.8700 C   0  0  0  0  0  0  0  0  0  0  0  0
   19.3920   -8.6970   23.3530 C   0  0  0  0  0  0  0  0  0  0  0  0
   20.2270   -9.6270   22.8090 C   0  0  0  0  0  0  0  0  0  0  0  0
   19.8450  -10.4110   21.7370 C   0  0  0  0  0  0  0  0  0  0  0  0
   18.5630  -10.2460   21.1290 C   0  0  0  0  0  0  0  0  0  0  0  0
   18.0560  -10.9670   19.9740 C   0  0  0  0  0  0  0  0  0  0  0  0
   21.4260   -9.6890   23.4450 O   0  0  0  0  0  0  0  0  0  0  0  0
   21.2480   -8.6730   24.4600 C   0  0  0  0  0  0  0  0  0  0  0  0
   19.9520   -8.0400   24.3990 O   0  0  0  0  0  0  0  0  0  0  0  0
   14.8180  -14.4330   15.7250 O   0  0  0  0  0  0  0  0  0  0  0  0
   16.1260  -14.9580   15.4340 C   0  0  0  0  0  0  0  0  0  0  0  0
   17.1690  -14.3450   16.2320 O   0  0  0  0  0  0  0  0  0  0  0  0
   20.7527  -11.4713   20.0164 H   0  0  0  0  0  0  0  0  0  0  0  0
   20.7466  -12.3771   18.4652 H   0  0  0  0  0  0  0  0  0  0  0  0
   20.5252  -10.5945   18.4652 H   0  0  0  0  0  0  0  0  0  0  0  0
   18.9856  -13.2059   17.6371 H   0  0  0  0  0  0  0  0  0  0  0  0
   13.1296  -12.7671   17.0984 H   0  0  0  0  0  0  0  0  0  0  0  0
   13.9813  -11.1969   18.8455 H   0  0  0  0  0  0  0  0  0  0  0  0
   14.7869   -9.9216   20.1272 H   0  0  0  0  0  0  0  0  0  0  0  0
   15.7277   -8.4415   21.8592 H   0  0  0  0  0  0  0  0  0  0  0  0
   17.4452   -7.7850   23.3218 H   0  0  0  0  0  0  0  0  0  0  0  0
   20.5370  -11.1719   21.3469 H   0  0  0  0  0  0  0  0  0  0  0  0
   21.3643   -9.1405   25.4489 H   0  0  0  0  0  0  0  0  0  0  0  0
   22.0047   -7.8942   24.2843 H   0  0  0  0  0  0  0  0  0  0  0  0
   16.1222  -16.0400   15.6323 H   0  0  0  0  0  0  0  0  0  0  0  0
   16.3438  -14.7365   14.3788 H   0  0  0  0  0  0  0  0  0  0  0  0
  1  2  1  0
  2  3  2  0
  3  4  1  0
  4  5  2  0
  5  6  1  0
  6  7  2  0
  7  8  1  0
  8  9  2  0
  9 10  1  0
 10 11  2  0
 11 12  1  0
 12 13  2  0
 13 14  1  0
 14 15  2  0
 15 16  1  0
 16 17  2  0
 17 18  1  0
 18 19  2  0
 16 20  1  0
 20 21  1  0
 21 22  1  0
  6 23  1  0
 23 24  1  0
 24 25  1  0
 19  2  1  0
  9  4  1  0
 19 10  1  0
 25  5  1  0
 18 13  1  0
 22 15  1  0
  1 26  1  0
  1 27  1  0
  1 28  1  0
  3 29  1  0
  7 30  1  0
  8 31  1  0
 11 32  1  0
 12 33  1  0
 14 34  1  0
 17 35  1  0
 21 36  1  0
 21 37  1  0
 24 38  1  0
 24 39  1  0
M  CHG  1   2   1
M  END
>  <meeko>  (1) 
{"is_sidechain": [false], "free_energy": -11.393, "intermolecular_energy": -11.393, "internal_energy": 0.0}

$$$$
3arv_ligand
     RDKit          3D

 39 44  0  0  0  0  0  0  0  0999 V2000
   14.5020  -10.4090   20.7540 C   0  0  0  0  0  0  0  0  0  0  0  0
   15.6830  -10.8810   19.9960 N   0  0  0  0  0  0  0  0  0  0  0  0
   15.3980  -11.7130   18.9700 C   0  0  0  0  0  0  0  0  0  0  0  0
   16.3620  -12.4840   18.3460 C   0  0  0  0  0  0  0  0  0  0  0  0
   16.0250  -13.3480   17.3060 C   0  0  0  0  0  0  0  0  0  0  0  0
   16.9500  -14.1540   16.6980 C   0  0  0  0  0  0  0  0  0  0  0  0
   18.2630  -14.1510   17.0920 C   0  0  0  0  0  0  0  0  0  0  0  0
   18.6270  -13.2890   18.1370 C   0  0  0  0  0  0  0  0  0  0  0  0
   17.6880  -12.4270   18.7950 C   0  0  0  0  0  0  0  0  0  0  0  0
   17.9920  -11.5050   19.8490 C   0  0  0  0  0  0  0  0  0  0  0  0
   19.2860  -11.4230   20.3910 C   0  0  0  0  0  0  0  0  0  0  0  0
   19.6170  -10.5110   21.3860 C   0  0  0  0  0  0  0  0  0  0  0  0
   18.6940   -9.5730   21.8300 C   0  0  0  0  0  0  0  0  0  0  0  0
   19.1330   -8.6240   22.7730 C   0  0  0  0  0  0  0  0  0  0  0  0
   18.2720   -7.6290   23.1580 C   0  0  0  0  0  0  0  0  0  0  0  0
   17.0200   -7.5450   22.6250 C   0  0  0  0  0  0  0  0  0  0  0  0
   16.5550   -8.4650   21.7060 C   0  0  0  0  0  0  0  0  0  0  0  0
   17.3630   -9.5720   21.3050 C   0  0  0  0  0  0  0  0  0  0  0  0
   16.9810  -10.6330   20.3890 C   0  0  0  0  0  0  0  0  0  0  0  0
   16.3280   -6.4710   23.0870 O   0  0  0  0  0  0  0  0  0  0  0  0
   17.2990   -5.8870   23.9870 C   0  0  0  0  0  0  0  0  0  0  0  0
   18.5370   -6.6280   24.0330 O   0  0  0  0  0  0  0  0  0  0  0  0
   16.4170  -14.9190   15.7130 O   0  0  0  0  0  0  0  0  0  0  0  0
   15.0380  -14.5070   15.7540 C   0  0  0  0  0  0  0  0  0  0  0  0
   14.7780  -13.5120   16.7740 O   0  0  0  0  0  0  0  0  0  0  0  0
   14.7026  -10.4892   21.8326 H   0  0  0  0  0  0  0  0  0  0  0  0
   14.2963   -9.3596   20.4963 H   0  0  0  0  0  0  0  0  0  0  0  0
   13.6297  -11.0276   20.4963 H   0  0  0  0  0  0  0  0  0  0  0  0
   14.3583  -11.7797   18.6171 H   0  0  0  0  0  0  0  0  0  0  0  0
   19.0049  -14.8016   16.6059 H   0  0  0  0  0  0  0  0  0  0  0  0
   19.6766  -13.2734   18.4657 H   0  0  0  0  0  0  0  0  0  0  0  0
   20.0636  -12.1041   20.0148 H   0  0  0  0  0  0  0  0  0  0  0  0
   20.6240  -10.5323   21.8281 H   0  0  0  0  0  0  0  0  0  0  0  0
   20.1481   -8.6799   23.1931 H   0  0  0  0  0  0  0  0  0  0  0  0
   15.5493   -8.3435   21.2774 H   0  0  0  0  0  0  0  0  0  0  0  0
   17.5156   -4.8616   23.6528 H   0  0  0  0  0  0  0  0  0  0  0  0
   16.8654   -5.9043   24.9978 H   0  0  0  0  0  0  0  0  0  0  0  0
   14.7684  -14.0847   14.7747 H   0  0  0  0  0  0  0  0  0  0  0  0
   14.4350  -15.3944   15.9966 H   0  0  0  0  0  0  0  0  0  0  0  0
  1  2  1  0
  2  3  2  0
  3  4  1  0
  4  5  2  0
  5  6  1  0
  6  7  2  0
  7  8  1  0
  8  9  2  0
  9 10  1  0
 10 11  2  0
 11 12  1  0
 12 13  2  0
 13 14  1  0
 14 15  2  0
 15 16  1  0
 16 17  2  0
 17 18  1  0
 18 19  2  0
 16 20  1  0
 20 21  1  0
 21 22  1  0
  6 23  1  0
 23 24  1  0
 24 25  1  0
 19  2  1  0
  9  4  1  0
 19 10  1  0
 25  5  1  0
 18 13  1  0
 22 15  1  0
  1 26  1  0
  1 27  1  0
  1 28  1  0
  3 29  1  0
  7 30  1  0
  8 31  1  0
 11 32  1  0
 12 33  1  0
 14 34  1  0
 17 35  1  0
 21 36  1  0
 21 37  1  0
 24 38  1  0
 24 39  1  0
M  CHG  1   2   1
M  END
>  <meeko>  (2) 
{"is_sidechain": [false], "free_energy": -11.224, "intermolecular_energy": -11.224, "internal_energy": 0.0}

$$$$
3arv_ligand
     RDKit          3D

 39 44  0  0  0  0  0  0  0  0999 V2000
   11.5980   -5.2040   27.6220 C   0  0  0  0  0  0  0  0  0  0  0  0
   10.4990   -6.0660   28.1120 N   0  0  0  0  0  0  0  0  0  0  0  0
   10.1140   -5.8200   29.3840 C   0  0  0  0  0  0  0  0  0  0  0  0
    9.3290   -6.6980   30.1080 C   0  0  0  0  0  0  0  0  0  0  0  0
    8.9720   -6.4200   31.4260 C   0  0  0  0  0  0  0  0  0  0  0  0
    8.2320   -7.2900   32.1810 C   0  0  0  0  0  0  0  0  0  0  0  0
    7.8080   -8.4900   31.6710 C   0  0  0  0  0  0  0  0  0  0  0  0
    8.1550   -8.7930   30.3470 C   0  0  0  0  0  0  0  0  0  0  0  0
    8.9240   -7.9050   29.5230 C   0  0  0  0  0  0  0  0  0  0  0  0
    9.2930   -8.1370   28.1580 C   0  0  0  0  0  0  0  0  0  0  0  0
    8.9710   -9.3430   27.5130 C   0  0  0  0  0  0  0  0  0  0  0  0
    9.2820   -9.5780   26.1790 C   0  0  0  0  0  0  0  0  0  0  0  0
    9.8540   -8.5850   25.3950 C   0  0  0  0  0  0  0  0  0  0  0  0
   10.0540   -8.8670   24.0300 C   0  0  0  0  0  0  0  0  0  0  0  0
   10.5280   -7.8740   23.2130 C   0  0  0  0  0  0  0  0  0  0  0  0
   10.7840   -6.6290   23.7040 C   0  0  0  0  0  0  0  0  0  0  0  0
   10.6080   -6.3210   25.0390 C   0  0  0  0  0  0  0  0  0  0  0  0
   10.1850   -7.3170   25.9710 C   0  0  0  0  0  0  0  0  0  0  0  0
   10.0080   -7.1420   27.4020 C   0  0  0  0  0  0  0  0  0  0  0  0
   11.2000   -5.7640   22.7420 O   0  0  0  0  0  0  0  0  0  0  0  0
   11.1830   -6.6220   21.5770 C   0  0  0  0  0  0  0  0  0  0  0  0
   10.7560   -7.9680   21.8800 O   0  0  0  0  0  0  0  0  0  0  0  0
    7.9950   -6.8310   33.4350 O   0  0  0  0  0  0  0  0  0  0  0  0
    8.6670   -5.5580   33.3990 C   0  0  0  0  0  0  0  0  0  0  0  0
    9.3010   -5.2930   32.1230 O   0  0  0  0  0  0  0  0  0  0  0  0
   12.1404   -4.7786   28.4792 H   0  0  0  0  0  0  0  0  0  0  0  0
   12.2895   -5.8031   27.0113 H   0  0  0  0  0  0  0  0  0  0  0  0
   11.1809   -4.3897   27.0113 H   0  0  0  0  0  0  0  0  0  0  0  0
   10.4382   -4.8839   29.8622 H   0  0  0  0  0  0  0  0  0  0  0  0
    7.2165   -9.1902   32.2792 H   0  0  0  0  0  0  0  0  0  0  0  0
    7.8238   -9.7519   29.9219 H   0  0  0  0  0  0  0  0  0  0  0  0
    8.4546  -10.1288   28.0839 H   0  0  0  0  0  0  0  0  0  0  0  0
    9.0722  -10.5638   25.7384 H   0  0  0  0  0  0  0  0  0  0  0  0
    9.8337   -9.8664   23.6267 H   0  0  0  0  0  0  0  0  0  0  0  0
   10.7961   -5.2952   25.3888 H   0  0  0  0  0  0  0  0  0  0  0  0
   10.4937   -6.1932   20.8347 H   0  0  0  0  0  0  0  0  0  0  0  0
   12.2121   -6.6794   21.1926 H   0  0  0  0  0  0  0  0  0  0  0  0
    7.9298   -4.7658   33.5963 H   0  0  0  0  0  0  0  0  0  0  0  0
    9.4578   -5.5794   34.1634 H   0  0  0  0  0  0  0  0  0  0  0  0
  1  2  1  0
  2  3  2  0
  3  4  1  0
  4  5  2  0
  5  6  1  0
  6  7  2  0
  7  8  1  0
  8  9  2  0
  9 10  1  0
 10 11  2  0
 11 12  1  0
 12 13  2  0
 13 14  1  0
 14 15  2  0
 15 16  1  0
 16 17  2  0
 17 18  1  0
 18 19  2  0
 16 20  1  0
 20 21  1  0
 21 22  1  0
  6 23  1  0
 23 24  1  0
 24 25  1  0
 19  2  1  0
  9  4  1  0
 19 10  1  0
 25  5  1  0
 18 13  1  0
 22 15  1  0
  1 26  1  0
  1 27  1  0
  1 28  1  0
  3 29  1  0
  7 30  1  0
  8 31  1  0
 11 32  1  0
 12 33  1  0
 14 34  1  0
 17 35  1  0
 21 36  1  0
 21 37  1  0
 24 38  1  0
 24 39  1  0
M  CHG  1   2   1
M  END
>  <meeko>  (3) 
{"is_sidechain": [false], "free_energy": -11.083, "intermolecular_energy": -11.083, "internal_energy": 0.0}

$$$$
3arv_ligand
     RDKit          3D

 39 44  0  0  0  0  0  0  0  0999 V2000
   14.5990  -12.2650   18.0580 C   0  0  0  0  0  0  0  0  0  0  0  0
   14.7650  -11.5870   19.3640 N   0  0  0  0  0  0  0  0  0  0  0  0
   13.6070  -11.2310   19.9640 C   0  0  0  0  0  0  0  0  0  0  0  0
   13.5590  -10.3390   21.0190 C   0  0  0  0  0  0  0  0  0  0  0  0
   12.3440   -9.9780   21.5970 C   0  0  0  0  0  0  0  0  0  0  0  0
   12.2620   -9.0650   22.6150 C   0  0  0  0  0  0  0  0  0  0  0  0
   13.3830   -8.4540   23.1140 C   0  0  0  0  0  0  0  0  0  0  0  0
   14.6190   -8.8010   22.5480 C   0  0  0  0  0  0  0  0  0  0  0  0
   14.7460   -9.7570   21.4850 C   0  0  0  0  0  0  0  0  0  0  0  0
   15.9740  -10.1770   20.8780 C   0  0  0  0  0  0  0  0  0  0  0  0
   17.2020   -9.6050   21.2520 C   0  0  0  0  0  0  0  0  0  0  0  0
   18.4110  -10.0230   20.7080 C   0  0  0  0  0  0  0  0  0  0  0  0
   18.4640  -11.0930   19.8260 C   0  0  0  0  0  0  0  0  0  0  0  0
   19.7340  -11.5150   19.3900 C   0  0  0  0  0  0  0  0  0  0  0  0
   19.8240  -12.6280   18.5940 C   0  0  0  0  0  0  0  0  0  0  0  0
   18.7080  -13.3280   18.2460 C   0  0  0  0  0  0  0  0  0  0  0  0
   17.4460  -12.9360   18.6480 C   0  0  0  0  0  0  0  0  0  0  0  0
   17.2590  -11.7490   19.4180 C   0  0  0  0  0  0  0  0  0  0  0  0
   15.9890  -11.1990   19.8640 C   0  0  0  0  0  0  0  0  0  0  0  0
   18.9920  -14.4260   17.4960 O   0  0  0  0  0  0  0  0  0  0  0  0
   20.4340  -14.3290   17.4080 C   0  0  0  0  0  0  0  0  0  0  0  0
   20.9620  -13.1810   18.1070 O   0  0  0  0  0  0  0  0  0  0  0  0
   10.9890   -8.8540   23.0330 O   0  0  0  0  0  0  0  0  0  0  0  0
   10.2590   -9.7420   22.1670 C   0  0  0  0  0  0  0  0  0  0  0  0
   11.1160  -10.4560   21.2420 O   0  0  0  0  0  0  0  0  0  0  0  0
   14.3404  -13.3213   18.2235 H   0  0  0  0  0  0  0  0  0  0  0  0
   13.7943  -11.7751   17.4902 H   0  0  0  0  0  0  0  0  0  0  0  0
   15.5390  -12.2023   17.4902 H   0  0  0  0  0  0  0  0  0  0  0  0
   12.6662  -11.6682   19.5984 H   0  0  0  0  0  0  0  0  0  0  0  0
   13.3159   -7.7181   23.9289 H   0  0  0  0  0  0  0  0  0  0  0  0
   15.5293   -8.3200   22.9353 H   0  0  0  0  0  0  0  0  0  0  0  0
   17.2066   -8.7991   22.0007 H   0  0  0  0  0  0  0  0  0  0  0  0
   19.3386   -9.4983   20.9805 H   0  0  0  0  0  0  0  0  0  0  0  0
   20.6385  -10.9617   19.6827 H   0  0  0  0  0  0  0  0  0  0  0  0
   16.5739  -13.5466   18.3711 H   0  0  0  0  0  0  0  0  0  0  0  0
   20.8745  -15.2383   17.8429 H   0  0  0  0  0  0  0  0  0  0  0  0
   20.6939  -14.2175   16.3450 H   0  0  0  0  0  0  0  0  0  0  0  0
    9.7232  -10.4757   22.7872 H   0  0  0  0  0  0  0  0  0  0  0  0
    9.5676   -9.1284   21.5709 H   0  0  0  0  0  0  0  0  0  0  0  0
  1  2  1  0
  2  3  2  0
  3  4  1  0
  4  5  2  0
  5  6  1  0
  6  7  2  0
  7  8  1  0
  8  9  2  0
  9 10  1  0
 10 11  2  0
 11 12  1  0
 12 13  2  0
 13 14  1  0
 14 15  2  0
 15 16  1  0
 16 17  2  0
 17 18  1  0
 18 19  2  0
 16 20  1  0
 20 21  1  0
 21 22  1  0
  6 23  1  0
 23 24  1  0
 24 25  1  0
 19  2  1  0
  9  4  1  0
 19 10  1  0
 25  5  1  0
 18 13  1  0
 22 15  1  0
  1 26  1  0
  1 27  1  0
  1 28  1  0
  3 29  1  0
  7 30  1  0
  8 31  1  0
 11 32  1  0
 12 33  1  0
 14 34  1  0
 17 35  1  0
 21 36  1  0
 21 37  1  0
 24 38  1  0
 24 39  1  0
M  CHG  1   2   1
M  END
>  <meeko>  (4) 
{"is_sidechain": [false], "free_energy": -10.955, "intermolecular_energy": -10.955, "internal_energy": 0.0}

$$$$
3arv_ligand
     RDKit          3D

 39 44  0  0  0  0  0  0  0  0999 V2000
   18.9110  -12.5120   18.6390 C   0  0  0  0  0  0  0  0  0  0  0  0
   18.0530  -11.5170   19.3210 N   0  0  0  0  0  0  0  0  0  0  0  0
   18.6810  -10.7910   20.2730 C   0  0  0  0  0  0  0  0  0  0  0  0
   17.9950  -10.0400   21.2100 C   0  0  0  0  0  0  0  0  0  0  0  0
   18.6780   -9.3220   22.1900 C   0  0  0  0  0  0  0  0  0  0  0  0
   18.0250   -8.6040   23.1560 C   0  0  0  0  0  0  0  0  0  0  0  0
   16.6560   -8.5620   23.2070 C   0  0  0  0  0  0  0  0  0  0  0  0
   15.9470   -9.2760   22.2310 C   0  0  0  0  0  0  0  0  0  0  0  0
   16.5940  -10.0360   21.2000 C   0  0  0  0  0  0  0  0  0  0  0  0
   15.9360  -10.7670   20.1580 C   0  0  0  0  0  0  0  0  0  0  0  0
   14.5350  -10.8550   20.1070 C   0  0  0  0  0  0  0  0  0  0  0  0
   13.8710  -11.5250   19.0850 C   0  0  0  0  0  0  0  0  0  0  0  0
   14.5700  -12.0660   18.0150 C   0  0  0  0  0  0  0  0  0  0  0  0
   13.8200  -12.6470   16.9740 C   0  0  0  0  0  0  0  0  0  0  0  0
   14.4780  -13.1040   15.8620 C   0  0  0  0  0  0  0  0  0  0  0  0
   15.8300  -12.9820   15.7510 C   0  0  0  0  0  0  0  0  0  0  0  0
   16.5970  -12.4260   16.7580 C   0  0  0  0  0  0  0  0  0  0  0  0
   15.9980  -11.9910   17.9790 C   0  0  0  0  0  0  0  0  0  0  0  0
   16.6900  -11.4360   19.1300 C   0  0  0  0  0  0  0  0  0  0  0  0
   16.3010  -13.4450   14.5640 O   0  0  0  0  0  0  0  0  0  0  0  0
   15.0730  -13.8820   13.9360 C   0  0  0  0  0  0  0  0  0  0  0  0
   13.9120  -13.6670   14.7660 O   0  0  0  0  0  0  0  0  0  0  0  0
   18.8720   -7.9810   24.0130 O   0  0  0  0  0  0  0  0  0  0  0  0
   20.1490   -8.3790   23.4830 C   0  0  0  0  0  0  0  0  0  0  0  0
   20.0340   -9.2420   22.3250 O   0  0  0  0  0  0  0  0  0  0  0  0
   19.4355  -13.1203   19.3905 H   0  0  0  0  0  0  0  0  0  0  0  0
   18.2873  -13.1641   18.0098 H   0  0  0  0  0  0  0  0  0  0  0  0
   19.6477  -11.9910   18.0098 H   0  0  0  0  0  0  0  0  0  0  0  0
   19.7806  -10.7979   20.3035 H   0  0  0  0  0  0  0  0  0  0  0  0
   16.1323   -7.9885   23.9860 H   0  0  0  0  0  0  0  0  0  0  0  0
   14.8475   -9.2527   22.2565 H   0  0  0  0  0  0  0  0  0  0  0  0
   13.9432  -10.3780   20.9021 H   0  0  0  0  0  0  0  0  0  0  0  0
   12.7765  -11.6276   19.1253 H   0  0  0  0  0  0  0  0  0  0  0  0
   12.7261  -12.7324   17.0521 H   0  0  0  0  0  0  0  0  0  0  0  0
   17.6825  -12.3174   16.6168 H   0  0  0  0  0  0  0  0  0  0  0  0
   14.9413  -13.3250   12.9967 H   0  0  0  0  0  0  0  0  0  0  0  0
   15.1583  -14.9646   13.7605 H   0  0  0  0  0  0  0  0  0  0  0  0
   20.7060   -7.4757   23.1937 H   0  0  0  0  0  0  0  0  0  0  0  0
   20.6699   -8.9470   24.2679 H   0  0  0  0  0  0  0  0  0  0  0  0
  1  2  1  0
  2  3  2  0
  3  4  1  0
  4  5  2  0
  5  6  1  0
  6  7  2  0
  7  8  1  0
  8  9  2  0
  9 10  1  0
 10 11  2  0
 11 12  1  0
 12 13  2  0
 13 14  1  0
 14 15  2  0
 15 16  1  0
 16 17  2  0
 17 18  1  0
 18 19  2  0
 16 20  1  0
 20 21  1  0
 21 22  1  0
  6 23  1  0
 23 24  1  0
 24 25  1  0
 19  2  1  0
  9  4  1  0
 19 10  1  0
 25  5  1  0
 18 13  1  0
 22 15  1  0
  1 26  1  0
  1 27  1  0
  1 28  1  0
  3 29  1  0
  7 30  1  0
  8 31  1  0
 11 32  1  0
 12 33  1  0
 14 34  1  0
 17 35  1  0
 21 36  1  0
 21 37  1  0
 24 38  1  0
 24 39  1  0
M  CHG  1   2   1
M  END
>  <meeko>  (5) 
{"is_sidechain": [false], "free_energy": -10.87, "intermolecular_energy": -10.87, "internal_energy": 0.0}

$$$$
3arv_ligand
     RDKit          3D

 39 44  0  0  0  0  0  0  0  0999 V2000
   13.0430  -10.9400   20.7490 C   0  0  0  0  0  0  0  0  0  0  0  0
   14.4470  -10.4820   20.6540 N   0  0  0  0  0  0  0  0  0  0  0  0
   15.1790  -11.1050   19.7030 C   0  0  0  0  0  0  0  0  0  0  0  0
   16.5590  -11.0350   19.6610 C   0  0  0  0  0  0  0  0  0  0  0  0
   17.2810  -11.7100   18.6780 C   0  0  0  0  0  0  0  0  0  0  0  0
   18.6500  -11.6950   18.6370 C   0  0  0  0  0  0  0  0  0  0  0  0
   19.3810  -11.0110   19.5740 C   0  0  0  0  0  0  0  0  0  0  0  0
   18.6770  -10.3240   20.5730 C   0  0  0  0  0  0  0  0  0  0  0  0
   17.2440  -10.3120   20.6470 C   0  0  0  0  0  0  0  0  0  0  0  0
   16.4610   -9.6130   21.6210 C   0  0  0  0  0  0  0  0  0  0  0  0
   17.0700   -8.9070   22.6720 C   0  0  0  0  0  0  0  0  0  0  0  0
   16.3340   -8.1880   23.6070 C   0  0  0  0  0  0  0  0  0  0  0  0
   14.9560   -8.0660   23.4900 C   0  0  0  0  0  0  0  0  0  0  0  0
   14.2930   -7.2460   24.4230 C   0  0  0  0  0  0  0  0  0  0  0  0
   12.9470   -7.0310   24.2740 C   0  0  0  0  0  0  0  0  0  0  0  0
   12.2630   -7.5830   23.2330 C   0  0  0  0  0  0  0  0  0  0  0  0
   12.8810   -8.4000   22.3060 C   0  0  0  0  0  0  0  0  0  0  0  0
   14.2640   -8.7320   22.4290 C   0  0  0  0  0  0  0  0  0  0  0  0
   15.0220   -9.6130   21.5560 C   0  0  0  0  0  0  0  0  0  0  0  0
   10.9530   -7.2230   23.2200 O   0  0  0  0  0  0  0  0  0  0  0  0
   10.8910   -6.3760   24.3920 C   0  0  0  0  0  0  0  0  0  0  0  0
   12.1630   -6.2570   25.0640 O   0  0  0  0  0  0  0  0  0  0  0  0
   19.1550  -12.4150   17.6050 O   0  0  0  0  0  0  0  0  0  0  0  0
   17.9490  -12.8940   16.9810 C   0  0  0  0  0  0  0  0  0  0  0  0
   16.7500  -12.4570   17.6660 O   0  0  0  0  0  0  0  0  0  0  0  0
   12.7584  -11.0328   21.8075 H   0  0  0  0  0  0  0  0  0  0  0  0
   12.3849  -10.2099   20.2551 H   0  0  0  0  0  0  0  0  0  0  0  0
   12.9420  -11.9177   20.2551 H   0  0  0  0  0  0  0  0  0  0  0  0
   14.6559  -11.6905   18.9326 H   0  0  0  0  0  0  0  0  0  0  0  0
   20.4805  -11.0016   19.5430 H   0  0  0  0  0  0  0  0  0  0  0  0
   19.2478   -9.7702   21.3329 H   0  0  0  0  0  0  0  0  0  0  0  0
   18.1665   -8.9237   22.7580 H   0  0  0  0  0  0  0  0  0  0  0  0
   16.8509   -7.7089   24.4516 H   0  0  0  0  0  0  0  0  0  0  0  0
   14.8447   -6.7863   25.2562 H   0  0  0  0  0  0  0  0  0  0  0  0
   12.2998   -8.7999   21.4621 H   0  0  0  0  0  0  0  0  0  0  0  0
   10.5612   -5.3729   24.0837 H   0  0  0  0  0  0  0  0  0  0  0  0
   10.1854   -6.8384   25.0979 H   0  0  0  0  0  0  0  0  0  0  0  0
   17.9175  -12.5225   15.9461 H   0  0  0  0  0  0  0  0  0  0  0  0
   17.9704  -13.9931   17.0200 H   0  0  0  0  0  0  0  0  0  0  0  0
  1  2  1  0
  2  3  2  0
  3  4  1  0
  4  5  2  0
  5  6  1  0
  6  7  2  0
  7  8  1  0
  8  9  2  0
  9 10  1  0
 10 11  2  0
 11 12  1  0
 12 13  2  0
 13 14  1  0
 14 15  2  0
 15 16  1  0
 16 17  2  0
 17 18  1  0
 18 19  2  0
 16 20  1  0
 20 21  1  0
 21 22  1  0
  6 23  1  0
 23 24  1  0
 24 25  1  0
 19  2  1  0
  9  4  1  0
 19 10  1  0
 25  5  1  0
 18 13  1  0
 22 15  1  0
  1 26  1  0
  1 27  1  0
  1 28  1  0
  3 29  1  0
  7 30  1  0
  8 31  1  0
 11 32  1  0
 12 33  1  0
 14 34  1  0
 17 35  1  0
 21 36  1  0
 21 37  1  0
 24 38  1  0
 24 39  1  0
M  CHG  1   2   1
M  END
>  <meeko>  (6) 
{"is_sidechain": [false], "free_energy": -10.764, "intermolecular_energy": -10.764, "internal_energy": 0.0}

$$$$
3arv_ligand
     RDKit          3D

 39 44  0  0  0  0  0  0  0  0999 V2000
   16.0870   -8.9660   20.7650 C   0  0  0  0  0  0  0  0  0  0  0  0
   17.3540   -9.6330   21.1410 N   0  0  0  0  0  0  0  0  0  0  0  0
   17.9060   -9.1840   22.2910 C   0  0  0  0  0  0  0  0  0  0  0  0
   19.2130   -9.4600   22.6470 C   0  0  0  0  0  0  0  0  0  0  0  0
   19.7530   -8.9600   23.8310 C   0  0  0  0  0  0  0  0  0  0  0  0
   21.0570   -9.1820   24.1880 C   0  0  0  0  0  0  0  0  0  0  0  0
   21.9000   -9.9080   23.3880 C   0  0  0  0  0  0  0  0  0  0  0  0
   21.3790  -10.4220   22.1920 C   0  0  0  0  0  0  0  0  0  0  0  0
   20.0180  -10.2160   21.7850 C   0  0  0  0  0  0  0  0  0  0  0  0
   19.4130  -10.7300   20.5930 C   0  0  0  0  0  0  0  0  0  0  0  0
   20.1640  -11.4540   19.6510 C   0  0  0  0  0  0  0  0  0  0  0  0
   19.5920  -11.9980   18.5060 C   0  0  0  0  0  0  0  0  0  0  0  0
   18.2230  -11.9210   18.2870 C   0  0  0  0  0  0  0  0  0  0  0  0
   17.7080  -12.5750   17.1520 C   0  0  0  0  0  0  0  0  0  0  0  0
   16.3510  -12.5960   16.9610 C   0  0  0  0  0  0  0  0  0  0  0  0
   15.5100  -12.0130   17.8610 C   0  0  0  0  0  0  0  0  0  0  0  0
   15.9830  -11.3550   18.9800 C   0  0  0  0  0  0  0  0  0  0  0  0
   17.3850  -11.2260   19.2160 C   0  0  0  0  0  0  0  0  0  0  0  0
   18.0150  -10.5210   20.3200 C   0  0  0  0  0  0  0  0  0  0  0  0
   14.2010  -12.1750   17.5350 O   0  0  0  0  0  0  0  0  0  0  0  0
   14.3180  -12.9310   16.3060 C   0  0  0  0  0  0  0  0  0  0  0  0
   15.6900  -13.1960   15.9400 O   0  0  0  0  0  0  0  0  0  0  0  0
   21.3830   -8.6080   25.3730 O   0  0  0  0  0  0  0  0  0  0  0  0
   20.1340   -7.9940   25.7410 C   0  0  0  0  0  0  0  0  0  0  0  0
   19.0920   -8.2060   24.7570 O   0  0  0  0  0  0  0  0  0  0  0  0
   15.5401   -8.6781   21.6750 H   0  0  0  0  0  0  0  0  0  0  0  0
   16.3081   -8.0674   20.1703 H   0  0  0  0  0  0  0  0  0  0  0  0
   15.4713   -9.6569   20.1703 H   0  0  0  0  0  0  0  0  0  0  0  0
   17.2908   -8.5752   22.9699 H   0  0  0  0  0  0  0  0  0  0  0  0
   22.9480  -10.0814   23.6739 H   0  0  0  0  0  0  0  0  0  0  0  0
   22.0414  -11.0080   21.5379 H   0  0  0  0  0  0  0  0  0  0  0  0
   21.2409  -11.5952   19.8254 H   0  0  0  0  0  0  0  0  0  0  0  0
   20.2329  -12.4961   17.7636 H   0  0  0  0  0  0  0  0  0  0  0  0
   18.3825  -13.0605   16.4313 H   0  0  0  0  0  0  0  0  0  0  0  0
   15.2698  -10.9248   19.6986 H   0  0  0  0  0  0  0  0  0  0  0  0
   13.7965  -13.8911   16.4330 H   0  0  0  0  0  0  0  0  0  0  0  0
   13.8716  -12.3272   15.5021 H   0  0  0  0  0  0  0  0  0  0  0  0
   19.8030   -8.4186   26.7003 H   0  0  0  0  0  0  0  0  0  0  0  0
   20.3065   -6.9099   25.8120 H   0  0  0  0  0  0  0  0  0  0  0  0
  1  2  1  0
  2  3  2  0
  3  4  1  0
  4  5  2  0
  5  6  1  0
  6  7  2  0
  7  8  1  0
  8  9  2  0
  9 10  1  0
 10 11  2  0
 11 12  1  0
 12 13  2  0
 13 14  1  0
 14 15  2  0
 15 16  1  0
 16 17  2  0
 17 18  1  0
 18 19  2  0
 16 20  1  0
 20 21  1  0
 21 22  1  0
  6 23  1  0
 23 24  1  0
 24 25  1  0
 19  2  1  0
  9  4  1  0
 19 10  1  0
 25  5  1  0
 18 13  1  0
 22 15  1  0
  1 26  1  0
  1 27  1  0
  1 28  1  0
  3 29  1  0
  7 30  1  0
  8 31  1  0
 11 32  1  0
 12 33  1  0
 14 34  1  0
 17 35  1  0
 21 36  1  0
 21 37  1  0
 24 38  1  0
 24 39  1  0
M  CHG  1   2   1
M  END
>  <meeko>  (7) 
{"is_sidechain": [false], "free_energy": -10.481, "intermolecular_energy": -10.481, "internal_energy": 0.0}

$$$$
3arv_ligand
     RDKit          3D

 39 44  0  0  0  0  0  0  0  0999 V2000
   11.5840   -4.0590   26.8840 C   0  0  0  0  0  0  0  0  0  0  0  0
   10.6930   -4.1550   28.0620 N   0  0  0  0  0  0  0  0  0  0  0  0
   10.6130   -3.0260   28.8010 C   0  0  0  0  0  0  0  0  0  0  0  0
   10.0840   -3.0070   30.0780 C   0  0  0  0  0  0  0  0  0  0  0  0
   10.0400   -1.8270   30.8180 C   0  0  0  0  0  0  0  0  0  0  0  0
    9.5610   -1.7870   32.1010 C   0  0  0  0  0  0  0  0  0  0  0  0
    9.1040   -2.9190   32.7240 C   0  0  0  0  0  0  0  0  0  0  0  0
    9.1390   -4.1190   32.0000 C   0  0  0  0  0  0  0  0  0  0  0  0
    9.6280   -4.2010   30.6530 C   0  0  0  0  0  0  0  0  0  0  0  0
    9.6690   -5.3840   29.8470 C   0  0  0  0  0  0  0  0  0  0  0  0
    9.2780   -6.6300   30.3650 C   0  0  0  0  0  0  0  0  0  0  0  0
    9.2710   -7.7860   29.5920 C   0  0  0  0  0  0  0  0  0  0  0  0
    9.5710   -7.7400   28.2380 C   0  0  0  0  0  0  0  0  0  0  0  0
    9.4530   -8.9350   27.5040 C   0  0  0  0  0  0  0  0  0  0  0  0
    9.6510   -8.9000   26.1470 C   0  0  0  0  0  0  0  0  0  0  0  0
    9.9380   -7.7280   25.5140 C   0  0  0  0  0  0  0  0  0  0  0  0
   10.0710   -6.5390   26.2060 C   0  0  0  0  0  0  0  0  0  0  0  0
    9.9510   -6.5020   27.6280 C   0  0  0  0  0  0  0  0  0  0  0  0
   10.1140   -5.3350   28.4790 C   0  0  0  0  0  0  0  0  0  0  0  0
   10.0530   -7.8760   24.1690 O   0  0  0  0  0  0  0  0  0  0  0  0
    9.8090   -9.2960   24.0290 C   0  0  0  0  0  0  0  0  0  0  0  0
    9.5550   -9.9480   25.2920 O   0  0  0  0  0  0  0  0  0  0  0  0
    9.6070   -0.5440   32.6420 O   0  0  0  0  0  0  0  0  0  0  0  0
   10.1670    0.2150   31.5550 C   0  0  0  0  0  0  0  0  0  0  0  0
   10.4550   -0.5990   30.3910 O   0  0  0  0  0  0  0  0  0  0  0  0
   12.6254   -3.9468   27.2201 H   0  0  0  0  0  0  0  0  0  0  0  0
   11.4906   -4.9724   26.2782 H   0  0  0  0  0  0  0  0  0  0  0  0
   11.2982   -3.1865   26.2782 H   0  0  0  0  0  0  0  0  0  0  0  0
   10.9837   -2.0848   28.3690 H   0  0  0  0  0  0  0  0  0  0  0  0
    8.7233   -2.8871   33.7555 H   0  0  0  0  0  0  0  0  0  0  0  0
    8.7761   -5.0372   32.4851 H   0  0  0  0  0  0  0  0  0  0  0  0
    8.9667   -6.6934   31.4181 H   0  0  0  0  0  0  0  0  0  0  0  0
    9.0242   -8.7502   30.0604 H   0  0  0  0  0  0  0  0  0  0  0  0
    9.2064   -9.8803   28.0095 H   0  0  0  0  0  0  0  0  0  0  0  0
   10.2719   -5.6091   25.6538 H   0  0  0  0  0  0  0  0  0  0  0  0
    8.9345   -9.4396   23.3774 H   0  0  0  0  0  0  0  0  0  0  0  0
   10.7162   -9.7469   23.6004 H   0  0  0  0  0  0  0  0  0  0  0  0
    9.4502    0.9983   31.2674 H   0  0  0  0  0  0  0  0  0  0  0  0
   11.1189    0.6412   31.9047 H   0  0  0  0  0  0  0  0  0  0  0  0
  1  2  1  0
  2  3  2  0
  3  4  1  0
  4  5  2  0
  5  6  1  0
  6  7  2  0
  7  8  1  0
  8  9  2  0
  9 10  1  0
 10 11  2  0
 11 12  1  0
 12 13  2  0
 13 14  1  0
 14 15  2  0
 15 16  1  0
 16 17  2  0
 17 18  1  0
 18 19  2  0
 16 20  1  0
 20 21  1  0
 21 22  1  0
  6 23  1  0
 23 24  1  0
 24 25  1  0
 19  2  1  0
  9  4  1  0
 19 10  1  0
 25  5  1  0
 18 13  1  0
 22 15  1  0
  1 26  1  0
  1 27  1  0
  1 28  1  0
  3 29  1  0
  7 30  1  0
  8 31  1  0
 11 32  1  0
 12 33  1  0
 14 34  1  0
 17 35  1  0
 21 36  1  0
 21 37  1  0
 24 38  1  0
 24 39  1  0
M  CHG  1   2   1
M  END
>  <meeko>  (8) 
{"is_sidechain": [false], "free_energy": -10.473, "intermolecular_energy": -10.473, "internal_energy": 0.0}

$$$$
3arv_ligand
     RDKit          3D

 39 44  0  0  0  0  0  0  0  0999 V2000
    9.3230   -9.4770   26.4740 C   0  0  0  0  0  0  0  0  0  0  0  0
    9.3470   -8.8630   25.1270 N   0  0  0  0  0  0  0  0  0  0  0  0
    8.7470   -9.5970   24.1640 C   0  0  0  0  0  0  0  0  0  0  0  0
    8.9250   -9.3440   22.8160 C   0  0  0  0  0  0  0  0  0  0  0  0
    8.3070  -10.1370   21.8510 C   0  0  0  0  0  0  0  0  0  0  0  0
    8.4990   -9.9370   20.5090 C   0  0  0  0  0  0  0  0  0  0  0  0
    9.3200   -8.9400   20.0500 C   0  0  0  0  0  0  0  0  0  0  0  0
    9.9530   -8.1280   21.0020 C   0  0  0  0  0  0  0  0  0  0  0  0
    9.7730   -8.3030   22.4150 C   0  0  0  0  0  0  0  0  0  0  0  0
   10.3660   -7.4980   23.4410 C   0  0  0  0  0  0  0  0  0  0  0  0
   11.2680   -6.4680   23.1260 C   0  0  0  0  0  0  0  0  0  0  0  0
   11.8260   -5.6470   24.0990 C   0  0  0  0  0  0  0  0  0  0  0  0
   11.4440   -5.7570   25.4300 C   0  0  0  0  0  0  0  0  0  0  0  0
   11.9850   -4.8290   26.3410 C   0  0  0  0  0  0  0  0  0  0  0  0
   11.5540   -4.8540   27.6420 C   0  0  0  0  0  0  0  0  0  0  0  0
   10.6050   -5.7450   28.0460 C   0  0  0  0  0  0  0  0  0  0  0  0
   10.0620   -6.6740   27.1810 C   0  0  0  0  0  0  0  0  0  0  0  0
   10.5070   -6.7630   25.8270 C   0  0  0  0  0  0  0  0  0  0  0  0
   10.0570   -7.7200   24.8300 C   0  0  0  0  0  0  0  0  0  0  0  0
   10.2680   -5.5910   29.3540 O   0  0  0  0  0  0  0  0  0  0  0  0
   11.1300   -4.4910   29.7300 C   0  0  0  0  0  0  0  0  0  0  0  0
   11.9510   -4.0240   28.6380 O   0  0  0  0  0  0  0  0  0  0  0  0
    7.8100  -10.8170   19.7410 O   0  0  0  0  0  0  0  0  0  0  0  0
    7.1470  -11.6070   20.7460 C   0  0  0  0  0  0  0  0  0  0  0  0
    7.4670  -11.1850   22.0940 O   0  0  0  0  0  0  0  0  0  0  0  0
    9.3539   -8.6862   27.2380 H   0  0  0  0  0  0  0  0  0  0  0  0
    8.4012  -10.0654   26.5924 H   0  0  0  0  0  0  0  0  0  0  0  0
   10.1961  -10.1356   26.5924 H   0  0  0  0  0  0  0  0  0  0  0  0
    8.0916  -10.4280   24.4639 H   0  0  0  0  0  0  0  0  0  0  0  0
    9.4768   -8.7824   18.9727 H   0  0  0  0  0  0  0  0  0  0  0  0
   10.6154   -7.3230   20.6510 H   0  0  0  0  0  0  0  0  0  0  0  0
   11.5421   -6.3057   22.0731 H   0  0  0  0  0  0  0  0  0  0  0  0
   12.5804   -4.9000   23.8111 H   0  0  0  0  0  0  0  0  0  0  0  0
   12.7393   -4.0979   26.0146 H   0  0  0  0  0  0  0  0  0  0  0  0
    9.2760   -7.3548   27.5396 H   0  0  0  0  0  0  0  0  0  0  0  0
   10.5034   -3.6574   30.0799 H   0  0  0  0  0  0  0  0  0  0  0  0
   11.8046   -4.8542   30.5193 H   0  0  0  0  0  0  0  0  0  0  0  0
    6.0601  -11.5213   20.5997 H   0  0  0  0  0  0  0  0  0  0  0  0
    7.4938  -12.6448   20.6331 H   0  0  0  0  0  0  0  0  0  0  0  0
  1  2  1  0
  2  3  2  0
  3  4  1  0
  4  5  2  0
  5  6  1  0
  6  7  2  0
  7  8  1  0
  8  9  2  0
  9 10  1  0
 10 11  2  0
 11 12  1  0
 12 13  2  0
 13 14  1  0
 14 15  2  0
 15 16  1  0
 16 17  2  0
 17 18  1  0
 18 19  2  0
 16 20  1  0
 20 21  1  0
 21 22  1  0
  6 23  1  0
 23 24  1  0
 24 25  1  0
 19  2  1  0
  9  4  1  0
 19 10  1  0
 25  5  1  0
 18 13  1  0
 22 15  1  0
  1 26  1  0
  1 27  1  0
  1 28  1  0
  3 29  1  0
  7 30  1  0
  8 31  1  0
 11 32  1  0
 12 33  1  0
 14 34  1  0
 17 35  1  0
 21 36  1  0
 21 37  1  0
 24 38  1  0
 24 39  1  0
M  CHG  1   2   1
M  END
>  <meeko>  (9) 
{"is_sidechain": [false], "free_energy": -10.393, "intermolecular_energy": -10.393, "internal_energy": 0.0}

$$$$
