4f09_ligand
     RDKit          3D

 37 40  0  0  0  0  0  0  0  0999 V2000
   17.5970    6.3700   12.2990 C   0  0  0  0  0  0  0  0  0  0  0  0
   17.0220    7.7400   12.2210 C   0  0  0  0  0  0  0  0  0  0  0  0
   17.6510    8.8150   12.6480 N   0  0  0  0  0  0  0  0  0  0  0  0
   16.8190    9.8660   12.3930 C   0  0  0  0  0  0  0  0  0  0  0  0
   16.9740   11.2420   12.6360 C   0  0  0  0  0  0  0  0  0  0  0  0
   16.0230   12.1600   12.3010 N   0  0  0  0  0  0  0  0  0  0  0  0
   14.9290   11.6510   11.7140 C   0  0  0  0  0  0  0  0  0  0  0  0
   13.8440   12.3530   11.2720 N   0  0  0  0  0  0  0  0  0  0  0  0
   12.9350   11.4800   10.7130 C   0  0  0  0  0  0  0  0  0  0  0  0
   13.4440   10.1950   10.8010 C   0  0  0  0  0  0  0  0  0  0  0  0
   14.7000   10.3190   11.4420 C   0  0  0  0  0  0  0  0  0  0  0  0
   15.6550    9.4080   11.7940 C   0  0  0  0  0  0  0  0  0  0  0  0
   15.7640    8.0630   11.7010 N   0  0  0  0  0  0  0  0  0  0  0  0
   14.8210    7.0580   11.2260 C   0  0  0  0  0  0  0  0  0  0  0  0
   13.5520    6.9500   12.0790 C   0  0  0  0  0  0  0  0  0  0  0  0
   12.6910    5.7590   11.6730 C   0  0  0  0  0  0  0  0  0  0  0  0
   12.8320    5.4320   10.2200 N   0  0  0  0  0  0  0  0  0  0  0  0
   13.1820    6.5790    9.3360 C   0  0  0  0  0  0  0  0  0  0  0  0
   14.5560    7.1120    9.7130 C   0  0  0  0  0  0  0  0  0  0  0  0
   17.7177    6.0825   13.3539 H   0  0  0  0  0  0  0  0  0  0  0  0
   16.9211    5.6597   11.8004 H   0  0  0  0  0  0  0  0  0  0  0  0
   18.5774    6.3549   11.8004 H   0  0  0  0  0  0  0  0  0  0  0  0
   17.8998   11.5922   13.1158 H   0  0  0  0  0  0  0  0  0  0  0  0
   13.7540   13.3570   11.3480 H   0  0  0  0  0  0  0  0  0  0  0  0
   11.9669   11.7578   10.2708 H   0  0  0  0  0  0  0  0  0  0  0  0
   12.9697    9.2683   10.4457 H   0  0  0  0  0  0  0  0  0  0  0  0
   15.3390    6.0992   11.3756 H   0  0  0  0  0  0  0  0  0  0  0  0
   13.8418    6.8356   13.1340 H   0  0  0  0  0  0  0  0  0  0  0  0
   12.9607    7.8648   11.9260 H   0  0  0  0  0  0  0  0  0  0  0  0
   12.9953    4.8832   12.2648 H   0  0  0  0  0  0  0  0  0  0  0  0
   11.6394    6.0216   11.8606 H   0  0  0  0  0  0  0  0  0  0  0  0
   11.9420    5.0220    9.8920 H   0  0  0  0  0  0  0  0  0  0  0  0
   13.5200    4.6750   10.0930 H   0  0  0  0  0  0  0  0  0  0  0  0
   13.1940    6.2437    8.2884 H   0  0  0  0  0  0  0  0  0  0  0  0
   12.4342    7.3764    9.4584 H   0  0  0  0  0  0  0  0  0  0  0  0
   15.3198    6.5086    9.2006 H   0  0  0  0  0  0  0  0  0  0  0  0
   14.5972    8.1678    9.4069 H   0  0  0  0  0  0  0  0  0  0  0  0
  1  2  1  0
  2  3  2  0
  3  4  1  0
  4  5  2  0
  5  6  1  0
  6  7  2  0
  7  8  1  0
  8  9  1  0
  9 10  2  0
 10 11  1  0
 11 12  2  0
 12 13  1  0
 13 14  1  0
 14 15  1  0
 15 16  1  0
 16 17  1  0
 17 18  1  0
 18 19  1  0
 13  2  1  0
 19 14  1  0
 12  4  1  0
 11  7  1  0
  1 20  1  0
  1 21  1  0
  1 22  1  0
  5 23  1  0
  8 24  1  0
  9 25  1  0
 10 26  1  0
 14 27  1  0
 15 28  1  0
 15 29  1  0
 16 30  1  0
 16 31  1  0
 17 32  1  0
 17 33  1  0
 18 34  1  0
 18 35  1  0
 19 36  1  0
 19 37  1  0
M  CHG  1  17   1
M  END
>  <meeko>  (1) 
{"is_sidechain": [false], "free_energy": -8.328, "intermolecular_energy": -8.815, "internal_energy": -0.379}

$$$$
4f09_ligand
     RDKit          3D

 37 40  0  0  0  0  0  0  0  0999 V2000
   12.6760   11.3760   10.8080 C   0  0  0  0  0  0  0  0  0  0  0  0
   13.9030   10.6630   11.2580 C   0  0  0  0  0  0  0  0  0  0  0  0
   15.0140   11.2800   11.6020 N   0  0  0  0  0  0  0  0  0  0  0  0
   15.8940   10.3010   11.9640 C   0  0  0  0  0  0  0  0  0  0  0  0
   17.2210   10.3800   12.4190 C   0  0  0  0  0  0  0  0  0  0  0  0
   17.9530    9.2760   12.7460 N   0  0  0  0  0  0  0  0  0  0  0  0
   17.3070    8.1080   12.6080 C   0  0  0  0  0  0  0  0  0  0  0  0
   17.8070    6.8670   12.8810 N   0  0  0  0  0  0  0  0  0  0  0  0
   16.8360    5.9210   12.6290 C   0  0  0  0  0  0  0  0  0  0  0  0
   15.6940    6.5670   12.1850 C   0  0  0  0  0  0  0  0  0  0  0  0
   16.0100    7.9470   12.1700 C   0  0  0  0  0  0  0  0  0  0  0  0
   15.2910    9.0580   11.8340 C   0  0  0  0  0  0  0  0  0  0  0  0
   14.0400    9.2750   11.3660 N   0  0  0  0  0  0  0  0  0  0  0  0
   12.9910    8.3420   10.9760 C   0  0  0  0  0  0  0  0  0  0  0  0
   13.4130    7.3610    9.8770 C   0  0  0  0  0  0  0  0  0  0  0  0
   12.2370    6.5420    9.3580 C   0  0  0  0  0  0  0  0  0  0  0  0
   11.1960    6.3240   10.4100 N   0  0  0  0  0  0  0  0  0  0  0  0
   11.6950    6.3150   11.8130 C   0  0  0  0  0  0  0  0  0  0  0  0
   12.2660    7.6820   12.1600 C   0  0  0  0  0  0  0  0  0  0  0  0
   12.1028   11.7091   11.6857 H   0  0  0  0  0  0  0  0  0  0  0  0
   12.9606   12.2494   10.2029 H   0  0  0  0  0  0  0  0  0  0  0  0
   12.0581   10.6963   10.2029 H   0  0  0  0  0  0  0  0  0  0  0  0
   17.6882   11.3712   12.5154 H   0  0  0  0  0  0  0  0  0  0  0  0
   18.7440    6.7000   13.2210 H   0  0  0  0  0  0  0  0  0  0  0  0
   16.9494    4.8346   12.7589 H   0  0  0  0  0  0  0  0  0  0  0  0
   14.7376    6.1030   11.9021 H   0  0  0  0  0  0  0  0  0  0  0  0
   12.2221    8.9721   10.5051 H   0  0  0  0  0  0  0  0  0  0  0  0
   13.8458    7.9297    9.0408 H   0  0  0  0  0  0  0  0  0  0  0  0
   14.1473    6.6645   10.3079 H   0  0  0  0  0  0  0  0  0  0  0  0
   11.7797    7.0749    8.5113 H   0  0  0  0  0  0  0  0  0  0  0  0
   12.6191    5.5575    9.0501 H   0  0  0  0  0  0  0  0  0  0  0  0
   10.7270    5.4240   10.2210 H   0  0  0  0  0  0  0  0  0  0  0  0
   10.4450    7.0240   10.3150 H   0  0  0  0  0  0  0  0  0  0  0  0
   10.8646    6.0811   12.4955 H   0  0  0  0  0  0  0  0  0  0  0  0
   12.4819    5.5533   11.9161 H   0  0  0  0  0  0  0  0  0  0  0  0
   11.4413    8.3374   12.4768 H   0  0  0  0  0  0  0  0  0  0  0  0
   13.0044    7.5388   12.9627 H   0  0  0  0  0  0  0  0  0  0  0  0
  1  2  1  0
  2  3  2  0
  3  4  1  0
  4  5  2  0
  5  6  1  0
  6  7  2  0
  7  8  1  0
  8  9  1  0
  9 10  2  0
 10 11  1  0
 11 12  2  0
 12 13  1  0
 13 14  1  0
 14 15  1  0
 15 16  1  0
 16 17  1  0
 17 18  1  0
 18 19  1  0
 13  2  1  0
 19 14  1  0
 12  4  1  0
 11  7  1  0
  1 20  1  0
  1 21  1  0
  1 22  1  0
  5 23  1  0
  8 24  1  0
  9 25  1  0
 10 26  1  0
 14 27  1  0
 15 28  1  0
 15 29  1  0
 16 30  1  0
 16 31  1  0
 17 32  1  0
 17 33  1  0
 18 34  1  0
 18 35  1  0
 19 36  1  0
 19 37  1  0
M  CHG  1  17   1
M  END
>  <meeko>  (2) 
{"is_sidechain": [false], "free_energy": -7.604, "intermolecular_energy": -8.108, "internal_energy": -0.319}

$$$$
4f09_ligand
     RDKit          3D

 37 40  0  0  0  0  0  0  0  0999 V2000
   11.6540    9.1070    9.9090 C   0  0  0  0  0  0  0  0  0  0  0  0
   12.9180    9.6170   10.5060 C   0  0  0  0  0  0  0  0  0  0  0  0
   13.1690   10.8970   10.6870 N   0  0  0  0  0  0  0  0  0  0  0  0
   14.4040   10.9620   11.2650 C   0  0  0  0  0  0  0  0  0  0  0  0
   15.1680   12.0670   11.6780 C   0  0  0  0  0  0  0  0  0  0  0  0
   16.3990   11.9360   12.2520 N   0  0  0  0  0  0  0  0  0  0  0  0
   16.8220   10.6710   12.4000 C   0  0  0  0  0  0  0  0  0  0  0  0
   18.0030   10.2700   12.9550 N   0  0  0  0  0  0  0  0  0  0  0  0
   18.0670    8.8930   12.9420 C   0  0  0  0  0  0  0  0  0  0  0  0
   16.9070    8.4020   12.3650 C   0  0  0  0  0  0  0  0  0  0  0  0
   16.1350    9.5380   12.0210 C   0  0  0  0  0  0  0  0  0  0  0  0
   14.9090    9.6820   11.4360 C   0  0  0  0  0  0  0  0  0  0  0  0
   13.9870    8.8250   10.9400 N   0  0  0  0  0  0  0  0  0  0  0  0
   14.0120    7.3760   10.7890 C   0  0  0  0  0  0  0  0  0  0  0  0
   13.3020    6.6240   11.9190 C   0  0  0  0  0  0  0  0  0  0  0  0
   13.5240    5.1180   11.8320 C   0  0  0  0  0  0  0  0  0  0  0  0
   13.7110    4.6580   10.4210 N   0  0  0  0  0  0  0  0  0  0  0  0
   13.0400    5.4880    9.3830 C   0  0  0  0  0  0  0  0  0  0  0  0
   13.6400    6.8850    9.3800 C   0  0  0  0  0  0  0  0  0  0  0  0
   10.9567    8.8256   10.7119 H   0  0  0  0  0  0  0  0  0  0  0  0
   11.1994    9.8921    9.2869 H   0  0  0  0  0  0  0  0  0  0  0  0
   11.8715    8.2263    9.2869 H   0  0  0  0  0  0  0  0  0  0  0  0
   14.7575   13.0771   11.5328 H   0  0  0  0  0  0  0  0  0  0  0  0
   18.6990   10.9060   13.3190 H   0  0  0  0  0  0  0  0  0  0  0  0
   18.8999    8.2855   13.3257 H   0  0  0  0  0  0  0  0  0  0  0  0
   16.6406    7.3466   12.2067 H   0  0  0  0  0  0  0  0  0  0  0  0
   15.0725    7.1056   10.8990 H   0  0  0  0  0  0  0  0  0  0  0  0
   13.6891    6.9847   12.8834 H   0  0  0  0  0  0  0  0  0  0  0  0
   12.2224    6.8137   11.8269 H   0  0  0  0  0  0  0  0  0  0  0  0
   14.4217    4.8576   12.4120 H   0  0  0  0  0  0  0  0  0  0  0  0
   12.6301    4.6197   12.2354 H   0  0  0  0  0  0  0  0  0  0  0  0
   13.3610    3.6890   10.3470 H   0  0  0  0  0  0  0  0  0  0  0  0
   14.7160    4.5800   10.2050 H   0  0  0  0  0  0  0  0  0  0  0  0
   13.1840    5.0257    8.3953 H   0  0  0  0  0  0  0  0  0  0  0  0
   11.9648    5.5529    9.6062 H   0  0  0  0  0  0  0  0  0  0  0  0
   14.5483    6.8762    8.7595 H   0  0  0  0  0  0  0  0  0  0  0  0
   12.8795    7.5716    8.9797 H   0  0  0  0  0  0  0  0  0  0  0  0
  1  2  1  0
  2  3  2  0
  3  4  1  0
  4  5  2  0
  5  6  1  0
  6  7  2  0
  7  8  1  0
  8  9  1  0
  9 10  2  0
 10 11  1  0
 11 12  2  0
 12 13  1  0
 13 14  1  0
 14 15  1  0
 15 16  1  0
 16 17  1  0
 17 18  1  0
 18 19  1  0
 13  2  1  0
 19 14  1  0
 12  4  1  0
 11  7  1  0
  1 20  1  0
  1 21  1  0
  1 22  1  0
  5 23  1  0
  8 24  1  0
  9 25  1  0
 10 26  1  0
 14 27  1  0
 15 28  1  0
 15 29  1  0
 16 30  1  0
 16 31  1  0
 17 32  1  0
 17 33  1  0
 18 34  1  0
 18 35  1  0
 19 36  1  0
 19 37  1  0
M  CHG  1  17   1
M  END
>  <meeko>  (3) 
{"is_sidechain": [false], "free_energy": -7.566, "intermolecular_energy": -8.378, "internal_energy": -0.009}

$$$$
4f09_ligand
     RDKit          3D

 37 40  0  0  0  0  0  0  0  0999 V2000
   14.8970   10.1860   11.0240 C   0  0  0  0  0  0  0  0  0  0  0  0
   15.5570    8.9670   11.5680 C   0  0  0  0  0  0  0  0  0  0  0  0
   16.7660    8.9710   12.0910 N   0  0  0  0  0  0  0  0  0  0  0  0
   17.0110    7.6880   12.4860 C   0  0  0  0  0  0  0  0  0  0  0  0
   18.1350    7.1150   13.1040 C   0  0  0  0  0  0  0  0  0  0  0  0
   18.1970    5.7930   13.4380 N   0  0  0  0  0  0  0  0  0  0  0  0
   17.0990    5.0820   13.1380 C   0  0  0  0  0  0  0  0  0  0  0  0
   16.9020    3.7530   13.3790 N   0  0  0  0  0  0  0  0  0  0  0  0
   15.6450    3.3930   12.9420 C   0  0  0  0  0  0  0  0  0  0  0  0
   15.0250    4.5120   12.4090 C   0  0  0  0  0  0  0  0  0  0  0  0
   15.9600    5.5680   12.5330 C   0  0  0  0  0  0  0  0  0  0  0  0
   15.9140    6.8900   12.1930 C   0  0  0  0  0  0  0  0  0  0  0  0
   14.9990    7.6850   11.5920 N   0  0  0  0  0  0  0  0  0  0  0  0
   13.7000    7.3760   11.0090 C   0  0  0  0  0  0  0  0  0  0  0  0
   13.7640    6.3740    9.8510 C   0  0  0  0  0  0  0  0  0  0  0  0
   12.4220    6.2320    9.1420 C   0  0  0  0  0  0  0  0  0  0  0  0
   11.2700    6.4690   10.0670 N   0  0  0  0  0  0  0  0  0  0  0  0
   11.5220    6.1480   11.4990 C   0  0  0  0  0  0  0  0  0  0  0  0
   12.6060    7.0670   12.0440 C   0  0  0  0  0  0  0  0  0  0  0  0
   14.5541   10.8193   11.8555 H   0  0  0  0  0  0  0  0  0  0  0  0
   15.6145   10.7472   10.4073 H   0  0  0  0  0  0  0  0  0  0  0  0
   14.0349    9.8919   10.4073 H   0  0  0  0  0  0  0  0  0  0  0  0
   18.9995    7.7573   13.3276 H   0  0  0  0  0  0  0  0  0  0  0  0
   17.5870    3.1530   13.8180 H   0  0  0  0  0  0  0  0  0  0  0  0
   15.2073    2.3859   13.0057 H   0  0  0  0  0  0  0  0  0  0  0  0
   14.0144    4.5682   11.9782 H   0  0  0  0  0  0  0  0  0  0  0  0
   13.3750    8.3180   10.5432 H   0  0  0  0  0  0  0  0  0  0  0  0
   14.5145    6.7188    9.1244 H   0  0  0  0  0  0  0  0  0  0  0  0
   14.0335    5.3919   10.2668 H   0  0  0  0  0  0  0  0  0  0  0  0
   12.3748    6.9634    8.3218 H   0  0  0  0  0  0  0  0  0  0  0  0
   12.3461    5.2023    8.7626 H   0  0  0  0  0  0  0  0  0  0  0  0
   10.4690    5.9050    9.7380 H   0  0  0  0  0  0  0  0  0  0  0  0
   10.9430    7.4420    9.9830 H   0  0  0  0  0  0  0  0  0  0  0  0
   10.5960    6.2919   12.0751 H   0  0  0  0  0  0  0  0  0  0  0  0
   11.8509    5.1020   11.5870 H   0  0  0  0  0  0  0  0  0  0  0  0
   12.1403    8.0133   12.3565 H   0  0  0  0  0  0  0  0  0  0  0  0
   13.0851    6.5500   12.8885 H   0  0  0  0  0  0  0  0  0  0  0  0
  1  2  1  0
  2  3  2  0
  3  4  1  0
  4  5  2  0
  5  6  1  0
  6  7  2  0
  7  8  1  0
  8  9  1  0
  9 10  2  0
 10 11  1  0
 11 12  2  0
 12 13  1  0
 13 14  1  0
 14 15  1  0
 15 16  1  0
 16 17  1  0
 17 18  1  0
 18 19  1  0
 13  2  1  0
 19 14  1  0
 12  4  1  0
 11  7  1  0
  1 20  1  0
  1 21  1  0
  1 22  1  0
  5 23  1  0
  8 24  1  0
  9 25  1  0
 10 26  1  0
 14 27  1  0
 15 28  1  0
 15 29  1  0
 16 30  1  0
 16 31  1  0
 17 32  1  0
 17 33  1  0
 18 34  1  0
 18 35  1  0
 19 36  1  0
 19 37  1  0
M  CHG  1  17   1
M  END
>  <meeko>  (4) 
{"is_sidechain": [false], "free_energy": -7.257, "intermolecular_energy": -7.696, "internal_energy": -0.364}

$$$$
4f09_ligand
     RDKit          3D

 37 40  0  0  0  0  0  0  0  0999 V2000
    3.2480    6.9250    0.7960 C   0  0  0  0  0  0  0  0  0  0  0  0
    4.0340    6.0690    1.7260 C   0  0  0  0  0  0  0  0  0  0  0  0
    5.2300    6.3930    2.1720 N   0  0  0  0  0  0  0  0  0  0  0  0
    5.6120    5.3780    3.0010 C   0  0  0  0  0  0  0  0  0  0  0  0
    6.7870    5.1950    3.7500 C   0  0  0  0  0  0  0  0  0  0  0  0
    6.9920    4.1020    4.5400 N   0  0  0  0  0  0  0  0  0  0  0  0
    5.9830    3.2180    4.5560 C   0  0  0  0  0  0  0  0  0  0  0  0
    5.9320    2.0570    5.2720 N   0  0  0  0  0  0  0  0  0  0  0  0
    4.7270    1.4300    5.0380 C   0  0  0  0  0  0  0  0  0  0  0  0
    3.9920    2.2030    4.1530 C   0  0  0  0  0  0  0  0  0  0  0  0
    4.8020    3.3240    3.8520 C   0  0  0  0  0  0  0  0  0  0  0  0
    4.6130    4.4160    3.0540 C   0  0  0  0  0  0  0  0  0  0  0  0
    3.6210    4.8330    2.2340 N   0  0  0  0  0  0  0  0  0  0  0  0
    2.3700    4.1950    1.8470 C   0  0  0  0  0  0  0  0  0  0  0  0
    2.5530    2.8190    1.1970 C   0  0  0  0  0  0  0  0  0  0  0  0
    1.2470    2.2770    0.6260 C   0  0  0  0  0  0  0  0  0  0  0  0
    0.0560    2.7630    1.3910 N   0  0  0  0  0  0  0  0  0  0  0  0
    0.3000    3.0780    2.8250 C   0  0  0  0  0  0  0  0  0  0  0  0
    1.2830    4.2340    2.9330 C   0  0  0  0  0  0  0  0  0  0  0  0
    2.6161    7.6132    1.3766 H   0  0  0  0  0  0  0  0  0  0  0  0
    3.9351    7.5047    0.1620 H   0  0  0  0  0  0  0  0  0  0  0  0
    2.6119    6.2898    0.1620 H   0  0  0  0  0  0  0  0  0  0  0  0
    7.5723    5.9634    3.6971 H   0  0  0  0  0  0  0  0  0  0  0  0
    6.6750    1.7370    5.8780 H   0  0  0  0  0  0  0  0  0  0  0  0
    4.4030    0.4761    5.4796 H   0  0  0  0  0  0  0  0  0  0  0  0
    2.9855    1.9891    3.7642 H   0  0  0  0  0  0  0  0  0  0  0  0
    1.9726    4.8320    1.0431 H   0  0  0  0  0  0  0  0  0  0  0  0
    3.2873    2.9061    0.3826 H   0  0  0  0  0  0  0  0  0  0  0  0
    2.8994    2.1207    1.9731 H   0  0  0  0  0  0  0  0  0  0  0  0
    1.1544    2.6035   -0.4203 H   0  0  0  0  0  0  0  0  0  0  0  0
    1.2735    1.1798    0.6997 H   0  0  0  0  0  0  0  0  0  0  0  0
   -0.6820    2.0430    1.3310 H   0  0  0  0  0  0  0  0  0  0  0  0
   -0.3550    3.5830    0.9210 H   0  0  0  0  0  0  0  0  0  0  0  0
   -0.6492    3.3585    3.3049 H   0  0  0  0  0  0  0  0  0  0  0  0
    0.7191    2.1937    3.3273 H   0  0  0  0  0  0  0  0  0  0  0  0
    0.7266    5.1783    2.8396 H   0  0  0  0  0  0  0  0  0  0  0  0
    1.7857    4.1512    3.9079 H   0  0  0  0  0  0  0  0  0  0  0  0
  1  2  1  0
  2  3  2  0
  3  4  1  0
  4  5  2  0
  5  6  1  0
  6  7  2  0
  7  8  1  0
  8  9  1  0
  9 10  2  0
 10 11  1  0
 11 12  2  0
 12 13  1  0
 13 14  1  0
 14 15  1  0
 15 16  1  0
 16 17  1  0
 17 18  1  0
 18 19  1  0
 13  2  1  0
 19 14  1  0
 12  4  1  0
 11  7  1  0
  1 20  1  0
  1 21  1  0
  1 22  1  0
  5 23  1  0
  8 24  1  0
  9 25  1  0
 10 26  1  0
 14 27  1  0
 15 28  1  0
 15 29  1  0
 16 30  1  0
 16 31  1  0
 17 32  1  0
 17 33  1  0
 18 34  1  0
 18 35  1  0
 19 36  1  0
 19 37  1  0
M  CHG  1  17   1
M  END
>  <meeko>  (5) 
{"is_sidechain": [false], "free_energy": -7.207, "intermolecular_energy": -7.684, "internal_energy": -0.323}

$$$$
4f09_ligand
     RDKit          3D

 37 40  0  0  0  0  0  0  0  0999 V2000
    3.9920    0.8280    4.4610 C   0  0  0  0  0  0  0  0  0  0  0  0
    4.3720    2.2090    4.0560 C   0  0  0  0  0  0  0  0  0  0  0  0
    5.4970    2.7880    4.4250 N   0  0  0  0  0  0  0  0  0  0  0  0
    5.4900    4.0250    3.8490 C   0  0  0  0  0  0  0  0  0  0  0  0
    6.4330    5.0670    3.8980 C   0  0  0  0  0  0  0  0  0  0  0  0
    6.2560    6.2500    3.2430 N   0  0  0  0  0  0  0  0  0  0  0  0
    5.1170    6.3420    2.5400 C   0  0  0  0  0  0  0  0  0  0  0  0
    4.7100    7.4070    1.7890 N   0  0  0  0  0  0  0  0  0  0  0  0
    3.4940    7.1160    1.2070 C   0  0  0  0  0  0  0  0  0  0  0  0
    3.1130    5.8420    1.5950 C   0  0  0  0  0  0  0  0  0  0  0  0
    4.1440    5.3700    2.4420 C   0  0  0  0  0  0  0  0  0  0  0  0
    4.3270    4.1940    3.1130 C   0  0  0  0  0  0  0  0  0  0  0  0
    3.6030    3.0600    3.2560 N   0  0  0  0  0  0  0  0  0  0  0  0
    2.2760    2.7060    2.7700 C   0  0  0  0  0  0  0  0  0  0  0  0
    1.1700    3.6540    3.2450 C   0  0  0  0  0  0  0  0  0  0  0  0
   -0.2200    3.1390    2.8860 C   0  0  0  0  0  0  0  0  0  0  0  0
   -0.2090    2.3210    1.6330 N   0  0  0  0  0  0  0  0  0  0  0  0
    0.8590    2.6640    0.6530 C   0  0  0  0  0  0  0  0  0  0  0  0
    2.2220    2.3850    1.2680 C   0  0  0  0  0  0  0  0  0  0  0  0
    3.9733    0.7599    5.5587 H   0  0  0  0  0  0  0  0  0  0  0  0
    2.9950    0.5901    4.0618 H   0  0  0  0  0  0  0  0  0  0  0  0
    4.7269    0.1135    4.0618 H   0  0  0  0  0  0  0  0  0  0  0  0
    7.3499    4.9221    4.4881 H   0  0  0  0  0  0  0  0  0  0  0  0
    5.2430    8.2600    1.6870 H   0  0  0  0  0  0  0  0  0  0  0  0
    2.9225    7.7837    0.5455 H   0  0  0  0  0  0  0  0  0  0  0  0
    2.1969    5.3069    1.3044 H   0  0  0  0  0  0  0  0  0  0  0  0
    2.0501    1.7474    3.2600 H   0  0  0  0  0  0  0  0  0  0  0  0
    1.2380    3.7592    4.3378 H   0  0  0  0  0  0  0  0  0  0  0  0
    1.3135    4.6214    2.7414 H   0  0  0  0  0  0  0  0  0  0  0  0
   -0.5926    2.5167    3.7130 H   0  0  0  0  0  0  0  0  0  0  0  0
   -0.8715    4.0092    2.7177 H   0  0  0  0  0  0  0  0  0  0  0  0
   -1.1270    2.4250    1.1710 H   0  0  0  0  0  0  0  0  0  0  0  0
   -0.1560    1.3190    1.8650 H   0  0  0  0  0  0  0  0  0  0  0  0
    0.7342    2.0536   -0.2536 H   0  0  0  0  0  0  0  0  0  0  0  0
    0.7868    3.7299    0.3910 H   0  0  0  0  0  0  0  0  0  0  0  0
    2.4593    1.3201    1.1277 H   0  0  0  0  0  0  0  0  0  0  0  0
    2.9516    3.0361    0.7643 H   0  0  0  0  0  0  0  0  0  0  0  0
  1  2  1  0
  2  3  2  0
  3  4  1  0
  4  5  2  0
  5  6  1  0
  6  7  2  0
  7  8  1  0
  8  9  1  0
  9 10  2  0
 10 11  1  0
 11 12  2  0
 12 13  1  0
 13 14  1  0
 14 15  1  0
 15 16  1  0
 16 17  1  0
 17 18  1  0
 18 19  1  0
 13  2  1  0
 19 14  1  0
 12  4  1  0
 11  7  1  0
  1 20  1  0
  1 21  1  0
  1 22  1  0
  5 23  1  0
  8 24  1  0
  9 25  1  0
 10 26  1  0
 14 27  1  0
 15 28  1  0
 15 29  1  0
 16 30  1  0
 16 31  1  0
 17 32  1  0
 17 33  1  0
 18 34  1  0
 18 35  1  0
 19 36  1  0
 19 37  1  0
M  CHG  1  17   1
M  END
>  <meeko>  (6) 
{"is_sidechain": [false], "free_energy": -7.203, "intermolecular_energy": -7.666, "internal_energy": -0.337}

$$$$
4f09_ligand
     RDKit          3D

 37 40  0  0  0  0  0  0  0  0999 V2000
    7.1030    3.9020    7.2210 C   0  0  0  0  0  0  0  0  0  0  0  0
    6.3990    2.6080    7.0090 C   0  0  0  0  0  0  0  0  0  0  0  0
    6.3840    1.6370    7.8980 N   0  0  0  0  0  0  0  0  0  0  0  0
    5.6340    0.6360    7.3520 C   0  0  0  0  0  0  0  0  0  0  0  0
    5.2820   -0.6290    7.8550 C   0  0  0  0  0  0  0  0  0  0  0  0
    4.5050   -1.5070    7.1580 N   0  0  0  0  0  0  0  0  0  0  0  0
    4.0940   -1.0690    5.9580 C   0  0  0  0  0  0  0  0  0  0  0  0
    3.3010   -1.7440    5.0760 N   0  0  0  0  0  0  0  0  0  0  0  0
    3.0870   -0.9590    3.9630 C   0  0  0  0  0  0  0  0  0  0  0  0
    3.7580    0.2410    4.1340 C   0  0  0  0  0  0  0  0  0  0  0  0
    4.3950    0.1520    5.3950 C   0  0  0  0  0  0  0  0  0  0  0  0
    5.1840    1.0190    6.0970 C   0  0  0  0  0  0  0  0  0  0  0  0
    5.6810    2.2550    5.8610 N   0  0  0  0  0  0  0  0  0  0  0  0
    5.5960    3.1110    4.6850 C   0  0  0  0  0  0  0  0  0  0  0  0
    4.3280    3.9700    4.6360 C   0  0  0  0  0  0  0  0  0  0  0  0
    4.1790    4.6940    3.3020 C   0  0  0  0  0  0  0  0  0  0  0  0
    5.5040    5.0050    2.6810 N   0  0  0  0  0  0  0  0  0  0  0  0
    6.6320    5.1880    3.6360 C   0  0  0  0  0  0  0  0  0  0  0  0
    6.8880    3.8840    4.3770 C   0  0  0  0  0  0  0  0  0  0  0  0
    7.2058    4.0910    8.2997 H   0  0  0  0  0  0  0  0  0  0  0  0
    8.1007    3.8565    6.7600 H   0  0  0  0  0  0  0  0  0  0  0  0
    6.5228    4.7149    6.7600 H   0  0  0  0  0  0  0  0  0  0  0  0
    5.6478   -0.9222    8.8501 H   0  0  0  0  0  0  0  0  0  0  0  0
    2.9360   -2.6720    5.2430 H   0  0  0  0  0  0  0  0  0  0  0  0
    2.4845   -1.2386    3.0862 H   0  0  0  0  0  0  0  0  0  0  0  0
    3.7893    1.0887    3.4337 H   0  0  0  0  0  0  0  0  0  0  0  0
    5.4910    2.4125    3.8418 H   0  0  0  0  0  0  0  0  0  0  0  0
    3.4531    3.3206    4.7872 H   0  0  0  0  0  0  0  0  0  0  0  0
    4.4016    4.7296    5.4282 H   0  0  0  0  0  0  0  0  0  0  0  0
    3.6055    4.0556    2.6138 H   0  0  0  0  0  0  0  0  0  0  0  0
    3.6599    5.6457    3.4885 H   0  0  0  0  0  0  0  0  0  0  0  0
    5.4040    5.8660    2.1190 H   0  0  0  0  0  0  0  0  0  0  0  0
    5.7490    4.2810    1.9900 H   0  0  0  0  0  0  0  0  0  0  0  0
    7.5371    5.4787    3.0826 H   0  0  0  0  0  0  0  0  0  0  0  0
    6.3748    5.9757    4.3595 H   0  0  0  0  0  0  0  0  0  0  0  0
    7.5381    3.2492    3.7571 H   0  0  0  0  0  0  0  0  0  0  0  0
    7.3604    4.1361    5.3379 H   0  0  0  0  0  0  0  0  0  0  0  0
  1  2  1  0
  2  3  2  0
  3  4  1  0
  4  5  2  0
  5  6  1  0
  6  7  2  0
  7  8  1  0
  8  9  1  0
  9 10  2  0
 10 11  1  0
 11 12  2  0
 12 13  1  0
 13 14  1  0
 14 15  1  0
 15 16  1  0
 16 17  1  0
 17 18  1  0
 18 19  1  0
 13  2  1  0
 19 14  1  0
 12  4  1  0
 11  7  1  0
  1 20  1  0
  1 21  1  0
  1 22  1  0
  5 23  1  0
  8 24  1  0
  9 25  1  0
 10 26  1  0
 14 27  1  0
 15 28  1  0
 15 29  1  0
 16 30  1  0
 16 31  1  0
 17 32  1  0
 17 33  1  0
 18 34  1  0
 18 35  1  0
 19 36  1  0
 19 37  1  0
M  CHG  1  17   1
M  END
>  <meeko>  (7) 
{"is_sidechain": [false], "free_energy": -6.758, "intermolecular_energy": -7.729, "internal_energy": 0.197}

$$$$
4f09_ligand
     RDKit          3D

 37 40  0  0  0  0  0  0  0  0999 V2000
   11.0090    4.9810    9.5040 C   0  0  0  0  0  0  0  0  0  0  0  0
   12.1420    4.5010   10.3410 C   0  0  0  0  0  0  0  0  0  0  0  0
   12.2740    3.2510   10.7340 N   0  0  0  0  0  0  0  0  0  0  0  0
   13.4290    3.2020   11.4590 C   0  0  0  0  0  0  0  0  0  0  0  0
   14.0590    2.1300   12.1140 C   0  0  0  0  0  0  0  0  0  0  0  0
   15.2330    2.2720   12.7940 N   0  0  0  0  0  0  0  0  0  0  0  0
   15.7460    3.5120   12.7850 C   0  0  0  0  0  0  0  0  0  0  0  0
   16.9090    3.9130   13.3750 N   0  0  0  0  0  0  0  0  0  0  0  0
   17.1030    5.2560   13.1310 C   0  0  0  0  0  0  0  0  0  0  0  0
   16.0430    5.7250   12.3730 C   0  0  0  0  0  0  0  0  0  0  0  0
   15.1910    4.6130   12.1700 C   0  0  0  0  0  0  0  0  0  0  0  0
   14.0090    4.4620   11.5020 C   0  0  0  0  0  0  0  0  0  0  0  0
   13.1920    5.2940   10.8170 N   0  0  0  0  0  0  0  0  0  0  0  0
   13.2600    6.7330   10.5970 C   0  0  0  0  0  0  0  0  0  0  0  0
   13.0170    7.5640   11.8620 C   0  0  0  0  0  0  0  0  0  0  0  0
   12.8960    9.0530   11.5540 C   0  0  0  0  0  0  0  0  0  0  0  0
   13.7030    9.4470   10.3570 N   0  0  0  0  0  0  0  0  0  0  0  0
   14.9070    8.6100   10.0920 C   0  0  0  0  0  0  0  0  0  0  0  0
   14.4770    7.1860    9.7750 C   0  0  0  0  0  0  0  0  0  0  0  0
   10.1928    5.3268   10.1553 H   0  0  0  0  0  0  0  0  0  0  0  0
   11.3487    5.8125    8.8690 H   0  0  0  0  0  0  0  0  0  0  0  0
   10.6480    4.1585    8.8690 H   0  0  0  0  0  0  0  0  0  0  0  0
   13.5868    1.1372   12.0769 H   0  0  0  0  0  0  0  0  0  0  0  0
   17.5180    3.2970   13.8960 H   0  0  0  0  0  0  0  0  0  0  0  0
   17.9570    5.8550   13.4801 H   0  0  0  0  0  0  0  0  0  0  0  0
   15.8939    6.7507   12.0045 H   0  0  0  0  0  0  0  0  0  0  0  0
   12.3989    6.9540    9.9492 H   0  0  0  0  0  0  0  0  0  0  0  0
   12.0854    7.2230   12.3373 H   0  0  0  0  0  0  0  0  0  0  0  0
   13.8794    7.4247   12.5305 H   0  0  0  0  0  0  0  0  0  0  0  0
   11.8391    9.2912   11.3634 H   0  0  0  0  0  0  0  0  0  0  0  0
   13.2805    9.6108   12.4206 H   0  0  0  0  0  0  0  0  0  0  0  0
   14.0020   10.4280   10.4770 H   0  0  0  0  0  0  0  0  0  0  0  0
   13.1040    9.4660    9.5180 H   0  0  0  0  0  0  0  0  0  0  0  0
   15.4603    9.0246    9.2365 H   0  0  0  0  0  0  0  0  0  0  0  0
   15.5539    8.6074   10.9817 H   0  0  0  0  0  0  0  0  0  0  0  0
   14.2214    7.1259    8.7068 H   0  0  0  0  0  0  0  0  0  0  0  0
   15.3156    6.5223   10.0326 H   0  0  0  0  0  0  0  0  0  0  0  0
  1  2  1  0
  2  3  2  0
  3  4  1  0
  4  5  2  0
  5  6  1  0
  6  7  2  0
  7  8  1  0
  8  9  1  0
  9 10  2  0
 10 11  1  0
 11 12  2  0
 12 13  1  0
 13 14  1  0
 14 15  1  0
 15 16  1  0
 16 17  1  0
 17 18  1  0
 18 19  1  0
 13  2  1  0
 19 14  1  0
 12  4  1  0
 11  7  1  0
  1 20  1  0
  1 21  1  0
  1 22  1  0
  5 23  1  0
  8 24  1  0
  9 25  1  0
 10 26  1  0
 14 27  1  0
 15 28  1  0
 15 29  1  0
 16 30  1  0
 16 31  1  0
 17 32  1  0
 17 33  1  0
 18 34  1  0
 18 35  1  0
 19 36  1  0
 19 37  1  0
M  CHG  1  17   1
M  END
>  <meeko>  (8) 
{"is_sidechain": [false], "free_energy": -6.606, "intermolecular_energy": -7.011, "internal_energy": -0.36}

$$$$
