1q8u_ligand
     RDKit          3D

 44 46  0  0  0  0  0  0  0  0999 V2000
    5.4910    9.9150    1.0580 C   0  0  0  0  0  0  0  0  0  0  0  0
    5.1640    9.8220    2.5220 C   0  0  0  0  0  0  0  0  0  0  0  0
    3.8080    9.6370    2.8200 C   0  0  0  0  0  0  0  0  0  0  0  0
    3.2880    9.6670    4.0540 N   0  0  0  0  0  0  0  0  0  0  0  0
    4.1430    9.9480    5.0500 C   0  0  0  0  0  0  0  0  0  0  0  0
    5.5190   10.1270    4.8940 C   0  0  0  0  0  0  0  0  0  0  0  0
    6.2860   10.4590    6.0230 C   0  0  0  0  0  0  0  0  0  0  0  0
    7.6560   10.6570    5.9290 C   0  0  0  0  0  0  0  0  0  0  0  0
    8.2820   10.4470    4.7130 C   0  0  0  0  0  0  0  0  0  0  0  0
    7.5350   10.0580    3.5820 C   0  0  0  0  0  0  0  0  0  0  0  0
    8.5070    9.5050    2.2040 S   0  0  0  0  0  0  0  0  0  0  0  0
    8.1820    8.1380    1.8350 O   0  0  0  0  0  0  0  0  0  0  0  0
    8.5400   10.5500    1.2080 O   0  0  0  0  0  0  0  0  0  0  0  0
   10.1080    9.3080    2.8080 N   0  0  0  0  0  0  0  0  0  0  0  0
   10.5910    7.9080    3.0070 C   0  0  0  0  0  0  0  0  0  0  0  0
   11.9770    7.7560    3.6190 C   0  0  0  0  0  0  0  0  0  0  0  0
   13.1350    7.8300    2.6410 C   0  0  0  0  0  0  0  0  0  0  0  0
   13.3560    9.2000    2.1100 N   0  0  0  0  0  0  0  0  0  0  0  0
   12.2070    9.8630    1.4150 C   0  0  0  0  0  0  0  0  0  0  0  0
   11.0870   10.3640    2.3780 C   0  0  2  0  0  0  0  0  0  0  0  0
   11.6300   11.1170    3.5920 C   0  0  0  0  0  0  0  0  0  0  0  0
    6.1000    9.9820    3.6040 C   0  0  0  0  0  0  0  0  0  0  0  0
    6.5425   10.2140    0.9354 H   0  0  0  0  0  0  0  0  0  0  0  0
    5.3306    8.9356    0.5835 H   0  0  0  0  0  0  0  0  0  0  0  0
    4.8392   10.6634    0.5835 H   0  0  0  0  0  0  0  0  0  0  0  0
    3.1210    9.4540    1.9806 H   0  0  0  0  0  0  0  0  0  0  0  0
    3.7288   10.0444    6.0645 H   0  0  0  0  0  0  0  0  0  0  0  0
    5.7912   10.5640    6.9998 H   0  0  0  0  0  0  0  0  0  0  0  0
    8.2357   10.9761    6.8077 H   0  0  0  0  0  0  0  0  0  0  0  0
    9.3701   10.5845    4.6280 H   0  0  0  0  0  0  0  0  0  0  0  0
    9.8748    7.3964    3.6668 H   0  0  0  0  0  0  0  0  0  0  0  0
   10.6655    7.4759    1.9982 H   0  0  0  0  0  0  0  0  0  0  0  0
   12.1091    8.5565    4.3617 H   0  0  0  0  0  0  0  0  0  0  0  0
   12.0083    6.7435    4.0478 H   0  0  0  0  0  0  0  0  0  0  0  0
   14.0502    7.5008    3.1549 H   0  0  0  0  0  0  0  0  0  0  0  0
   12.8888    7.1808    1.7878 H   0  0  0  0  0  0  0  0  0  0  0  0
   14.1710    9.1500    1.4650 H   0  0  0  0  0  0  0  0  0  0  0  0
   13.6940    9.8020    2.8720 H   0  0  0  0  0  0  0  0  0  0  0  0
   12.5936   10.7271    0.8548 H   0  0  0  0  0  0  0  0  0  0  0  0
   11.7498    9.1051    0.7619 H   0  0  0  0  0  0  0  0  0  0  0  0
   10.5219   11.0754    1.7578 H   0  0  0  0  0  0  0  0  0  0  0  0
   11.2784   10.6295    4.5132 H   0  0  0  0  0  0  0  0  0  0  0  0
   12.7297   11.1064    3.5683 H   0  0  0  0  0  0  0  0  0  0  0  0
   11.2727   12.1571    3.5683 H   0  0  0  0  0  0  0  0  0  0  0  0
  1  2  1  0
  2  3  2  0
  3  4  1  0
  4  5  2  0
  5  6  1  0
  6  7  2  0
  7  8  1  0
  8  9  2  0
  9 10  1  0
 10 11  1  0
 11 12  2  0
 11 13  2  0
 11 14  1  0
 14 15  1  0
 15 16  1  0
 16 17  1  0
 17 18  1  0
 18 19  1  0
 19 20  1  0
 20 21  1  0
 10 22  2  0
 22  2  1  0
 22  6  1  0
 20 14  1  0
  1 23  1  0
  1 24  1  0
  1 25  1  0
  3 26  1  0
  5 27  1  0
  7 28  1  0
  8 29  1  0
  9 30  1  0
 15 31  1  0
 15 32  1  0
 16 33  1  0
 16 34  1  0
 17 35  1  0
 17 36  1  0
 18 37  1  0
 18 38  1  0
 19 39  1  0
 19 40  1  0
 20 41  1  6
 21 42  1  0
 21 43  1  0
 21 44  1  0
M  CHG  1  18   1
M  END
>  <meeko>  (1) 
{"is_sidechain": [false], "free_energy": -6.94, "intermolecular_energy": -10.186, "internal_energy": 0.529}

$$$$
1q8u_ligand
     RDKit          3D

 44 46  0  0  0  0  0  0  0  0999 V2000
    8.4860    9.4780    6.1790 C   0  0  0  0  0  0  0  0  0  0  0  0
    7.5120    9.9250    5.1260 C   0  0  0  0  0  0  0  0  0  0  0  0
    6.2370   10.2610    5.5970 C   0  0  0  0  0  0  0  0  0  0  0  0
    5.1870   10.5500    4.8160 N   0  0  0  0  0  0  0  0  0  0  0  0
    5.3900   10.4490    3.4920 C   0  0  0  0  0  0  0  0  0  0  0  0
    6.6140   10.1500    2.8930 C   0  0  0  0  0  0  0  0  0  0  0  0
    6.6670   10.0360    1.4930 C   0  0  0  0  0  0  0  0  0  0  0  0
    7.8540    9.7330    0.8410 C   0  0  0  0  0  0  0  0  0  0  0  0
    9.0160    9.6170    1.5820 C   0  0  0  0  0  0  0  0  0  0  0  0
    8.9920    9.7850    2.9830 C   0  0  0  0  0  0  0  0  0  0  0  0
   10.5880    9.9430    3.7410 S   0  0  0  0  0  0  0  0  0  0  0  0
   10.7380   11.2230    4.4100 O   0  0  0  0  0  0  0  0  0  0  0  0
   10.9020    8.7110    4.4260 O   0  0  0  0  0  0  0  0  0  0  0  0
   11.7080   10.1190    2.4440 N   0  0  0  0  0  0  0  0  0  0  0  0
   12.1240   11.5100    2.0910 C   0  0  0  0  0  0  0  0  0  0  0  0
   12.4660   11.7580    0.6280 C   0  0  0  0  0  0  0  0  0  0  0  0
   13.8790   11.3880    0.2160 C   0  0  0  0  0  0  0  0  0  0  0  0
   14.1850    9.9500    0.4260 N   0  0  0  0  0  0  0  0  0  0  0  0
   14.1360    9.4340    1.8320 C   0  0  0  0  0  0  0  0  0  0  0  0
   12.7020    9.0010    2.3030 C   0  0  2  0  0  0  0  0  0  0  0  0
   12.1250    7.8770    1.4440 C   0  0  0  0  0  0  0  0  0  0  0  0
    7.7630    9.9570    3.7090 C   0  0  0  0  0  0  0  0  0  0  0  0
    8.0631    9.6721    7.1757 H   0  0  0  0  0  0  0  0  0  0  0  0
    8.6794    8.4010    6.0661 H   0  0  0  0  0  0  0  0  0  0  0  0
    9.4286   10.0336    6.0661 H   0  0  0  0  0  0  0  0  0  0  0  0
    6.0863   10.2898    6.6863 H   0  0  0  0  0  0  0  0  0  0  0  0
    4.5267   10.6144    2.8307 H   0  0  0  0  0  0  0  0  0  0  0  0
    5.7511   10.1897    0.9036 H   0  0  0  0  0  0  0  0  0  0  0  0
    7.8704    9.5872   -0.2492 H   0  0  0  0  0  0  0  0  0  0  0  0
    9.9662    9.3921    1.0755 H   0  0  0  0  0  0  0  0  0  0  0  0
   11.2997   12.1860    2.3623 H   0  0  0  0  0  0  0  0  0  0  0  0
   13.0568   11.6884    2.6460 H   0  0  0  0  0  0  0  0  0  0  0  0
   11.7687   11.1706    0.0126 H   0  0  0  0  0  0  0  0  0  0  0  0
   12.3822   12.8445    0.4781 H   0  0  0  0  0  0  0  0  0  0  0  0
   14.0058   11.6215   -0.8514 H   0  0  0  0  0  0  0  0  0  0  0  0
   14.5690   11.9676    0.8469 H   0  0  0  0  0  0  0  0  0  0  0  0
   15.1280    9.7760    0.0240 H   0  0  0  0  0  0  0  0  0  0  0  0
   13.5660    9.3870   -0.1710 H   0  0  0  0  0  0  0  0  0  0  0  0
   14.8020    8.5614    1.9038 H   0  0  0  0  0  0  0  0  0  0  0  0
   14.4499   10.2609    2.4859 H   0  0  0  0  0  0  0  0  0  0  0  0
   12.8692    8.6240    3.3228 H   0  0  0  0  0  0  0  0  0  0  0  0
   11.7202    7.0885    2.0955 H   0  0  0  0  0  0  0  0  0  0  0  0
   11.3207    8.2768    0.8090 H   0  0  0  0  0  0  0  0  0  0  0  0
   12.9187    7.4564    0.8090 H   0  0  0  0  0  0  0  0  0  0  0  0
  1  2  1  0
  2  3  2  0
  3  4  1  0
  4  5  2  0
  5  6  1  0
  6  7  2  0
  7  8  1  0
  8  9  2  0
  9 10  1  0
 10 11  1  0
 11 12  2  0
 11 13  2  0
 11 14  1  0
 14 15  1  0
 15 16  1  0
 16 17  1  0
 17 18  1  0
 18 19  1  0
 19 20  1  0
 20 21  1  0
 10 22  2  0
 22  2  1  0
 22  6  1  0
 20 14  1  0
  1 23  1  0
  1 24  1  0
  1 25  1  0
  3 26  1  0
  5 27  1  0
  7 28  1  0
  8 29  1  0
  9 30  1  0
 15 31  1  0
 15 32  1  0
 16 33  1  0
 16 34  1  0
 17 35  1  0
 17 36  1  0
 18 37  1  0
 18 38  1  0
 19 39  1  0
 19 40  1  0
 20 41  1  1
 21 42  1  0
 21 43  1  0
 21 44  1  0
M  CHG  1  18   1
M  END
>  <meeko>  (2) 
{"is_sidechain": [false], "free_energy": -6.187, "intermolecular_energy": -8.988, "internal_energy": 0.436}

$$$$
1q8u_ligand
     RDKit          3D

 44 46  0  0  0  0  0  0  0  0999 V2000
    9.6580    7.3880    4.4830 C   0  0  0  0  0  0  0  0  0  0  0  0
    8.7530    8.5870    4.5110 C   0  0  0  0  0  0  0  0  0  0  0  0
    8.4160    9.0500    5.7890 C   0  0  0  0  0  0  0  0  0  0  0  0
    7.5200   10.0140    6.0390 N   0  0  0  0  0  0  0  0  0  0  0  0
    6.8750   10.5140    4.9720 C   0  0  0  0  0  0  0  0  0  0  0  0
    7.1330   10.1600    3.6470 C   0  0  0  0  0  0  0  0  0  0  0  0
    6.3490   10.7360    2.6330 C   0  0  0  0  0  0  0  0  0  0  0  0
    6.5530   10.4180    1.2980 C   0  0  0  0  0  0  0  0  0  0  0  0
    7.5980    9.5760    0.9610 C   0  0  0  0  0  0  0  0  0  0  0  0
    8.4310    9.0330    1.9620 C   0  0  0  0  0  0  0  0  0  0  0  0
    9.9100    8.2590    1.3600 S   0  0  0  0  0  0  0  0  0  0  0  0
    9.9870    6.8660    1.7630 O   0  0  0  0  0  0  0  0  0  0  0  0
   10.1080    8.6400   -0.0180 O   0  0  0  0  0  0  0  0  0  0  0  0
   11.2010    8.9360    2.2790 N   0  0  0  0  0  0  0  0  0  0  0  0
   12.4210    8.0940    2.4570 C   0  0  0  0  0  0  0  0  0  0  0  0
   13.5890    8.3990    1.5280 C   0  0  0  0  0  0  0  0  0  0  0  0
   14.4970    9.5320    1.9690 C   0  0  0  0  0  0  0  0  0  0  0  0
   13.8670   10.8690    1.8180 N   0  0  0  0  0  0  0  0  0  0  0  0
   12.5000   10.9210    1.2050 C   0  0  0  0  0  0  0  0  0  0  0  0
   11.3520   10.4270    2.1660 C   0  0  2  0  0  0  0  0  0  0  0  0
   11.4220   11.0650    3.5530 C   0  0  0  0  0  0  0  0  0  0  0  0
    8.1650    9.2240    3.3610 C   0  0  0  0  0  0  0  0  0  0  0  0
    9.8905    7.0800    5.5131 H   0  0  0  0  0  0  0  0  0  0  0  0
    9.1562    6.5620    3.9577 H   0  0  0  0  0  0  0  0  0  0  0  0
   10.5899    7.6442    3.9577 H   0  0  0  0  0  0  0  0  0  0  0  0
    8.9234    8.5890    6.6493 H   0  0  0  0  0  0  0  0  0  0  0  0
    6.0853   11.2572    5.1563 H   0  0  0  0  0  0  0  0  0  0  0  0
    5.5589   11.4523    2.9027 H   0  0  0  0  0  0  0  0  0  0  0  0
    5.8939   10.8291    0.5192 H   0  0  0  0  0  0  0  0  0  0  0  0
    7.7807    9.3281   -0.0950 H   0  0  0  0  0  0  0  0  0  0  0  0
   12.7715    8.2252    3.4914 H   0  0  0  0  0  0  0  0  0  0  0  0
   12.1094    7.0680    2.2117 H   0  0  0  0  0  0  0  0  0  0  0  0
   14.2005    7.4886    1.4425 H   0  0  0  0  0  0  0  0  0  0  0  0
   13.1413    8.7240    0.5772 H   0  0  0  0  0  0  0  0  0  0  0  0
   14.7553    9.3831    3.0278 H   0  0  0  0  0  0  0  0  0  0  0  0
   15.3878    9.5117    1.3240 H   0  0  0  0  0  0  0  0  0  0  0  0
   14.5210   11.4540    1.2580 H   0  0  0  0  0  0  0  0  0  0  0  0
   13.8540   11.3380    2.7320 H   0  0  0  0  0  0  0  0  0  0  0  0
   12.2881   11.9615    0.9179 H   0  0  0  0  0  0  0  0  0  0  0  0
   12.5102   10.2395    0.3416 H   0  0  0  0  0  0  0  0  0  0  0  0
   10.4409   10.7805    1.6612 H   0  0  0  0  0  0  0  0  0  0  0  0
   11.3361   10.2825    4.3213 H   0  0  0  0  0  0  0  0  0  0  0  0
   12.3829   11.5879    3.6680 H   0  0  0  0  0  0  0  0  0  0  0  0
   10.5973   11.7838    3.6680 H   0  0  0  0  0  0  0  0  0  0  0  0
  1  2  1  0
  2  3  2  0
  3  4  1  0
  4  5  2  0
  5  6  1  0
  6  7  2  0
  7  8  1  0
  8  9  2  0
  9 10  1  0
 10 11  1  0
 11 12  2  0
 11 13  2  0
 11 14  1  0
 14 15  1  0
 15 16  1  0
 16 17  1  0
 17 18  1  0
 18 19  1  0
 19 20  1  0
 20 21  1  0
 10 22  2  0
 22  2  1  0
 22  6  1  0
 20 14  1  0
  1 23  1  0
  1 24  1  0
  1 25  1  0
  3 26  1  0
  5 27  1  0
  7 28  1  0
  8 29  1  0
  9 30  1  0
 15 31  1  0
 15 32  1  0
 16 33  1  0
 16 34  1  0
 17 35  1  0
 17 36  1  0
 18 37  1  0
 18 38  1  0
 19 39  1  0
 19 40  1  0
 20 41  1  6
 21 42  1  0
 21 43  1  0
 21 44  1  0
M  CHG  1  18   1
M  END
>  <meeko>  (3) 
{"is_sidechain": [false], "free_energy": -5.811, "intermolecular_energy": -8.831, "internal_energy": 0.832}

$$$$
1q8u_ligand
     RDKit          3D

 44 46  0  0  0  0  0  0  0  0999 V2000
    9.3250    9.8780    0.7870 C   0  0  0  0  0  0  0  0  0  0  0  0
    7.9810   10.0210    1.4430 C   0  0  0  0  0  0  0  0  0  0  0  0
    6.9910   10.6160    0.6530 C   0  0  0  0  0  0  0  0  0  0  0  0
    5.7710   10.9600    1.0880 N   0  0  0  0  0  0  0  0  0  0  0  0
    5.5300   10.7560    2.3940 C   0  0  0  0  0  0  0  0  0  0  0  0
    6.4170   10.1480    3.2830 C   0  0  0  0  0  0  0  0  0  0  0  0
    6.0450   10.0390    4.6340 C   0  0  0  0  0  0  0  0  0  0  0  0
    6.8880    9.4520    5.5660 C   0  0  0  0  0  0  0  0  0  0  0  0
    8.0820    8.8990    5.1380 C   0  0  0  0  0  0  0  0  0  0  0  0
    8.4460    8.9500    3.7760 C   0  0  0  0  0  0  0  0  0  0  0  0
    9.8190    7.9170    3.3340 S   0  0  0  0  0  0  0  0  0  0  0  0
   10.2300    7.0710    4.4400 O   0  0  0  0  0  0  0  0  0  0  0  0
    9.5770    7.3560    2.0260 O   0  0  0  0  0  0  0  0  0  0  0  0
   11.1760    8.9710    3.2060 N   0  0  0  0  0  0  0  0  0  0  0  0
   11.2850   10.0620    4.2210 C   0  0  0  0  0  0  0  0  0  0  0  0
   11.8310    9.6590    5.5850 C   0  0  0  0  0  0  0  0  0  0  0  0
   13.3430    9.6550    5.7090 C   0  0  0  0  0  0  0  0  0  0  0  0
   14.0260    9.2810    4.4430 N   0  0  0  0  0  0  0  0  0  0  0  0
   13.5390    8.0540    3.7350 C   0  0  0  0  0  0  0  0  0  0  0  0
   12.4310    8.3340    2.6790 C   0  0  2  0  0  0  0  0  0  0  0  0
   12.9550    9.1060    1.4680 C   0  0  0  0  0  0  0  0  0  0  0  0
    7.6700    9.6720    2.8050 C   0  0  0  0  0  0  0  0  0  0  0  0
   10.1033    9.7952    1.5599 H   0  0  0  0  0  0  0  0  0  0  0  0
    9.3328    8.9740    0.1604 H   0  0  0  0  0  0  0  0  0  0  0  0
    9.5229   10.7602    0.1604 H   0  0  0  0  0  0  0  0  0  0  0  0
    7.2316   10.8159   -0.4016 H   0  0  0  0  0  0  0  0  0  0  0  0
    4.5615   11.0934    2.7918 H   0  0  0  0  0  0  0  0  0  0  0  0
    5.0677   10.4262    4.9580 H   0  0  0  0  0  0  0  0  0  0  0  0
    6.6113    9.4265    6.6303 H   0  0  0  0  0  0  0  0  0  0  0  0
    8.7520    8.4163    5.8647 H   0  0  0  0  0  0  0  0  0  0  0  0
   11.9477   10.8379    3.8100 H   0  0  0  0  0  0  0  0  0  0  0  0
   10.2537   10.3981    4.4041 H   0  0  0  0  0  0  0  0  0  0  0  0
   11.4318   10.3621    6.3309 H   0  0  0  0  0  0  0  0  0  0  0  0
   11.5128    8.6177    5.7416 H   0  0  0  0  0  0  0  0  0  0  0  0
   13.6738   10.6623    6.0020 H   0  0  0  0  0  0  0  0  0  0  0  0
   13.6104    8.9007    6.4637 H   0  0  0  0  0  0  0  0  0  0  0  0
   15.0380    9.1790    4.6600 H   0  0  0  0  0  0  0  0  0  0  0  0
   14.0010   10.0830    3.8020 H   0  0  0  0  0  0  0  0  0  0  0  0
   14.3938    7.5863    3.2246 H   0  0  0  0  0  0  0  0  0  0  0  0
   13.0941    7.3996    4.4991 H   0  0  0  0  0  0  0  0  0  0  0  0
   12.1347    7.3241    2.3592 H   0  0  0  0  0  0  0  0  0  0  0  0
   13.5421    9.9709    1.8105 H   0  0  0  0  0  0  0  0  0  0  0  0
   13.5931    8.4469    0.8611 H   0  0  0  0  0  0  0  0  0  0  0  0
   12.1069    9.4557    0.8611 H   0  0  0  0  0  0  0  0  0  0  0  0
  1  2  1  0
  2  3  2  0
  3  4  1  0
  4  5  2  0
  5  6  1  0
  6  7  2  0
  7  8  1  0
  8  9  2  0
  9 10  1  0
 10 11  1  0
 11 12  2  0
 11 13  2  0
 11 14  1  0
 14 15  1  0
 15 16  1  0
 16 17  1  0
 17 18  1  0
 18 19  1  0
 19 20  1  0
 20 21  1  0
 10 22  2  0
 22  2  1  0
 22  6  1  0
 20 14  1  0
  1 23  1  0
  1 24  1  0
  1 25  1  0
  3 26  1  0
  5 27  1  0
  7 28  1  0
  8 29  1  0
  9 30  1  0
 15 31  1  0
 15 32  1  0
 16 33  1  0
 16 34  1  0
 17 35  1  0
 17 36  1  0
 18 37  1  0
 18 38  1  0
 19 39  1  0
 19 40  1  0
 20 41  1  6
 21 42  1  0
 21 43  1  0
 21 44  1  0
M  CHG  1  18   1
M  END
>  <meeko>  (4) 
{"is_sidechain": [false], "free_energy": -5.716, "intermolecular_energy": -8.627, "internal_energy": 0.767}

$$$$
1q8u_ligand
     RDKit          3D

 44 46  0  0  0  0  0  0  0  0999 V2000
    7.4960    8.8660    4.2960 C   0  0  0  0  0  0  0  0  0  0  0  0
    7.5230    9.6690    3.0270 C   0  0  0  0  0  0  0  0  0  0  0  0
    6.3410   10.3580    2.7310 C   0  0  0  0  0  0  0  0  0  0  0  0
    6.1070   11.0160    1.5880 N   0  0  0  0  0  0  0  0  0  0  0  0
    7.0740   10.9480    0.6570 C   0  0  0  0  0  0  0  0  0  0  0  0
    8.3070   10.3190    0.8340 C   0  0  0  0  0  0  0  0  0  0  0  0
    9.2070   10.2900   -0.2460 C   0  0  0  0  0  0  0  0  0  0  0  0
   10.4440    9.6730   -0.1330 C   0  0  0  0  0  0  0  0  0  0  0  0
   10.8230    9.1450    1.0880 C   0  0  0  0  0  0  0  0  0  0  0  0
    9.9540    9.2160    2.1980 C   0  0  0  0  0  0  0  0  0  0  0  0
   10.7020    8.8080    3.7540 S   0  0  0  0  0  0  0  0  0  0  0  0
   10.5820    9.8980    4.7070 O   0  0  0  0  0  0  0  0  0  0  0  0
   10.3190    7.4650    4.1180 O   0  0  0  0  0  0  0  0  0  0  0  0
   12.4020    8.8080    3.4720 N   0  0  0  0  0  0  0  0  0  0  0  0
   13.1960    9.8970    4.1160 C   0  0  0  0  0  0  0  0  0  0  0  0
   13.8280    9.5640    5.4610 C   0  0  0  0  0  0  0  0  0  0  0  0
   15.1900    8.8960    5.3960 C   0  0  0  0  0  0  0  0  0  0  0  0
   15.1490    7.5630    4.7410 N   0  0  0  0  0  0  0  0  0  0  0  0
   13.8050    6.9250    4.5610 C   0  0  0  0  0  0  0  0  0  0  0  0
   13.0220    7.4490    3.3110 C   0  0  2  0  0  0  0  0  0  0  0  0
   13.8590    7.3910    2.0340 C   0  0  0  0  0  0  0  0  0  0  0  0
    8.6120    9.7170    2.0860 C   0  0  0  0  0  0  0  0  0  0  0  0
    7.5189    9.5457    5.1606 H   0  0  0  0  0  0  0  0  0  0  0  0
    6.5770    8.2623    4.3284 H   0  0  0  0  0  0  0  0  0  0  0  0
    8.3723    8.2019    4.3284 H   0  0  0  0  0  0  0  0  0  0  0  0
    5.5469   10.3592    3.4921 H   0  0  0  0  0  0  0  0  0  0  0  0
    6.8792   11.4230   -0.3158 H   0  0  0  0  0  0  0  0  0  0  0  0
    8.9250   10.7650   -1.1972 H   0  0  0  0  0  0  0  0  0  0  0  0
   11.1144    9.6045   -1.0024 H   0  0  0  0  0  0  0  0  0  0  0  0
   11.8078    8.6668    1.1946 H   0  0  0  0  0  0  0  0  0  0  0  0
   14.0052   10.1758    3.4250 H   0  0  0  0  0  0  0  0  0  0  0  0
   12.4767   10.7037    4.3207 H   0  0  0  0  0  0  0  0  0  0  0  0
   13.9371   10.5017    6.0256 H   0  0  0  0  0  0  0  0  0  0  0  0
   13.1565    8.8348    5.9378 H   0  0  0  0  0  0  0  0  0  0  0  0
   15.8727    9.5453    4.8283 H   0  0  0  0  0  0  0  0  0  0  0  0
   15.5338    8.7455    6.4300 H   0  0  0  0  0  0  0  0  0  0  0  0
   15.7630    6.9320    5.2940 H   0  0  0  0  0  0  0  0  0  0  0  0
   15.6280    7.6240    3.8330 H   0  0  0  0  0  0  0  0  0  0  0  0
   13.9476    5.8398    4.4516 H   0  0  0  0  0  0  0  0  0  0  0  0
   13.2058    7.1824    5.4468 H   0  0  0  0  0  0  0  0  0  0  0  0
   12.1815    6.7454    3.2184 H   0  0  0  0  0  0  0  0  0  0  0  0
   14.9245    7.3172    2.2970 H   0  0  0  0  0  0  0  0  0  0  0  0
   13.5654    6.5110    1.4428 H   0  0  0  0  0  0  0  0  0  0  0  0
   13.6896    8.3030    1.4428 H   0  0  0  0  0  0  0  0  0  0  0  0
  1  2  1  0
  2  3  2  0
  3  4  1  0
  4  5  2  0
  5  6  1  0
  6  7  2  0
  7  8  1  0
  8  9  2  0
  9 10  1  0
 10 11  1  0
 11 12  2  0
 11 13  2  0
 11 14  1  0
 14 15  1  0
 15 16  1  0
 16 17  1  0
 17 18  1  0
 18 19  1  0
 19 20  1  0
 20 21  1  0
 10 22  2  0
 22  2  1  0
 22  6  1  0
 20 14  1  0
  1 23  1  0
  1 24  1  0
  1 25  1  0
  3 26  1  0
  5 27  1  0
  7 28  1  0
  8 29  1  0
  9 30  1  0
 15 31  1  0
 15 32  1  0
 16 33  1  0
 16 34  1  0
 17 35  1  0
 17 36  1  0
 18 37  1  0
 18 38  1  0
 19 39  1  0
 19 40  1  0
 20 41  1  6
 21 42  1  0
 21 43  1  0
 21 44  1  0
M  CHG  1  18   1
M  END
>  <meeko>  (5) 
{"is_sidechain": [false], "free_energy": -5.547, "intermolecular_energy": -7.924, "internal_energy": 0.311}

$$$$
1q8u_ligand
     RDKit          3D

 44 46  0  0  0  0  0  0  0  0999 V2000
   11.6640   11.2270    0.6750 C   0  0  0  0  0  0  0  0  0  0  0  0
   10.3970   10.4290    0.5530 C   0  0  0  0  0  0  0  0  0  0  0  0
   10.0410   10.0690   -0.7530 C   0  0  0  0  0  0  0  0  0  0  0  0
    8.8870    9.4800   -1.0940 N   0  0  0  0  0  0  0  0  0  0  0  0
    8.0070    9.2810   -0.0990 C   0  0  0  0  0  0  0  0  0  0  0  0
    8.2460    9.5680    1.2460 C   0  0  0  0  0  0  0  0  0  0  0  0
    7.2140    9.3460    2.1730 C   0  0  0  0  0  0  0  0  0  0  0  0
    7.3890    9.6190    3.5220 C   0  0  0  0  0  0  0  0  0  0  0  0
    8.6280   10.0460    3.9650 C   0  0  0  0  0  0  0  0  0  0  0  0
    9.6930   10.2190    3.0560 C   0  0  0  0  0  0  0  0  0  0  0  0
   11.2850   10.4370    3.8070 S   0  0  0  0  0  0  0  0  0  0  0  0
   11.9410   11.6420    3.3300 O   0  0  0  0  0  0  0  0  0  0  0  0
   11.1750   10.1680    5.2200 O   0  0  0  0  0  0  0  0  0  0  0  0
   12.2970    9.2230    3.1210 N   0  0  0  0  0  0  0  0  0  0  0  0
   13.7100    9.6060    2.8240 C   0  0  0  0  0  0  0  0  0  0  0  0
   14.3840    8.8550    1.6830 C   0  0  0  0  0  0  0  0  0  0  0  0
   14.9960    7.5160    2.0530 C   0  0  0  0  0  0  0  0  0  0  0  0
   13.9970    6.5480    2.5730 N   0  0  0  0  0  0  0  0  0  0  0  0
   13.2640    6.9200    3.8250 C   0  0  0  0  0  0  0  0  0  0  0  0
   11.9980    7.8180    3.5650 C   0  0  2  0  0  0  0  0  0  0  0  0
   11.0000    7.1580    2.6140 C   0  0  0  0  0  0  0  0  0  0  0  0
    9.5120   10.0850    1.6360 C   0  0  0  0  0  0  0  0  0  0  0  0
   11.9020   11.3769    1.7384 H   0  0  0  0  0  0  0  0  0  0  0  0
   12.4875   10.6842    0.1879 H   0  0  0  0  0  0  0  0  0  0  0  0
   11.5302   12.2042    0.1879 H   0  0  0  0  0  0  0  0  0  0  0  0
   10.7606   10.2854   -1.5563 H   0  0  0  0  0  0  0  0  0  0  0  0
    7.0254    8.8608   -0.3636 H   0  0  0  0  0  0  0  0  0  0  0  0
    6.2499    8.9486    1.8230 H   0  0  0  0  0  0  0  0  0  0  0  0
    6.5549    9.4977    4.2288 H   0  0  0  0  0  0  0  0  0  0  0  0
    8.7840   10.2522    5.0342 H   0  0  0  0  0  0  0  0  0  0  0  0
   13.7221   10.6772    2.5743 H   0  0  0  0  0  0  0  0  0  0  0  0
   14.2819    9.3454    3.7268 H   0  0  0  0  0  0  0  0  0  0  0  0
   13.6303    8.6787    0.9015 H   0  0  0  0  0  0  0  0  0  0  0  0
   15.2211    9.4897    1.3568 H   0  0  0  0  0  0  0  0  0  0  0  0
   15.4679    7.0862    1.1571 H   0  0  0  0  0  0  0  0  0  0  0  0
   15.7278    7.6975    2.8540 H   0  0  0  0  0  0  0  0  0  0  0  0
   14.4930    5.6440    2.7160 H   0  0  0  0  0  0  0  0  0  0  0  0
   13.3230    6.3320    1.8280 H   0  0  0  0  0  0  0  0  0  0  0  0
   12.9392    5.9963    4.3264 H   0  0  0  0  0  0  0  0  0  0  0  0
   13.9573    7.5079    4.4445 H   0  0  0  0  0  0  0  0  0  0  0  0
   11.5352    7.9078    4.5589 H   0  0  0  0  0  0  0  0  0  0  0  0
   10.2223    6.6437    3.1977 H   0  0  0  0  0  0  0  0  0  0  0  0
   10.5343    7.9268    1.9799 H   0  0  0  0  0  0  0  0  0  0  0  0
   11.5251    6.4285    1.9799 H   0  0  0  0  0  0  0  0  0  0  0  0
  1  2  1  0
  2  3  2  0
  3  4  1  0
  4  5  2  0
  5  6  1  0
  6  7  2  0
  7  8  1  0
  8  9  2  0
  9 10  1  0
 10 11  1  0
 11 12  2  0
 11 13  2  0
 11 14  1  0
 14 15  1  0
 15 16  1  0
 16 17  1  0
 17 18  1  0
 18 19  1  0
 19 20  1  0
 20 21  1  0
 10 22  2  0
 22  2  1  0
 22  6  1  0
 20 14  1  0
  1 23  1  0
  1 24  1  0
  1 25  1  0
  3 26  1  0
  5 27  1  0
  7 28  1  0
  8 29  1  0
  9 30  1  0
 15 31  1  0
 15 32  1  0
 16 33  1  0
 16 34  1  0
 17 35  1  0
 17 36  1  0
 18 37  1  0
 18 38  1  0
 19 39  1  0
 19 40  1  0
 20 41  1  1
 21 42  1  0
 21 43  1  0
 21 44  1  0
M  CHG  1  18   1
M  END
>  <meeko>  (6) 
{"is_sidechain": [false], "free_energy": -5.463, "intermolecular_energy": -8.727, "internal_energy": 1.238}

$$$$
1q8u_ligand
     RDKit          3D

 44 46  0  0  0  0  0  0  0  0999 V2000
   14.6780    7.4290    2.5520 C   0  0  0  0  0  0  0  0  0  0  0  0
   14.8630    8.4900    1.5050 C   0  0  0  0  0  0  0  0  0  0  0  0
   15.9740    8.3170    0.6700 C   0  0  0  0  0  0  0  0  0  0  0  0
   16.3960    9.2130   -0.2330 N   0  0  0  0  0  0  0  0  0  0  0  0
   15.7170   10.3710   -0.2800 C   0  0  0  0  0  0  0  0  0  0  0  0
   14.5800   10.6590    0.4760 C   0  0  0  0  0  0  0  0  0  0  0  0
   13.9970   11.9320    0.3530 C   0  0  0  0  0  0  0  0  0  0  0  0
   12.8700   12.2800    1.0830 C   0  0  0  0  0  0  0  0  0  0  0  0
   12.2710   11.3270    1.8880 C   0  0  0  0  0  0  0  0  0  0  0  0
   12.8100   10.0270    1.9790 C   0  0  0  0  0  0  0  0  0  0  0  0
   11.7560    8.8380    2.7690 S   0  0  0  0  0  0  0  0  0  0  0  0
   11.5340    7.6760    1.9260 O   0  0  0  0  0  0  0  0  0  0  0  0
   12.1730    8.6850    4.1420 O   0  0  0  0  0  0  0  0  0  0  0  0
   10.1820    9.5400    2.7770 N   0  0  0  0  0  0  0  0  0  0  0  0
    9.3680    9.3930    1.5330 C   0  0  0  0  0  0  0  0  0  0  0  0
    8.1600   10.3120    1.4090 C   0  0  0  0  0  0  0  0  0  0  0  0
    6.8890    9.8160    2.0750 C   0  0  0  0  0  0  0  0  0  0  0  0
    7.0060    9.7360    3.5540 N   0  0  0  0  0  0  0  0  0  0  0  0
    8.0840    8.8580    4.1130 C   0  0  0  0  0  0  0  0  0  0  0  0
    9.4880    9.5350    4.1100 C   0  0  2  0  0  0  0  0  0  0  0  0
    9.4870   10.9370    4.7180 C   0  0  0  0  0  0  0  0  0  0  0  0
   14.0530    9.6710    1.3520 C   0  0  0  0  0  0  0  0  0  0  0  0
   14.7570    7.8822    3.5512 H   0  0  0  0  0  0  0  0  0  0  0  0
   13.6860    6.9682    2.4358 H   0  0  0  0  0  0  0  0  0  0  0  0
   15.4555    6.6596    2.4358 H   0  0  0  0  0  0  0  0  0  0  0  0
   16.5407    7.3787    0.7619 H   0  0  0  0  0  0  0  0  0  0  0  0
   16.0842   11.1496   -0.9648 H   0  0  0  0  0  0  0  0  0  0  0  0
   14.4426   12.6658   -0.3348 H   0  0  0  0  0  0  0  0  0  0  0  0
   12.4585   13.2984    1.0229 H   0  0  0  0  0  0  0  0  0  0  0  0
   11.3682   11.5853    2.4609 H   0  0  0  0  0  0  0  0  0  0  0  0
   10.0279    9.5881    0.6748 H   0  0  0  0  0  0  0  0  0  0  0  0
    8.9598    8.3721    1.5665 H   0  0  0  0  0  0  0  0  0  0  0  0
    8.4232   11.2801    1.8602 H   0  0  0  0  0  0  0  0  0  0  0  0
    7.9343   10.3699    0.3340 H   0  0  0  0  0  0  0  0  0  0  0  0
    6.0691   10.5052    1.8243 H   0  0  0  0  0  0  0  0  0  0  0  0
    6.6961    8.7989    1.7031 H   0  0  0  0  0  0  0  0  0  0  0  0
    6.0820    9.4260    3.9170 H   0  0  0  0  0  0  0  0  0  0  0  0
    7.1030   10.6870    3.9320 H   0  0  0  0  0  0  0  0  0  0  0  0
    7.8223    8.5995    5.1497 H   0  0  0  0  0  0  0  0  0  0  0  0
    8.1481    7.9679    3.4698 H   0  0  0  0  0  0  0  0  0  0  0  0
   10.0800    8.8799    4.7661 H   0  0  0  0  0  0  0  0  0  0  0  0
    9.4871   10.8608    5.8154 H   0  0  0  0  0  0  0  0  0  0  0  0
   10.3848   11.4803    4.3881 H   0  0  0  0  0  0  0  0  0  0  0  0
    8.5885   11.4791    4.3881 H   0  0  0  0  0  0  0  0  0  0  0  0
  1  2  1  0
  2  3  2  0
  3  4  1  0
  4  5  2  0
  5  6  1  0
  6  7  2  0
  7  8  1  0
  8  9  2  0
  9 10  1  0
 10 11  1  0
 11 12  2  0
 11 13  2  0
 11 14  1  0
 14 15  1  0
 15 16  1  0
 16 17  1  0
 17 18  1  0
 18 19  1  0
 19 20  1  0
 20 21  1  0
 10 22  2  0
 22  2  1  0
 22  6  1  0
 20 14  1  0
  1 23  1  0
  1 24  1  0
  1 25  1  0
  3 26  1  0
  5 27  1  0
  7 28  1  0
  8 29  1  0
  9 30  1  0
 15 31  1  0
 15 32  1  0
 16 33  1  0
 16 34  1  0
 17 35  1  0
 17 36  1  0
 18 37  1  0
 18 38  1  0
 19 39  1  0
 19 40  1  0
 20 41  1  1
 21 42  1  0
 21 43  1  0
 21 44  1  0
M  CHG  1  18   1
M  END
>  <meeko>  (7) 
{"is_sidechain": [false], "free_energy": -5.336, "intermolecular_energy": -7.739, "internal_energy": 0.437}

$$$$
1q8u_ligand
     RDKit          3D

 44 46  0  0  0  0  0  0  0  0999 V2000
    9.3250   10.0140    5.9280 C   0  0  0  0  0  0  0  0  0  0  0  0
    8.2090   10.1510    4.9320 C   0  0  0  0  0  0  0  0  0  0  0  0
    6.9290   10.2860    5.4840 C   0  0  0  0  0  0  0  0  0  0  0  0
    5.7900   10.2830    4.7790 N   0  0  0  0  0  0  0  0  0  0  0  0
    5.9130   10.0810    3.4560 C   0  0  0  0  0  0  0  0  0  0  0  0
    7.1260    9.9590    2.7780 C   0  0  0  0  0  0  0  0  0  0  0  0
    7.1010    9.7080    1.3960 C   0  0  0  0  0  0  0  0  0  0  0  0
    8.2740    9.5690    0.6690 C   0  0  0  0  0  0  0  0  0  0  0  0
    9.4860    9.7570    1.3080 C   0  0  0  0  0  0  0  0  0  0  0  0
    9.5290   10.0670    2.6840 C   0  0  0  0  0  0  0  0  0  0  0  0
   11.1120   10.6070    3.2760 S   0  0  0  0  0  0  0  0  0  0  0  0
   12.1080   10.6050    2.2190 O   0  0  0  0  0  0  0  0  0  0  0  0
   10.9250   11.7680    4.1120 O   0  0  0  0  0  0  0  0  0  0  0  0
   11.6970    9.3320    4.2770 N   0  0  0  0  0  0  0  0  0  0  0  0
   11.4360    7.9350    3.8190 C   0  0  0  0  0  0  0  0  0  0  0  0
   12.0970    7.5220    2.5100 C   0  0  0  0  0  0  0  0  0  0  0  0
   13.6040    7.3510    2.5660 C   0  0  0  0  0  0  0  0  0  0  0  0
   14.3000    8.5370    3.1290 N   0  0  0  0  0  0  0  0  0  0  0  0
   14.1940    8.7590    4.6070 C   0  0  0  0  0  0  0  0  0  0  0  0
   12.9720    9.6330    5.0140 C   0  0  2  0  0  0  0  0  0  0  0  0
   12.7270    9.6540    6.5220 C   0  0  0  0  0  0  0  0  0  0  0  0
    8.3460   10.0780    3.5000 C   0  0  0  0  0  0  0  0  0  0  0  0
    8.9149   10.0643    6.9474 H   0  0  0  0  0  0  0  0  0  0  0  0
    9.8293    9.0472    5.7830 H   0  0  0  0  0  0  0  0  0  0  0  0
   10.0481   10.8301    5.7830 H   0  0  0  0  0  0  0  0  0  0  0  0
    6.8535   10.4029    6.5752 H   0  0  0  0  0  0  0  0  0  0  0  0
    4.9889   10.0064    2.8641 H   0  0  0  0  0  0  0  0  0  0  0  0
    6.1331    9.6201    0.8808 H   0  0  0  0  0  0  0  0  0  0  0  0
    8.2408    9.3130   -0.4003 H   0  0  0  0  0  0  0  0  0  0  0  0
   10.4232    9.6642    0.7396 H   0  0  0  0  0  0  0  0  0  0  0  0
   11.7917    7.2522    4.6047 H   0  0  0  0  0  0  0  0  0  0  0  0
   10.3534    7.8841    3.6311 H   0  0  0  0  0  0  0  0  0  0  0  0
   11.6583    6.5633    2.1962 H   0  0  0  0  0  0  0  0  0  0  0  0
   11.9119    8.3455    1.8046 H   0  0  0  0  0  0  0  0  0  0  0  0
   13.8351    6.4777    3.1937 H   0  0  0  0  0  0  0  0  0  0  0  0
   13.9598    7.2187    1.5336 H   0  0  0  0  0  0  0  0  0  0  0  0
   13.9380    9.3710    2.6250 H   0  0  0  0  0  0  0  0  0  0  0  0
   15.2900    8.5040    2.8530 H   0  0  0  0  0  0  0  0  0  0  0  0
   14.1030    7.7804    5.1011 H   0  0  0  0  0  0  0  0  0  0  0  0
   15.0992    9.2999    4.9202 H   0  0  0  0  0  0  0  0  0  0  0  0
   13.2735   10.6422    4.6967 H   0  0  0  0  0  0  0  0  0  0  0  0
   13.6880    9.5716    7.0508 H   0  0  0  0  0  0  0  0  0  0  0  0
   12.2350   10.5976    6.8004 H   0  0  0  0  0  0  0  0  0  0  0  0
   12.0816    8.8079    6.8004 H   0  0  0  0  0  0  0  0  0  0  0  0
  1  2  1  0
  2  3  2  0
  3  4  1  0
  4  5  2  0
  5  6  1  0
  6  7  2  0
  7  8  1  0
  8  9  2  0
  9 10  1  0
 10 11  1  0
 11 12  2  0
 11 13  2  0
 11 14  1  0
 14 15  1  0
 15 16  1  0
 16 17  1  0
 17 18  1  0
 18 19  1  0
 19 20  1  0
 20 21  1  0
 10 22  2  0
 22  2  1  0
 22  6  1  0
 20 14  1  0
  1 23  1  0
  1 24  1  0
  1 25  1  0
  3 26  1  0
  5 27  1  0
  7 28  1  0
  8 29  1  0
  9 30  1  0
 15 31  1  0
 15 32  1  0
 16 33  1  0
 16 34  1  0
 17 35  1  0
 17 36  1  0
 18 37  1  0
 18 38  1  0
 19 39  1  0
 19 40  1  0
 20 41  1  6
 21 42  1  0
 21 43  1  0
 21 44  1  0
M  CHG  1  18   1
M  END
>  <meeko>  (8) 
{"is_sidechain": [false], "free_energy": -5.336, "intermolecular_energy": -8.033, "internal_energy": 0.731}

$$$$
1q8u_ligand
     RDKit          3D

 44 46  0  0  0  0  0  0  0  0999 V2000
    9.8870    9.3210    0.8220 C   0  0  0  0  0  0  0  0  0  0  0  0
    8.6900    9.4810    1.7160 C   0  0  0  0  0  0  0  0  0  0  0  0
    7.4510    9.4480    1.0650 C   0  0  0  0  0  0  0  0  0  0  0  0
    6.2740    9.7070    1.6520 N   0  0  0  0  0  0  0  0  0  0  0  0
    6.3250   10.0730    2.9430 C   0  0  0  0  0  0  0  0  0  0  0  0
    7.4870   10.1190    3.7140 C   0  0  0  0  0  0  0  0  0  0  0  0
    7.3940   10.5620    5.0440 C   0  0  0  0  0  0  0  0  0  0  0  0
    8.5160   10.6380    5.8570 C   0  0  0  0  0  0  0  0  0  0  0  0
    9.7320   10.1960    5.3660 C   0  0  0  0  0  0  0  0  0  0  0  0
    9.8330    9.6950    4.0510 C   0  0  0  0  0  0  0  0  0  0  0  0
   11.3570    8.8640    3.6860 S   0  0  0  0  0  0  0  0  0  0  0  0
   12.2400    8.8360    4.8390 O   0  0  0  0  0  0  0  0  0  0  0  0
   11.0650    7.6560    2.9510 O   0  0  0  0  0  0  0  0  0  0  0  0
   12.2260    9.9170    2.6350 N   0  0  0  0  0  0  0  0  0  0  0  0
   11.9490   11.3800    2.7610 C   0  0  0  0  0  0  0  0  0  0  0  0
   12.5820   12.2770    1.7050 C   0  0  0  0  0  0  0  0  0  0  0  0
   12.4450   11.7960    0.2720 C   0  0  0  0  0  0  0  0  0  0  0  0
   13.2110   10.5520    0.0050 N   0  0  0  0  0  0  0  0  0  0  0  0
   14.2310   10.1390    1.0220 C   0  0  0  0  0  0  0  0  0  0  0  0
   13.6140    9.4640    2.2810 C   0  0  2  0  0  0  0  0  0  0  0  0
   13.6760    7.9380    2.2090 C   0  0  0  0  0  0  0  0  0  0  0  0
    8.7270    9.7330    3.1330 C   0  0  0  0  0  0  0  0  0  0  0  0
   10.7907    9.2002    1.4374 H   0  0  0  0  0  0  0  0  0  0  0  0
    9.7543    8.4326    0.1871 H   0  0  0  0  0  0  0  0  0  0  0  0
    9.9923   10.2131    0.1871 H   0  0  0  0  0  0  0  0  0  0  0  0
    7.4427    9.1912   -0.0046 H   0  0  0  0  0  0  0  0  0  0  0  0
    5.3802   10.3578    3.4290 H   0  0  0  0  0  0  0  0  0  0  0  0
    6.4136   10.8540    5.4484 H   0  0  0  0  0  0  0  0  0  0  0  0
    8.4400   11.0436    6.8767 H   0  0  0  0  0  0  0  0  0  0  0  0
   10.6261   10.2356    6.0055 H   0  0  0  0  0  0  0  0  0  0  0  0
   10.8592   11.5208    2.7117 H   0  0  0  0  0  0  0  0  0  0  0  0
   12.4018   11.6845    3.7161 H   0  0  0  0  0  0  0  0  0  0  0  0
   12.1112   13.2686    1.7762 H   0  0  0  0  0  0  0  0  0  0  0  0
   13.6607   12.2820    1.9201 H   0  0  0  0  0  0  0  0  0  0  0  0
   11.3815   11.6046    0.0660 H   0  0  0  0  0  0  0  0  0  0  0  0
   12.8530   12.5818   -0.3807 H   0  0  0  0  0  0  0  0  0  0  0  0
   13.6710   10.6690   -0.9210 H   0  0  0  0  0  0  0  0  0  0  0  0
   12.5500    9.7810   -0.1550 H   0  0  0  0  0  0  0  0  0  0  0  0
   14.9248    9.4276    0.5503 H   0  0  0  0  0  0  0  0  0  0  0  0
   14.7386   11.0540    1.3613 H   0  0  0  0  0  0  0  0  0  0  0  0
   14.2582    9.8117    3.1021 H   0  0  0  0  0  0  0  0  0  0  0  0
   13.6929    7.5232    3.2277 H   0  0  0  0  0  0  0  0  0  0  0  0
   12.7925    7.5600    1.6738 H   0  0  0  0  0  0  0  0  0  0  0  0
   14.5873    7.6329    1.6738 H   0  0  0  0  0  0  0  0  0  0  0  0
  1  2  1  0
  2  3  2  0
  3  4  1  0
  4  5  2  0
  5  6  1  0
  6  7  2  0
  7  8  1  0
  8  9  2  0
  9 10  1  0
 10 11  1  0
 11 12  2  0
 11 13  2  0
 11 14  1  0
 14 15  1  0
 15 16  1  0
 16 17  1  0
 17 18  1  0
 18 19  1  0
 19 20  1  0
 20 21  1  0
 10 22  2  0
 22  2  1  0
 22  6  1  0
 20 14  1  0
  1 23  1  0
  1 24  1  0
  1 25  1  0
  3 26  1  0
  5 27  1  0
  7 28  1  0
  8 29  1  0
  9 30  1  0
 15 31  1  0
 15 32  1  0
 16 33  1  0
 16 34  1  0
 17 35  1  0
 17 36  1  0
 18 37  1  0
 18 38  1  0
 19 39  1  0
 19 40  1  0
 20 41  1  1
 21 42  1  0
 21 43  1  0
 21 44  1  0
M  CHG  1  18   1
M  END
>  <meeko>  (9) 
{"is_sidechain": [false], "free_energy": -5.265, "intermolecular_energy": -8.763, "internal_energy": 1.565}

$$$$
