3e93_ligand
     RDKit          3D

 70 75  0  0  0  0  0  0  0  0999 V2000
   39.7790   32.8370   30.5350 C   0  0  0  0  0  0  0  0  0  0  0  0
   39.9600   32.1080   31.8430 C   0  0  0  0  0  0  0  0  0  0  0  0
   38.8330   31.5320   32.4550 C   0  0  0  0  0  0  0  0  0  0  0  0
   38.9460   30.8400   33.6630 C   0  0  0  0  0  0  0  0  0  0  0  0
   40.1920   30.7300   34.2850 C   0  0  0  0  0  0  0  0  0  0  0  0
   40.3750   29.9900   35.5660 C   0  0  0  0  0  0  0  0  0  0  0  0
   41.3540   30.2650   36.2510 O   0  0  0  0  0  0  0  0  0  0  0  0
   39.3730   29.0850   35.8650 N   0  0  0  0  0  0  0  0  0  0  0  0
   39.3050   28.2150   36.9760 C   0  0  0  0  0  0  0  0  0  0  0  0
   39.7230   28.7220   38.2060 C   0  0  0  0  0  0  0  0  0  0  0  0
   39.6790   27.9210   39.3430 C   0  0  0  0  0  0  0  0  0  0  0  0
   39.2100   26.6080   39.2550 C   0  0  0  0  0  0  0  0  0  0  0  0
   38.7720   26.0580   38.0410 C   0  0  0  0  0  0  0  0  0  0  0  0
   38.3080   24.7550   37.9600 N   0  0  0  0  0  0  0  0  0  0  0  0
   39.1800   23.5950   38.2040 C   0  0  0  0  0  0  0  0  0  0  0  0
   38.3540   22.4160   38.7490 C   0  0  0  0  0  0  0  0  0  0  0  0
   37.2960   21.9890   37.8790 O   0  0  0  0  0  0  0  0  0  0  0  0
   36.7700   23.0480   37.0660 C   0  0  0  0  0  0  0  0  0  0  0  0
   36.8930   24.4450   37.6950 C   0  0  0  0  0  0  0  0  0  0  0  0
   38.8320   26.8960   36.9110 C   0  0  0  0  0  0  0  0  0  0  0  0
   41.3200   31.2970   33.6790 C   0  0  0  0  0  0  0  0  0  0  0  0
   41.2240   31.9960   32.4630 C   0  0  0  0  0  0  0  0  0  0  0  0
   42.4490   32.5700   31.8800 C   0  0  0  0  0  0  0  0  0  0  0  0
   43.2020   31.8260   30.9520 C   0  0  0  0  0  0  0  0  0  0  0  0
   44.3910   32.3220   30.3900 C   0  0  0  0  0  0  0  0  0  0  0  0
   44.8260   33.5970   30.7780 C   0  0  0  0  0  0  0  0  0  0  0  0
   45.9160   34.4620   30.4990 C   0  0  0  0  0  0  0  0  0  0  0  0
   47.0880   34.2340   29.5930 C   0  0  0  0  0  0  0  0  0  0  0  0
   48.0140   33.1380   30.1520 C   0  0  0  0  0  0  0  0  0  0  0  0
   49.2460   32.9450   29.2860 C   0  0  0  0  0  0  0  0  0  0  0  0
   49.9410   34.2540   29.1220 N   0  0  0  0  0  0  0  0  0  0  0  0
   49.0980   35.3090   28.4900 C   0  0  0  0  0  0  0  0  0  0  0  0
   47.8640   35.5400   29.3420 C   0  0  0  0  0  0  0  0  0  0  0  0
   45.8220   35.6100   31.1830 N   0  0  0  0  0  0  0  0  0  0  0  0
   44.6600   35.5100   31.9300 O   0  0  0  0  0  0  0  0  0  0  0  0
   44.0670   34.3100   31.6900 C   0  0  0  0  0  0  0  0  0  0  0  0
   42.8860   33.8480   32.2660 C   0  0  0  0  0  0  0  0  0  0  0  0
   39.5183   33.8871   30.7335 H   0  0  0  0  0  0  0  0  0  0  0  0
   40.7150   32.7942   29.9588 H   0  0  0  0  0  0  0  0  0  0  0  0
   38.9717   32.3614   29.9588 H   0  0  0  0  0  0  0  0  0  0  0  0
   37.8477   31.6277   31.9754 H   0  0  0  0  0  0  0  0  0  0  0  0
   38.0572   30.3833   34.1229 H   0  0  0  0  0  0  0  0  0  0  0  0
   38.5570   29.0870   35.2680 H   0  0  0  0  0  0  0  0  0  0  0  0
   40.0882   29.7571   38.2776 H   0  0  0  0  0  0  0  0  0  0  0  0
   40.0136   28.3217   40.3112 H   0  0  0  0  0  0  0  0  0  0  0  0
   39.1834   25.9879   40.1632 H   0  0  0  0  0  0  0  0  0  0  0  0
   39.6608   23.2968   37.2607 H   0  0  0  0  0  0  0  0  0  0  0  0
   39.9456   23.8702   38.9444 H   0  0  0  0  0  0  0  0  0  0  0  0
   39.0321   21.5652   38.9113 H   0  0  0  0  0  0  0  0  0  0  0  0
   37.8790   22.7646   39.6779 H   0  0  0  0  0  0  0  0  0  0  0  0
   37.3133   23.0512   36.1096 H   0  0  0  0  0  0  0  0  0  0  0  0
   35.6949   22.8493   36.9445 H   0  0  0  0  0  0  0  0  0  0  0  0
   36.4794   25.1937   37.0033 H   0  0  0  0  0  0  0  0  0  0  0  0
   36.3353   24.4647   38.6429 H   0  0  0  0  0  0  0  0  0  0  0  0
   38.4953   26.5015   35.9409 H   0  0  0  0  0  0  0  0  0  0  0  0
   42.3016   31.1933   34.1645 H   0  0  0  0  0  0  0  0  0  0  0  0
   42.8493   30.8265   30.6579 H   0  0  0  0  0  0  0  0  0  0  0  0
   44.9648   31.7258   29.6652 H   0  0  0  0  0  0  0  0  0  0  0  0
   46.6987   33.8866   28.6246 H   0  0  0  0  0  0  0  0  0  0  0  0
   48.3324   33.4236   31.1654 H   0  0  0  0  0  0  0  0  0  0  0  0
   47.4539   32.1914   30.1656 H   0  0  0  0  0  0  0  0  0  0  0  0
   49.9250   32.2259   29.7675 H   0  0  0  0  0  0  0  0  0  0  0  0
   48.9475   32.5594   28.3000 H   0  0  0  0  0  0  0  0  0  0  0  0
   50.2740   34.5840   30.0420 H   0  0  0  0  0  0  0  0  0  0  0  0
   50.7930   34.1180   28.5600 H   0  0  0  0  0  0  0  0  0  0  0  0
   49.6733   36.2435   28.4151 H   0  0  0  0  0  0  0  0  0  0  0  0
   48.7959   34.9859   27.4828 H   0  0  0  0  0  0  0  0  0  0  0  0
   48.1736   35.9615   30.3097 H   0  0  0  0  0  0  0  0  0  0  0  0
   47.2013   36.2324   28.8022 H   0  0  0  0  0  0  0  0  0  0  0  0
   42.3220   34.4554   32.9892 H   0  0  0  0  0  0  0  0  0  0  0  0
  1  2  1  0
  2  3  2  0
  3  4  1  0
  4  5  2  0
  5  6  1  0
  6  7  2  0
  6  8  1  0
  8  9  1  0
  9 10  2  0
 10 11  1  0
 11 12  2  0
 12 13  1  0
 13 14  1  0
 14 15  1  0
 15 16  1  0
 16 17  1  0
 17 18  1  0
 18 19  1  0
 13 20  2  0
  5 21  1  0
 21 22  2  0
 22 23  1  0
 23 24  2  0
 24 25  1  0
 25 26  2  0
 26 27  1  0
 27 28  1  0
 28 29  1  0
 29 30  1  0
 30 31  1  0
 31 32  1  0
 32 33  1  0
 27 34  2  0
 34 35  1  0
 35 36  1  0
 36 37  2  0
 22  2  1  0
 37 23  1  0
 20  9  1  0
 36 26  1  0
 19 14  1  0
 33 28  1  0
  1 38  1  0
  1 39  1  0
  1 40  1  0
  3 41  1  0
  4 42  1  0
  8 43  1  0
 10 44  1  0
 11 45  1  0
 12 46  1  0
 15 47  1  0
 15 48  1  0
 16 49  1  0
 16 50  1  0
 18 51  1  0
 18 52  1  0
 19 53  1  0
 19 54  1  0
 20 55  1  0
 21 56  1  0
 24 57  1  0
 25 58  1  0
 28 59  1  0
 29 60  1  0
 29 61  1  0
 30 62  1  0
 30 63  1  0
 31 64  1  0
 31 65  1  0
 32 66  1  0
 32 67  1  0
 33 68  1  0
 33 69  1  0
 37 70  1  0
M  CHG  1  31   1
M  END
>  <meeko>  (1) 
{"is_sidechain": [false], "free_energy": -13.513, "intermolecular_energy": -17.463, "internal_energy": -0.929}

$$$$
3e93_ligand
     RDKit          3D

 70 75  0  0  0  0  0  0  0  0999 V2000
   39.9280   32.9720   30.1690 C   0  0  0  0  0  0  0  0  0  0  0  0
   39.9840   32.2290   31.4800 C   0  0  0  0  0  0  0  0  0  0  0  0
   38.7920   31.7070   32.0120 C   0  0  0  0  0  0  0  0  0  0  0  0
   38.7890   31.0060   33.2200 C   0  0  0  0  0  0  0  0  0  0  0  0
   39.9840   30.8310   33.9220 C   0  0  0  0  0  0  0  0  0  0  0  0
   40.0440   30.0770   35.2070 C   0  0  0  0  0  0  0  0  0  0  0  0
   40.6030   30.6110   36.1570 O   0  0  0  0  0  0  0  0  0  0  0  0
   39.4090   28.8480   35.1920 N   0  0  0  0  0  0  0  0  0  0  0  0
   39.3460   27.9020   36.2390 C   0  0  0  0  0  0  0  0  0  0  0  0
   39.1450   26.5690   35.8790 C   0  0  0  0  0  0  0  0  0  0  0  0
   39.0780   25.5840   36.8590 C   0  0  0  0  0  0  0  0  0  0  0  0
   39.2150   25.9270   38.2060 C   0  0  0  0  0  0  0  0  0  0  0  0
   39.4270   27.2530   38.6150 C   0  0  0  0  0  0  0  0  0  0  0  0
   39.5620   27.5870   39.9520 N   0  0  0  0  0  0  0  0  0  0  0  0
   39.4810   26.5840   41.0250 C   0  0  0  0  0  0  0  0  0  0  0  0
   40.3300   27.0250   42.2300 C   0  0  0  0  0  0  0  0  0  0  0  0
   39.9450   28.2890   42.7880 O   0  0  0  0  0  0  0  0  0  0  0  0
   39.3710   29.1820   41.8230 C   0  0  0  0  0  0  0  0  0  0  0  0
   39.8690   28.9610   40.3850 C   0  0  0  0  0  0  0  0  0  0  0  0
   39.4890   28.2240   37.5960 C   0  0  0  0  0  0  0  0  0  0  0  0
   41.1770   31.3430   33.3970 C   0  0  0  0  0  0  0  0  0  0  0  0
   41.1970   32.0510   32.1820 C   0  0  0  0  0  0  0  0  0  0  0  0
   42.4850   32.5660   31.6870 C   0  0  0  0  0  0  0  0  0  0  0  0
   43.2770   31.7750   30.8320 C   0  0  0  0  0  0  0  0  0  0  0  0
   44.5240   32.2130   30.3550 C   0  0  0  0  0  0  0  0  0  0  0  0
   44.9790   33.4780   30.7540 C   0  0  0  0  0  0  0  0  0  0  0  0
   46.1220   34.2940   30.5460 C   0  0  0  0  0  0  0  0  0  0  0  0
   47.3490   34.0040   29.7380 C   0  0  0  0  0  0  0  0  0  0  0  0
   48.2390   32.9600   30.4380 C   0  0  0  0  0  0  0  0  0  0  0  0
   49.5240   32.7080   29.6710 C   0  0  0  0  0  0  0  0  0  0  0  0
   50.2270   34.0030   29.4500 N   0  0  0  0  0  0  0  0  0  0  0  0
   49.4240   35.0000   28.6840 C   0  0  0  0  0  0  0  0  0  0  0  0
   48.1380   35.2900   29.4360 C   0  0  0  0  0  0  0  0  0  0  0  0
   46.0220   35.4580   31.2020 N   0  0  0  0  0  0  0  0  0  0  0  0
   44.8030   35.4180   31.8590 O   0  0  0  0  0  0  0  0  0  0  0  0
   44.1820   34.2370   31.5930 C   0  0  0  0  0  0  0  0  0  0  0  0
   42.9430   33.8340   32.0840 C   0  0  0  0  0  0  0  0  0  0  0  0
   39.8466   34.0518   30.3627 H   0  0  0  0  0  0  0  0  0  0  0  0
   40.8439   32.7706   29.5940 H   0  0  0  0  0  0  0  0  0  0  0  0
   39.0527   32.6356   29.5940 H   0  0  0  0  0  0  0  0  0  0  0  0
   37.8469   31.8529   31.4684 H   0  0  0  0  0  0  0  0  0  0  0  0
   37.8497   30.5935   33.6169 H   0  0  0  0  0  0  0  0  0  0  0  0
   38.8650   28.6200   34.3710 H   0  0  0  0  0  0  0  0  0  0  0  0
   39.0393   26.2966   34.8185 H   0  0  0  0  0  0  0  0  0  0  0  0
   38.9170   24.5341   36.5729 H   0  0  0  0  0  0  0  0  0  0  0  0
   39.1551   25.1358   38.9678 H   0  0  0  0  0  0  0  0  0  0  0  0
   38.4330   26.4729   41.3401 H   0  0  0  0  0  0  0  0  0  0  0  0
   39.8638   25.6240   40.6485 H   0  0  0  0  0  0  0  0  0  0  0  0
   40.2396   26.2594   43.0146 H   0  0  0  0  0  0  0  0  0  0  0  0
   41.3613   27.1409   41.8653 H   0  0  0  0  0  0  0  0  0  0  0  0
   38.2794   29.0470   41.8346 H   0  0  0  0  0  0  0  0  0  0  0  0
   39.6779   30.1983   42.1111 H   0  0  0  0  0  0  0  0  0  0  0  0
   39.3704   29.6749   39.7129 H   0  0  0  0  0  0  0  0  0  0  0  0
   40.9576   29.1157   40.3517 H   0  0  0  0  0  0  0  0  0  0  0  0
   39.6559   29.2747   37.8758 H   0  0  0  0  0  0  0  0  0  0  0  0
   42.1175   31.1883   33.9461 H   0  0  0  0  0  0  0  0  0  0  0  0
   42.9081   30.7842   30.5285 H   0  0  0  0  0  0  0  0  0  0  0  0
   45.1270   31.5807   29.6867 H   0  0  0  0  0  0  0  0  0  0  0  0
   47.0222   33.5804   28.7769 H   0  0  0  0  0  0  0  0  0  0  0  0
   48.4912   33.3249   31.4446 H   0  0  0  0  0  0  0  0  0  0  0  0
   47.6803   32.0138   30.4883 H   0  0  0  0  0  0  0  0  0  0  0  0
   50.1711   32.0326   30.2499 H   0  0  0  0  0  0  0  0  0  0  0  0
   49.2897   32.2454   28.7009 H   0  0  0  0  0  0  0  0  0  0  0  0
   50.5000   34.4070   30.3600 H   0  0  0  0  0  0  0  0  0  0  0  0
   51.1130   33.8290   28.9550 H   0  0  0  0  0  0  0  0  0  0  0  0
   50.0018   35.9292   28.5715 H   0  0  0  0  0  0  0  0  0  0  0  0
   49.1866   34.5965   27.6886 H   0  0  0  0  0  0  0  0  0  0  0  0
   48.3854   35.7870   30.3856 H   0  0  0  0  0  0  0  0  0  0  0  0
   47.5105   35.9350   28.8033 H   0  0  0  0  0  0  0  0  0  0  0  0
   42.3507   34.4776   32.7510 H   0  0  0  0  0  0  0  0  0  0  0  0
  1  2  1  0
  2  3  2  0
  3  4  1  0
  4  5  2  0
  5  6  1  0
  6  7  2  0
  6  8  1  0
  8  9  1  0
  9 10  2  0
 10 11  1  0
 11 12  2  0
 12 13  1  0
 13 14  1  0
 14 15  1  0
 15 16  1  0
 16 17  1  0
 17 18  1  0
 18 19  1  0
 13 20  2  0
  5 21  1  0
 21 22  2  0
 22 23  1  0
 23 24  2  0
 24 25  1  0
 25 26  2  0
 26 27  1  0
 27 28  1  0
 28 29  1  0
 29 30  1  0
 30 31  1  0
 31 32  1  0
 32 33  1  0
 27 34  2  0
 34 35  1  0
 35 36  1  0
 36 37  2  0
 22  2  1  0
 37 23  1  0
 20  9  1  0
 36 26  1  0
 19 14  1  0
 33 28  1  0
  1 38  1  0
  1 39  1  0
  1 40  1  0
  3 41  1  0
  4 42  1  0
  8 43  1  0
 10 44  1  0
 11 45  1  0
 12 46  1  0
 15 47  1  0
 15 48  1  0
 16 49  1  0
 16 50  1  0
 18 51  1  0
 18 52  1  0
 19 53  1  0
 19 54  1  0
 20 55  1  0
 21 56  1  0
 24 57  1  0
 25 58  1  0
 28 59  1  0
 29 60  1  0
 29 61  1  0
 30 62  1  0
 30 63  1  0
 31 64  1  0
 31 65  1  0
 32 66  1  0
 32 67  1  0
 33 68  1  0
 33 69  1  0
 37 70  1  0
M  CHG  1  31   1
M  END
>  <meeko>  (2) 
{"is_sidechain": [false], "free_energy": -12.734, "intermolecular_energy": -16.406, "internal_energy": -0.98}

$$$$
3e93_ligand
     RDKit          3D

 70 75  0  0  0  0  0  0  0  0999 V2000
   37.9630   31.5150   32.9230 C   0  0  0  0  0  0  0  0  0  0  0  0
   39.3740   31.5110   32.3920 C   0  0  0  0  0  0  0  0  0  0  0  0
   39.6270   32.1080   31.1450 C   0  0  0  0  0  0  0  0  0  0  0  0
   40.9170   32.1380   30.6100 C   0  0  0  0  0  0  0  0  0  0  0  0
   41.9730   31.5530   31.3140 C   0  0  0  0  0  0  0  0  0  0  0  0
   43.3720   31.5700   30.8000 C   0  0  0  0  0  0  0  0  0  0  0  0
   43.9160   30.4920   30.5880 O   0  0  0  0  0  0  0  0  0  0  0  0
   43.8960   32.8300   30.5750 N   0  0  0  0  0  0  0  0  0  0  0  0
   45.2010   33.1520   30.1410 C   0  0  0  0  0  0  0  0  0  0  0  0
   45.4630   34.4920   29.8570 C   0  0  0  0  0  0  0  0  0  0  0  0
   46.7290   34.8810   29.4280 C   0  0  0  0  0  0  0  0  0  0  0  0
   47.7420   33.9290   29.2860 C   0  0  0  0  0  0  0  0  0  0  0  0
   47.5270   32.5710   29.5680 C   0  0  0  0  0  0  0  0  0  0  0  0
   48.5340   31.6320   29.4250 N   0  0  0  0  0  0  0  0  0  0  0  0
   48.2590   30.1880   29.3570 C   0  0  0  0  0  0  0  0  0  0  0  0
   49.3400   29.4800   28.5210 C   0  0  0  0  0  0  0  0  0  0  0  0
   50.6730   29.6440   29.0260 O   0  0  0  0  0  0  0  0  0  0  0  0
   50.8630   30.8800   29.7290 C   0  0  0  0  0  0  0  0  0  0  0  0
   49.9450   32.0210   29.2590 C   0  0  0  0  0  0  0  0  0  0  0  0
   46.2340   32.2140   29.9980 C   0  0  0  0  0  0  0  0  0  0  0  0
   41.7300   30.9610   32.5590 C   0  0  0  0  0  0  0  0  0  0  0  0
   40.4380   30.9230   33.1130 C   0  0  0  0  0  0  0  0  0  0  0  0
   40.2510   30.2830   34.4250 C   0  0  0  0  0  0  0  0  0  0  0  0
   40.7350   30.9100   35.5890 C   0  0  0  0  0  0  0  0  0  0  0  0
   40.6030   30.3260   36.8600 C   0  0  0  0  0  0  0  0  0  0  0  0
   39.9680   29.0780   36.9540 C   0  0  0  0  0  0  0  0  0  0  0  0
   39.6340   28.1470   37.9700 C   0  0  0  0  0  0  0  0  0  0  0  0
   39.9040   28.2250   39.4420 C   0  0  0  0  0  0  0  0  0  0  0  0
   39.6180   26.8760   40.1290 C   0  0  0  0  0  0  0  0  0  0  0  0
   39.8140   26.9560   41.6320 C   0  0  0  0  0  0  0  0  0  0  0  0
   38.9800   28.0640   42.1780 N   0  0  0  0  0  0  0  0  0  0  0  0
   39.3050   29.4010   41.6020 C   0  0  0  0  0  0  0  0  0  0  0  0
   39.1010   29.3620   40.1000 C   0  0  0  0  0  0  0  0  0  0  0  0
   39.0060   27.0740   37.4690 N   0  0  0  0  0  0  0  0  0  0  0  0
   38.9240   27.2900   36.1030 O   0  0  0  0  0  0  0  0  0  0  0  0
   39.4990   28.4830   35.7960 C   0  0  0  0  0  0  0  0  0  0  0  0
   39.6140   29.0340   34.5220 C   0  0  0  0  0  0  0  0  0  0  0  0
   37.9851   31.5149   34.0228 H   0  0  0  0  0  0  0  0  0  0  0  0
   37.4397   32.4146   32.5668 H   0  0  0  0  0  0  0  0  0  0  0  0
   37.4346   30.6183   32.5668 H   0  0  0  0  0  0  0  0  0  0  0  0
   38.7965   32.5585   30.5817 H   0  0  0  0  0  0  0  0  0  0  0  0
   41.1009   32.6201   29.6385 H   0  0  0  0  0  0  0  0  0  0  0  0
   43.2630   33.6140   30.6580 H   0  0  0  0  0  0  0  0  0  0  0  0
   44.6677   35.2431   29.9722 H   0  0  0  0  0  0  0  0  0  0  0  0
   46.9319   35.9380   29.2008 H   0  0  0  0  0  0  0  0  0  0  0  0
   48.7359   34.2530   28.9436 H   0  0  0  0  0  0  0  0  0  0  0  0
   48.2552   29.7705   30.3747 H   0  0  0  0  0  0  0  0  0  0  0  0
   47.2787   30.0312   28.8832 H   0  0  0  0  0  0  0  0  0  0  0  0
   49.1094   28.4047   28.4978 H   0  0  0  0  0  0  0  0  0  0  0  0
   49.3206   29.9407   27.5223 H   0  0  0  0  0  0  0  0  0  0  0  0
   50.6722   30.7018   30.7976 H   0  0  0  0  0  0  0  0  0  0  0  0
   51.8954   31.2021   29.5280 H   0  0  0  0  0  0  0  0  0  0  0  0
   50.1475   32.9216   29.8572 H   0  0  0  0  0  0  0  0  0  0  0  0
   50.1404   32.2277   28.1964 H   0  0  0  0  0  0  0  0  0  0  0  0
   46.0264   31.1591   30.2306 H   0  0  0  0  0  0  0  0  0  0  0  0
   42.5677   30.5160   33.1160 H   0  0  0  0  0  0  0  0  0  0  0  0
   41.2319   31.8874   35.5006 H   0  0  0  0  0  0  0  0  0  0  0  0
   40.9870   30.8333   37.7573 H   0  0  0  0  0  0  0  0  0  0  0  0
   40.9721   28.4527   39.5732 H   0  0  0  0  0  0  0  0  0  0  0  0
   38.5782   26.5837   39.9206 H   0  0  0  0  0  0  0  0  0  0  0  0
   40.3249   26.1331   39.7311 H   0  0  0  0  0  0  0  0  0  0  0  0
   39.5098   26.0050   42.0936 H   0  0  0  0  0  0  0  0  0  0  0  0
   40.8738   27.1469   41.8563 H   0  0  0  0  0  0  0  0  0  0  0  0
   37.9820   27.8540   42.0200 H   0  0  0  0  0  0  0  0  0  0  0  0
   39.0910   28.0990   43.2010 H   0  0  0  0  0  0  0  0  0  0  0  0
   38.6441   30.1617   42.0431 H   0  0  0  0  0  0  0  0  0  0  0  0
   40.3519   29.6541   41.8255 H   0  0  0  0  0  0  0  0  0  0  0  0
   38.0319   29.2104   39.8899 H   0  0  0  0  0  0  0  0  0  0  0  0
   39.4552   30.3161   39.6825 H   0  0  0  0  0  0  0  0  0  0  0  0
   39.2245   28.5158   33.6333 H   0  0  0  0  0  0  0  0  0  0  0  0
  1  2  1  0
  2  3  2  0
  3  4  1  0
  4  5  2  0
  5  6  1  0
  6  7  2  0
  6  8  1  0
  8  9  1  0
  9 10  2  0
 10 11  1  0
 11 12  2  0
 12 13  1  0
 13 14  1  0
 14 15  1  0
 15 16  1  0
 16 17  1  0
 17 18  1  0
 18 19  1  0
 13 20  2  0
  5 21  1  0
 21 22  2  0
 22 23  1  0
 23 24  2  0
 24 25  1  0
 25 26  2  0
 26 27  1  0
 27 28  1  0
 28 29  1  0
 29 30  1  0
 30 31  1  0
 31 32  1  0
 32 33  1  0
 27 34  2  0
 34 35  1  0
 35 36  1  0
 36 37  2  0
 22  2  1  0
 37 23  1  0
 20  9  1  0
 36 26  1  0
 19 14  1  0
 33 28  1  0
  1 38  1  0
  1 39  1  0
  1 40  1  0
  3 41  1  0
  4 42  1  0
  8 43  1  0
 10 44  1  0
 11 45  1  0
 12 46  1  0
 15 47  1  0
 15 48  1  0
 16 49  1  0
 16 50  1  0
 18 51  1  0
 18 52  1  0
 19 53  1  0
 19 54  1  0
 20 55  1  0
 21 56  1  0
 24 57  1  0
 25 58  1  0
 28 59  1  0
 29 60  1  0
 29 61  1  0
 30 62  1  0
 30 63  1  0
 31 64  1  0
 31 65  1  0
 32 66  1  0
 32 67  1  0
 33 68  1  0
 33 69  1  0
 37 70  1  0
M  CHG  1  31   1
M  END
>  <meeko>  (3) 
{"is_sidechain": [false], "free_energy": -10.73, "intermolecular_energy": -14.024, "internal_energy": -0.772}

$$$$
3e93_ligand
     RDKit          3D

 70 75  0  0  0  0  0  0  0  0999 V2000
   37.8130   31.3620   32.7850 C   0  0  0  0  0  0  0  0  0  0  0  0
   39.2400   31.6030   32.3610 C   0  0  0  0  0  0  0  0  0  0  0  0
   39.4800   32.2680   31.1460 C   0  0  0  0  0  0  0  0  0  0  0  0
   40.7830   32.5220   30.7110 C   0  0  0  0  0  0  0  0  0  0  0  0
   41.8670   32.0970   31.4830 C   0  0  0  0  0  0  0  0  0  0  0  0
   43.2780   32.3560   31.0750 C   0  0  0  0  0  0  0  0  0  0  0  0
   43.7560   33.4530   31.3360 O   0  0  0  0  0  0  0  0  0  0  0  0
   43.9160   31.2870   30.4730 N   0  0  0  0  0  0  0  0  0  0  0  0
   45.2250   31.2560   29.9440 C   0  0  0  0  0  0  0  0  0  0  0  0
   45.7430   30.0060   29.6040 C   0  0  0  0  0  0  0  0  0  0  0  0
   47.0260   29.9030   29.0730 C   0  0  0  0  0  0  0  0  0  0  0  0
   47.7950   31.0530   28.8750 C   0  0  0  0  0  0  0  0  0  0  0  0
   47.3120   32.3310   29.1940 C   0  0  0  0  0  0  0  0  0  0  0  0
   48.0800   33.4660   28.9960 N   0  0  0  0  0  0  0  0  0  0  0  0
   47.4910   34.8140   28.9530 C   0  0  0  0  0  0  0  0  0  0  0  0
   48.5160   35.8560   29.4350 C   0  0  0  0  0  0  0  0  0  0  0  0
   49.7270   35.8870   28.6670 O   0  0  0  0  0  0  0  0  0  0  0  0
   50.0640   34.6170   28.0910 C   0  0  0  0  0  0  0  0  0  0  0  0
   49.5470   33.4070   28.8860 C   0  0  0  0  0  0  0  0  0  0  0  0
   46.0110   32.3980   29.7300 C   0  0  0  0  0  0  0  0  0  0  0  0
   41.6360   31.4390   32.6960 C   0  0  0  0  0  0  0  0  0  0  0  0
   40.3310   31.1750   33.1500 C   0  0  0  0  0  0  0  0  0  0  0  0
   40.1590   30.4770   34.4340 C   0  0  0  0  0  0  0  0  0  0  0  0
   40.8310   30.9390   35.5830 C   0  0  0  0  0  0  0  0  0  0  0  0
   40.7170   30.2900   36.8240 C   0  0  0  0  0  0  0  0  0  0  0  0
   39.9070   29.1470   36.9030 C   0  0  0  0  0  0  0  0  0  0  0  0
   39.5190   28.2040   37.8900 C   0  0  0  0  0  0  0  0  0  0  0  0
   39.9210   28.1340   39.3310 C   0  0  0  0  0  0  0  0  0  0  0  0
   39.6020   26.7500   39.9280 C   0  0  0  0  0  0  0  0  0  0  0  0
   39.9320   26.6840   41.4080 C   0  0  0  0  0  0  0  0  0  0  0  0
   39.2300   27.7900   42.1190 N   0  0  0  0  0  0  0  0  0  0  0  0
   39.5970   29.1490   41.6280 C   0  0  0  0  0  0  0  0  0  0  0  0
   39.2600   29.2560   40.1530 C   0  0  0  0  0  0  0  0  0  0  0  0
   38.6930   27.2760   37.3880 N   0  0  0  0  0  0  0  0  0  0  0  0
   38.5310   27.6000   36.0510 O   0  0  0  0  0  0  0  0  0  0  0  0
   39.2550   28.7140   35.7610 C   0  0  0  0  0  0  0  0  0  0  0  0
   39.3470   29.3330   34.5170 C   0  0  0  0  0  0  0  0  0  0  0  0
   37.7536   31.3520   33.8833 H   0  0  0  0  0  0  0  0  0  0  0  0
   37.1727   32.1647   32.3905 H   0  0  0  0  0  0  0  0  0  0  0  0
   37.4718   30.3935   32.3905 H   0  0  0  0  0  0  0  0  0  0  0  0
   38.6295   32.5931   30.5288 H   0  0  0  0  0  0  0  0  0  0  0  0
   40.9548   33.0547   29.7641 H   0  0  0  0  0  0  0  0  0  0  0  0
   43.4280   30.4010   30.4680 H   0  0  0  0  0  0  0  0  0  0  0  0
   45.1370   29.1006   29.7556 H   0  0  0  0  0  0  0  0  0  0  0  0
   47.4344   28.9163   28.8093 H   0  0  0  0  0  0  0  0  0  0  0  0
   48.8077   30.9533   28.4572 H   0  0  0  0  0  0  0  0  0  0  0  0
   47.1930   35.0478   27.9203 H   0  0  0  0  0  0  0  0  0  0  0  0
   46.6113   34.8432   29.6127 H   0  0  0  0  0  0  0  0  0  0  0  0
   48.0483   36.8502   29.3823 H   0  0  0  0  0  0  0  0  0  0  0  0
   48.7981   35.5721   30.4596 H   0  0  0  0  0  0  0  0  0  0  0  0
   49.6360   34.5729   27.0786 H   0  0  0  0  0  0  0  0  0  0  0  0
   51.1620   34.5506   28.0929 H   0  0  0  0  0  0  0  0  0  0  0  0
   49.8365   32.4805   28.3685 H   0  0  0  0  0  0  0  0  0  0  0  0
   49.9856   33.4237   29.8946 H   0  0  0  0  0  0  0  0  0  0  0  0
   45.5959   33.3828   29.9905 H   0  0  0  0  0  0  0  0  0  0  0  0
   42.4932   31.1213   33.3077 H   0  0  0  0  0  0  0  0  0  0  0  0
   41.4642   31.8352   35.5061 H   0  0  0  0  0  0  0  0  0  0  0  0
   41.2485   30.6679   37.7099 H   0  0  0  0  0  0  0  0  0  0  0  0
   41.0099   28.2820   39.3802 H   0  0  0  0  0  0  0  0  0  0  0  0
   38.5303   26.5425   39.7927 H   0  0  0  0  0  0  0  0  0  0  0  0
   40.2187   26.0029   39.4069 H   0  0  0  0  0  0  0  0  0  0  0  0
   39.6015   25.7171   41.8154 H   0  0  0  0  0  0  0  0  0  0  0  0
   41.0182   26.7866   41.5483 H   0  0  0  0  0  0  0  0  0  0  0  0
   38.2090   27.6580   42.0370 H   0  0  0  0  0  0  0  0  0  0  0  0
   39.4310   27.7270   43.1270 H   0  0  0  0  0  0  0  0  0  0  0  0
   39.0327   29.9077   42.1900 H   0  0  0  0  0  0  0  0  0  0  0  0
   40.6747   29.3151   41.7732 H   0  0  0  0  0  0  0  0  0  0  0  0
   38.1687   29.1903   40.0317 H   0  0  0  0  0  0  0  0  0  0  0  0
   39.6422   30.2195   39.7846 H   0  0  0  0  0  0  0  0  0  0  0  0
   38.8089   28.9445   33.6398 H   0  0  0  0  0  0  0  0  0  0  0  0
  1  2  1  0
  2  3  2  0
  3  4  1  0
  4  5  2  0
  5  6  1  0
  6  7  2  0
  6  8  1  0
  8  9  1  0
  9 10  2  0
 10 11  1  0
 11 12  2  0
 12 13  1  0
 13 14  1  0
 14 15  1  0
 15 16  1  0
 16 17  1  0
 17 18  1  0
 18 19  1  0
 13 20  2  0
  5 21  1  0
 21 22  2  0
 22 23  1  0
 23 24  2  0
 24 25  1  0
 25 26  2  0
 26 27  1  0
 27 28  1  0
 28 29  1  0
 29 30  1  0
 30 31  1  0
 31 32  1  0
 32 33  1  0
 27 34  2  0
 34 35  1  0
 35 36  1  0
 36 37  2  0
 22  2  1  0
 37 23  1  0
 20  9  1  0
 36 26  1  0
 19 14  1  0
 33 28  1  0
  1 38  1  0
  1 39  1  0
  1 40  1  0
  3 41  1  0
  4 42  1  0
  8 43  1  0
 10 44  1  0
 11 45  1  0
 12 46  1  0
 15 47  1  0
 15 48  1  0
 16 49  1  0
 16 50  1  0
 18 51  1  0
 18 52  1  0
 19 53  1  0
 19 54  1  0
 20 55  1  0
 21 56  1  0
 24 57  1  0
 25 58  1  0
 28 59  1  0
 29 60  1  0
 29 61  1  0
 30 62  1  0
 30 63  1  0
 31 64  1  0
 31 65  1  0
 32 66  1  0
 32 67  1  0
 33 68  1  0
 33 69  1  0
 37 70  1  0
M  CHG  1  31   1
M  END
>  <meeko>  (4) 
{"is_sidechain": [false], "free_energy": -10.696, "intermolecular_energy": -14.246, "internal_energy": -0.506}

$$$$
