3qqs_ligand
     RDKit          3D

 28 29  0  0  0  0  0  0  0  0999 V2000
   22.0380    7.3150   32.1300 O   0  0  0  0  0  0  0  0  0  0  0  0
   22.7550    7.0970   31.0980 C   0  0  0  0  0  0  0  0  0  0  0  0
   23.6860    7.8660   30.6840 O   0  0  0  0  0  0  0  0  0  0  0  0
   22.5020    5.8180   30.3200 C   0  0  0  0  0  0  0  0  0  0  0  0
   21.2140    5.6040   29.7760 C   0  0  0  0  0  0  0  0  0  0  0  0
   20.9150    4.4700   29.0200 C   0  0  0  0  0  0  0  0  0  0  0  0
   21.9000    3.5190   28.7910 C   0  0  0  0  0  0  0  0  0  0  0  0
   23.1780    3.7040   29.3200 C   0  0  0  0  0  0  0  0  0  0  0  0
   23.5010    4.8420   30.0820 C   0  0  0  0  0  0  0  0  0  0  0  0
   24.8240    4.9570   30.6310 N   0  0  0  0  0  0  0  0  0  0  0  0
   25.2310    4.1910   31.7650 C   0  0  0  0  0  0  0  0  0  0  0  0
   25.3030    2.7890   31.6050 C   0  0  0  0  0  0  0  0  0  0  0  0
   25.6070    1.9420   32.6730 C   0  0  0  0  0  0  0  0  0  0  0  0
   25.8330    2.4800   33.9320 C   0  0  0  0  0  0  0  0  0  0  0  0
   25.7570    3.8610   34.1140 C   0  0  0  0  0  0  0  0  0  0  0  0
   25.4590    4.7330   33.0430 C   0  0  0  0  0  0  0  0  0  0  0  0
   25.4330    6.2020   33.3630 C   0  0  0  0  0  0  0  0  0  0  0  0
   24.5400    6.5850   34.1910 O   0  0  0  0  0  0  0  0  0  0  0  0
   26.3750    6.9270   32.9070 O   0  0  0  0  0  0  0  0  0  0  0  0
   20.4269    6.3516   29.9537 H   0  0  0  0  0  0  0  0  0  0  0  0
   19.9047    4.3304   28.6079 H   0  0  0  0  0  0  0  0  0  0  0  0
   21.6739    2.6228   28.1947 H   0  0  0  0  0  0  0  0  0  0  0  0
   23.9507    2.9427   29.1371 H   0  0  0  0  0  0  0  0  0  0  0  0
   25.4550    4.7020   29.8440 H   0  0  0  0  0  0  0  0  0  0  0  0
   25.1146    2.3530   30.6128 H   0  0  0  0  0  0  0  0  0  0  0  0
   25.6669    0.8548   32.5171 H   0  0  0  0  0  0  0  0  0  0  0  0
   26.0705    1.8219   34.7808 H   0  0  0  0  0  0  0  0  0  0  0  0
   25.9333    4.2811   35.1152 H   0  0  0  0  0  0  0  0  0  0  0  0
  1  2  2  0
  2  3  1  0
  2  4  1  0
  4  5  2  0
  5  6  1  0
  6  7  2  0
  7  8  1  0
  8  9  2  0
  9 10  1  0
 10 11  1  0
 11 12  2  0
 12 13  1  0
 13 14  2  0
 14 15  1  0
 15 16  2  0
 16 17  1  0
 17 18  2  0
 17 19  1  0
  9  4  1  0
 16 11  1  0
  5 20  1  0
  6 21  1  0
  7 22  1  0
  8 23  1  0
 10 24  1  0
 12 25  1  0
 13 26  1  0
 14 27  1  0
 15 28  1  0
M  CHG  2   3  -1  19  -1
M  END
>  <meeko>  (1) 
{"is_sidechain": [false], "free_energy": -8.339, "intermolecular_energy": -10.289, "internal_energy": -0.977}

$$$$
3qqs_ligand
     RDKit          3D

 28 29  0  0  0  0  0  0  0  0999 V2000
   24.2540    6.5020   33.6620 O   0  0  0  0  0  0  0  0  0  0  0  0
   24.6110    6.2110   32.4730 C   0  0  0  0  0  0  0  0  0  0  0  0
   25.8200    6.1790   32.0640 O   0  0  0  0  0  0  0  0  0  0  0  0
   23.5230    5.8500   31.4780 C   0  0  0  0  0  0  0  0  0  0  0  0
   23.1270    6.8230   30.5300 C   0  0  0  0  0  0  0  0  0  0  0  0
   22.1580    6.5530   29.5630 C   0  0  0  0  0  0  0  0  0  0  0  0
   21.5590    5.3020   29.5210 C   0  0  0  0  0  0  0  0  0  0  0  0
   21.9290    4.3250   30.4470 C   0  0  0  0  0  0  0  0  0  0  0  0
   22.9060    4.5750   31.4290 C   0  0  0  0  0  0  0  0  0  0  0  0
   23.2160    3.5420   32.3770 N   0  0  0  0  0  0  0  0  0  0  0  0
   24.2930    2.6290   32.1620 C   0  0  0  0  0  0  0  0  0  0  0  0
   24.2010    1.7770   31.0390 C   0  0  0  0  0  0  0  0  0  0  0  0
   25.1570    0.7910   30.7850 C   0  0  0  0  0  0  0  0  0  0  0  0
   26.2210    0.6250   31.6600 C   0  0  0  0  0  0  0  0  0  0  0  0
   26.3250    1.4500   32.7800 C   0  0  0  0  0  0  0  0  0  0  0  0
   25.3720    2.4590   33.0480 C   0  0  0  0  0  0  0  0  0  0  0  0
   25.6110    3.2980   34.2720 C   0  0  0  0  0  0  0  0  0  0  0  0
   26.7170    3.9350   34.3150 O   0  0  0  0  0  0  0  0  0  0  0  0
   24.6530    3.4300   35.0990 O   0  0  0  0  0  0  0  0  0  0  0  0
   23.5952    7.8180   30.5560 H   0  0  0  0  0  0  0  0  0  0  0  0
   21.8703    7.3281   28.8374 H   0  0  0  0  0  0  0  0  0  0  0  0
   20.7953    5.0809   28.7608 H   0  0  0  0  0  0  0  0  0  0  0  0
   21.4461    3.3374   30.4084 H   0  0  0  0  0  0  0  0  0  0  0  0
   23.4180    4.0530   33.2620 H   0  0  0  0  0  0  0  0  0  0  0  0
   23.3543    1.8932   30.3465 H   0  0  0  0  0  0  0  0  0  0  0  0
   25.0669    0.1494   29.8960 H   0  0  0  0  0  0  0  0  0  0  0  0
   26.9770   -0.1515   31.4718 H   0  0  0  0  0  0  0  0  0  0  0  0
   27.1692    1.3120   33.4715 H   0  0  0  0  0  0  0  0  0  0  0  0
  1  2  2  0
  2  3  1  0
  2  4  1  0
  4  5  2  0
  5  6  1  0
  6  7  2  0
  7  8  1  0
  8  9  2  0
  9 10  1  0
 10 11  1  0
 11 12  2  0
 12 13  1  0
 13 14  2  0
 14 15  1  0
 15 16  2  0
 16 17  1  0
 17 18  2  0
 17 19  1  0
  9  4  1  0
 16 11  1  0
  5 20  1  0
  6 21  1  0
  7 22  1  0
  8 23  1  0
 10 24  1  0
 12 25  1  0
 13 26  1  0
 14 27  1  0
 15 28  1  0
M  CHG  2   3  -1  19  -1
M  END
>  <meeko>  (2) 
{"is_sidechain": [false], "free_energy": -8.337, "intermolecular_energy": -10.107, "internal_energy": -1.156}

$$$$
3qqs_ligand
     RDKit          3D

 28 29  0  0  0  0  0  0  0  0999 V2000
   24.8660    5.0300   33.8610 O   0  0  0  0  0  0  0  0  0  0  0  0
   25.5800    5.2860   32.8360 C   0  0  0  0  0  0  0  0  0  0  0  0
   25.9940    6.4490   32.5110 O   0  0  0  0  0  0  0  0  0  0  0  0
   25.9900    4.1220   31.9530 C   0  0  0  0  0  0  0  0  0  0  0  0
   26.7780    3.0930   32.5170 C   0  0  0  0  0  0  0  0  0  0  0  0
   27.1650    1.9740   31.7770 C   0  0  0  0  0  0  0  0  0  0  0  0
   26.7730    1.8600   30.4520 C   0  0  0  0  0  0  0  0  0  0  0  0
   25.9970    2.8630   29.8680 C   0  0  0  0  0  0  0  0  0  0  0  0
   25.5940    3.9980   30.5970 C   0  0  0  0  0  0  0  0  0  0  0  0
   24.8280    5.0140   29.9310 N   0  0  0  0  0  0  0  0  0  0  0  0
   23.4130    4.9020   29.7750 C   0  0  0  0  0  0  0  0  0  0  0  0
   22.9300    3.7980   29.0380 C   0  0  0  0  0  0  0  0  0  0  0  0
   21.5720    3.6400   28.7550 C   0  0  0  0  0  0  0  0  0  0  0  0
   20.6650    4.5950   29.1930 C   0  0  0  0  0  0  0  0  0  0  0  0
   21.1220    5.6980   29.9130 C   0  0  0  0  0  0  0  0  0  0  0  0
   22.4920    5.8690   30.2170 C   0  0  0  0  0  0  0  0  0  0  0  0
   22.8530    7.0860   31.0230 C   0  0  0  0  0  0  0  0  0  0  0  0
   23.6500    7.9150   30.4690 O   0  0  0  0  0  0  0  0  0  0  0  0
   22.2400    7.2750   32.1220 O   0  0  0  0  0  0  0  0  0  0  0  0
   27.0949    3.1760   33.5671 H   0  0  0  0  0  0  0  0  0  0  0  0
   27.7772    1.1876   32.2425 H   0  0  0  0  0  0  0  0  0  0  0  0
   27.0727    0.9812   29.8622 H   0  0  0  0  0  0  0  0  0  0  0  0
   25.6938    2.7643   28.8152 H   0  0  0  0  0  0  0  0  0  0  0  0
   25.0100    5.8790   30.4820 H   0  0  0  0  0  0  0  0  0  0  0  0
   23.6432    3.0422   28.6772 H   0  0  0  0  0  0  0  0  0  0  0  0
   21.2230    2.7641   28.1884 H   0  0  0  0  0  0  0  0  0  0  0  0
   19.5930    4.4824   28.9736 H   0  0  0  0  0  0  0  0  0  0  0  0
   20.3987    6.4538   30.2529 H   0  0  0  0  0  0  0  0  0  0  0  0
  1  2  2  0
  2  3  1  0
  2  4  1  0
  4  5  2  0
  5  6  1  0
  6  7  2  0
  7  8  1  0
  8  9  2  0
  9 10  1  0
 10 11  1  0
 11 12  2  0
 12 13  1  0
 13 14  2  0
 14 15  1  0
 15 16  2  0
 16 17  1  0
 17 18  2  0
 17 19  1  0
  9  4  1  0
 16 11  1  0
  5 20  1  0
  6 21  1  0
  7 22  1  0
  8 23  1  0
 10 24  1  0
 12 25  1  0
 13 26  1  0
 14 27  1  0
 15 28  1  0
M  CHG  2   3  -1  19  -1
M  END
>  <meeko>  (3) 
{"is_sidechain": [false], "free_energy": -8.287, "intermolecular_energy": -10.137, "internal_energy": -1.065}

$$$$
3qqs_ligand
     RDKit          3D

 28 29  0  0  0  0  0  0  0  0999 V2000
   26.6670    3.7550   34.3370 O   0  0  0  0  0  0  0  0  0  0  0  0
   25.5710    3.1900   34.0150 C   0  0  0  0  0  0  0  0  0  0  0  0
   24.5200    3.1750   34.7400 O   0  0  0  0  0  0  0  0  0  0  0  0
   25.4990    2.5090   32.6600 C   0  0  0  0  0  0  0  0  0  0  0  0
   26.6000    1.7270   32.2400 C   0  0  0  0  0  0  0  0  0  0  0  0
   26.5930    1.0430   31.0240 C   0  0  0  0  0  0  0  0  0  0  0  0
   25.4830    1.1270   30.1960 C   0  0  0  0  0  0  0  0  0  0  0  0
   24.3840    1.8950   30.5850 C   0  0  0  0  0  0  0  0  0  0  0  0
   24.3690    2.5900   31.8090 C   0  0  0  0  0  0  0  0  0  0  0  0
   23.2250    3.3940   32.1360 N   0  0  0  0  0  0  0  0  0  0  0  0
   22.8440    4.5120   31.3330 C   0  0  0  0  0  0  0  0  0  0  0  0
   21.8110    4.3090   30.3920 C   0  0  0  0  0  0  0  0  0  0  0  0
   21.4210    5.3110   29.5010 C   0  0  0  0  0  0  0  0  0  0  0  0
   22.0690    6.5380   29.5220 C   0  0  0  0  0  0  0  0  0  0  0  0
   23.0990    6.7560   30.4370 C   0  0  0  0  0  0  0  0  0  0  0  0
   23.5000    5.7570   31.3520 C   0  0  0  0  0  0  0  0  0  0  0  0
   24.6030    6.1240   32.3050 C   0  0  0  0  0  0  0  0  0  0  0  0
   24.2570    6.3480   33.5140 O   0  0  0  0  0  0  0  0  0  0  0  0
   25.8020    6.0480   31.8850 O   0  0  0  0  0  0  0  0  0  0  0  0
   27.4852    1.6562   32.8892 H   0  0  0  0  0  0  0  0  0  0  0  0
   27.4628    0.4404   30.7234 H   0  0  0  0  0  0  0  0  0  0  0  0
   25.4689    0.5902   29.2360 H   0  0  0  0  0  0  0  0  0  0  0  0
   23.5101    1.9585   29.9200 H   0  0  0  0  0  0  0  0  0  0  0  0
   22.4270    2.7250   32.1310 H   0  0  0  0  0  0  0  0  0  0  0  0
   21.2998    3.3355   30.3599 H   0  0  0  0  0  0  0  0  0  0  0  0
   20.6047    5.1288   28.7865 H   0  0  0  0  0  0  0  0  0  0  0  0
   21.7725    7.3330   28.8220 H   0  0  0  0  0  0  0  0  0  0  0  0
   23.6115    7.7293   30.4464 H   0  0  0  0  0  0  0  0  0  0  0  0
  1  2  2  0
  2  3  1  0
  2  4  1  0
  4  5  2  0
  5  6  1  0
  6  7  2  0
  7  8  1  0
  8  9  2  0
  9 10  1  0
 10 11  1  0
 11 12  2  0
 12 13  1  0
 13 14  2  0
 14 15  1  0
 15 16  2  0
 16 17  1  0
 17 18  2  0
 17 19  1  0
  9  4  1  0
 16 11  1  0
  5 20  1  0
  6 21  1  0
  7 22  1  0
  8 23  1  0
 10 24  1  0
 12 25  1  0
 13 26  1  0
 14 27  1  0
 15 28  1  0
M  CHG  2   3  -1  19  -1
M  END
>  <meeko>  (4) 
{"is_sidechain": [false], "free_energy": -8.096, "intermolecular_energy": -9.78, "internal_energy": -1.186}

$$$$
3qqs_ligand
     RDKit          3D

 28 29  0  0  0  0  0  0  0  0999 V2000
   24.4040    6.7660   32.4820 O   0  0  0  0  0  0  0  0  0  0  0  0
   25.5130    6.1810   32.7130 C   0  0  0  0  0  0  0  0  0  0  0  0
   26.6120    6.7800   32.9660 O   0  0  0  0  0  0  0  0  0  0  0  0
   25.5240    4.6630   32.7150 C   0  0  0  0  0  0  0  0  0  0  0  0
   25.9500    3.9930   33.8860 C   0  0  0  0  0  0  0  0  0  0  0  0
   25.9550    2.6010   33.9750 C   0  0  0  0  0  0  0  0  0  0  0  0
   25.5350    1.8430   32.8920 C   0  0  0  0  0  0  0  0  0  0  0  0
   25.1120    2.4780   31.7230 C   0  0  0  0  0  0  0  0  0  0  0  0
   25.0960    3.8810   31.6130 C   0  0  0  0  0  0  0  0  0  0  0  0
   24.6870    4.4750   30.3710 N   0  0  0  0  0  0  0  0  0  0  0  0
   23.3550    4.3290   29.8760 C   0  0  0  0  0  0  0  0  0  0  0  0
   22.3070    4.8080   30.6920 C   0  0  0  0  0  0  0  0  0  0  0  0
   20.9660    4.6390   30.3410 C   0  0  0  0  0  0  0  0  0  0  0  0
   20.6430    3.9700   29.1690 C   0  0  0  0  0  0  0  0  0  0  0  0
   21.6630    3.4790   28.3540 C   0  0  0  0  0  0  0  0  0  0  0  0
   23.0250    3.6500   28.6880 C   0  0  0  0  0  0  0  0  0  0  0  0
   24.0290    3.0990   27.7140 C   0  0  0  0  0  0  0  0  0  0  0  0
   25.0720    2.5630   28.2190 O   0  0  0  0  0  0  0  0  0  0  0  0
   23.7110    3.0760   26.4820 O   0  0  0  0  0  0  0  0  0  0  0  0
   26.2863    4.5857   34.7495 H   0  0  0  0  0  0  0  0  0  0  0  0
   26.2902    2.1071   34.8990 H   0  0  0  0  0  0  0  0  0  0  0  0
   25.5352    0.7448   32.9541 H   0  0  0  0  0  0  0  0  0  0  0  0
   24.7838    1.8680   30.8685 H   0  0  0  0  0  0  0  0  0  0  0  0
   24.8570    5.4940   30.5010 H   0  0  0  0  0  0  0  0  0  0  0  0
   22.5535    5.3282   31.6293 H   0  0  0  0  0  0  0  0  0  0  0  0
   20.1703    5.0339   30.9898 H   0  0  0  0  0  0  0  0  0  0  0  0
   19.5899    3.8279   28.8846 H   0  0  0  0  0  0  0  0  0  0  0  0
   21.4004    2.9456   27.4285 H   0  0  0  0  0  0  0  0  0  0  0  0
  1  2  2  0
  2  3  1  0
  2  4  1  0
  4  5  2  0
  5  6  1  0
  6  7  2  0
  7  8  1  0
  8  9  2  0
  9 10  1  0
 10 11  1  0
 11 12  2  0
 12 13  1  0
 13 14  2  0
 14 15  1  0
 15 16  2  0
 16 17  1  0
 17 18  2  0
 17 19  1  0
  9  4  1  0
 16 11  1  0
  5 20  1  0
  6 21  1  0
  7 22  1  0
  8 23  1  0
 10 24  1  0
 12 25  1  0
 13 26  1  0
 14 27  1  0
 15 28  1  0
M  CHG  2   3  -1  19  -1
M  END
>  <meeko>  (5) 
{"is_sidechain": [false], "free_energy": -8.074, "intermolecular_energy": -9.7, "internal_energy": -1.239}

$$$$
3qqs_ligand
     RDKit          3D

 28 29  0  0  0  0  0  0  0  0999 V2000
   24.1220   -5.2920   29.8790 O   0  0  0  0  0  0  0  0  0  0  0  0
   25.2220   -5.7930   30.2840 C   0  0  0  0  0  0  0  0  0  0  0  0
   25.5370   -7.0270   30.1880 O   0  0  0  0  0  0  0  0  0  0  0  0
   26.2420   -4.8540   30.9020 C   0  0  0  0  0  0  0  0  0  0  0  0
   25.7750   -3.7070   31.5850 C   0  0  0  0  0  0  0  0  0  0  0  0
   26.6510   -2.8160   32.2070 C   0  0  0  0  0  0  0  0  0  0  0  0
   28.0170   -3.0500   32.1580 C   0  0  0  0  0  0  0  0  0  0  0  0
   28.5050   -4.1720   31.4870 C   0  0  0  0  0  0  0  0  0  0  0  0
   27.6400   -5.0850   30.8560 C   0  0  0  0  0  0  0  0  0  0  0  0
   28.2040   -6.2010   30.1480 N   0  0  0  0  0  0  0  0  0  0  0  0
   29.5900   -6.5300   30.2570 C   0  0  0  0  0  0  0  0  0  0  0  0
   30.4090   -6.2560   29.1400 C   0  0  0  0  0  0  0  0  0  0  0  0
   31.7580   -6.6160   29.1110 C   0  0  0  0  0  0  0  0  0  0  0  0
   32.3150   -7.2750   30.1980 C   0  0  0  0  0  0  0  0  0  0  0  0
   31.5220   -7.5650   31.3070 C   0  0  0  0  0  0  0  0  0  0  0  0
   30.1570   -7.2000   31.3580 C   0  0  0  0  0  0  0  0  0  0  0  0
   29.4170   -7.5450   32.6200 C   0  0  0  0  0  0  0  0  0  0  0  0
   29.9970   -7.2430   33.7170 O   0  0  0  0  0  0  0  0  0  0  0  0
   28.2240   -7.9740   32.5120 O   0  0  0  0  0  0  0  0  0  0  0  0
   24.6932   -3.5120   31.6271 H   0  0  0  0  0  0  0  0  0  0  0  0
   26.2599   -1.9328   32.7333 H   0  0  0  0  0  0  0  0  0  0  0  0
   28.7139   -2.3532   32.6467 H   0  0  0  0  0  0  0  0  0  0  0  0
   29.5904   -4.3467   31.4505 H   0  0  0  0  0  0  0  0  0  0  0  0
   27.6640   -7.0240   30.4870 H   0  0  0  0  0  0  0  0  0  0  0  0
   29.9727   -5.7451   28.2690 H   0  0  0  0  0  0  0  0  0  0  0  0
   32.3753   -6.3787   28.2320 H   0  0  0  0  0  0  0  0  0  0  0  0
   33.3756   -7.5666   30.1844 H   0  0  0  0  0  0  0  0  0  0  0  0
   31.9691   -8.0907   32.1635 H   0  0  0  0  0  0  0  0  0  0  0  0
  1  2  2  0
  2  3  1  0
  2  4  1  0
  4  5  2  0
  5  6  1  0
  6  7  2  0
  7  8  1  0
  8  9  2  0
  9 10  1  0
 10 11  1  0
 11 12  2  0
 12 13  1  0
 13 14  2  0
 14 15  1  0
 15 16  2  0
 16 17  1  0
 17 18  2  0
 17 19  1  0
  9  4  1  0
 16 11  1  0
  5 20  1  0
  6 21  1  0
  7 22  1  0
  8 23  1  0
 10 24  1  0
 12 25  1  0
 13 26  1  0
 14 27  1  0
 15 28  1  0
M  CHG  2   3  -1  19  -1
M  END
>  <meeko>  (6) 
{"is_sidechain": [false], "free_energy": -8.067, "intermolecular_energy": -9.996, "internal_energy": -0.934}

$$$$
3qqs_ligand
     RDKit          3D

 28 29  0  0  0  0  0  0  0  0999 V2000
   22.2190    7.3590   32.2000 O   0  0  0  0  0  0  0  0  0  0  0  0
   23.3130    6.9930   31.6560 C   0  0  0  0  0  0  0  0  0  0  0  0
   23.7170    7.3760   30.5060 O   0  0  0  0  0  0  0  0  0  0  0  0
   24.2130    6.0560   32.4400 C   0  0  0  0  0  0  0  0  0  0  0  0
   25.2540    6.6150   33.2180 C   0  0  0  0  0  0  0  0  0  0  0  0
   26.1000    5.8200   33.9920 C   0  0  0  0  0  0  0  0  0  0  0  0
   25.9260    4.4440   34.0060 C   0  0  0  0  0  0  0  0  0  0  0  0
   24.9090    3.8660   33.2450 C   0  0  0  0  0  0  0  0  0  0  0  0
   24.0430    4.6490   32.4590 C   0  0  0  0  0  0  0  0  0  0  0  0
   23.0400    3.9930   31.6680 N   0  0  0  0  0  0  0  0  0  0  0  0
   23.2630    3.6740   30.2940 C   0  0  0  0  0  0  0  0  0  0  0  0
   24.5900    3.3930   29.9030 C   0  0  0  0  0  0  0  0  0  0  0  0
   24.9290    3.1540   28.5700 C   0  0  0  0  0  0  0  0  0  0  0  0
   23.9460    3.2050   27.5920 C   0  0  0  0  0  0  0  0  0  0  0  0
   22.6300    3.4910   27.9550 C   0  0  0  0  0  0  0  0  0  0  0  0
   22.2670    3.7270   29.3010 C   0  0  0  0  0  0  0  0  0  0  0  0
   20.8120    3.9980   29.5650 C   0  0  0  0  0  0  0  0  0  0  0  0
   20.5520    4.8310   30.4970 O   0  0  0  0  0  0  0  0  0  0  0  0
   19.9590    3.4990   28.7640 O   0  0  0  0  0  0  0  0  0  0  0  0
   25.4003    7.7052   33.2126 H   0  0  0  0  0  0  0  0  0  0  0  0
   26.9008    6.2821   34.5880 H   0  0  0  0  0  0  0  0  0  0  0  0
   26.5875    3.8104   34.6150 H   0  0  0  0  0  0  0  0  0  0  0  0
   24.7813    2.7735   33.2598 H   0  0  0  0  0  0  0  0  0  0  0  0
   22.8600    3.0970   32.1670 H   0  0  0  0  0  0  0  0  0  0  0  0
   25.3784    3.3615   30.6695 H   0  0  0  0  0  0  0  0  0  0  0  0
   25.9699    2.9265   28.2964 H   0  0  0  0  0  0  0  0  0  0  0  0
   24.2027    3.0212   26.5383 H   0  0  0  0  0  0  0  0  0  0  0  0
   21.8556    3.5340   27.1750 H   0  0  0  0  0  0  0  0  0  0  0  0
  1  2  2  0
  2  3  1  0
  2  4  1  0
  4  5  2  0
  5  6  1  0
  6  7  2  0
  7  8  1  0
  8  9  2  0
  9 10  1  0
 10 11  1  0
 11 12  2  0
 12 13  1  0
 13 14  2  0
 14 15  1  0
 15 16  2  0
 16 17  1  0
 17 18  2  0
 17 19  1  0
  9  4  1  0
 16 11  1  0
  5 20  1  0
  6 21  1  0
  7 22  1  0
  8 23  1  0
 10 24  1  0
 12 25  1  0
 13 26  1  0
 14 27  1  0
 15 28  1  0
M  CHG  2   3  -1  19  -1
M  END
>  <meeko>  (7) 
{"is_sidechain": [false], "free_energy": -8.055, "intermolecular_energy": -9.999, "internal_energy": -0.916}

$$$$
3qqs_ligand
     RDKit          3D

 28 29  0  0  0  0  0  0  0  0999 V2000
   25.5630   -7.1450   31.3900 O   0  0  0  0  0  0  0  0  0  0  0  0
   25.4660   -6.0330   30.7740 C   0  0  0  0  0  0  0  0  0  0  0  0
   24.5850   -5.7690   29.8870 O   0  0  0  0  0  0  0  0  0  0  0  0
   26.4480   -4.9350   31.1370 C   0  0  0  0  0  0  0  0  0  0  0  0
   25.9980   -3.5950   31.1180 C   0  0  0  0  0  0  0  0  0  0  0  0
   26.8340   -2.5350   31.4730 C   0  0  0  0  0  0  0  0  0  0  0  0
   28.1420   -2.7910   31.8550 C   0  0  0  0  0  0  0  0  0  0  0  0
   28.6130   -4.1050   31.8800 C   0  0  0  0  0  0  0  0  0  0  0  0
   27.7870   -5.1880   31.5280 C   0  0  0  0  0  0  0  0  0  0  0  0
   28.3400   -6.5140   31.5360 N   0  0  0  0  0  0  0  0  0  0  0  0
   29.5890   -6.8050   30.9080 C   0  0  0  0  0  0  0  0  0  0  0  0
   30.6600   -7.1880   31.7450 C   0  0  0  0  0  0  0  0  0  0  0  0
   31.9430   -7.4120   31.2420 C   0  0  0  0  0  0  0  0  0  0  0  0
   32.1880   -7.2440   29.8860 C   0  0  0  0  0  0  0  0  0  0  0  0
   31.1460   -6.8560   29.0430 C   0  0  0  0  0  0  0  0  0  0  0  0
   29.8400   -6.6340   29.5330 C   0  0  0  0  0  0  0  0  0  0  0  0
   28.8000   -6.2470   28.5190 C   0  0  0  0  0  0  0  0  0  0  0  0
   27.7670   -6.9950   28.4530 O   0  0  0  0  0  0  0  0  0  0  0  0
   28.9480   -5.1400   27.9080 O   0  0  0  0  0  0  0  0  0  0  0  0
   24.9620   -3.3821   30.8156 H   0  0  0  0  0  0  0  0  0  0  0  0
   26.4570   -1.5019   31.4498 H   0  0  0  0  0  0  0  0  0  0  0  0
   28.8066   -1.9613   32.1375 H   0  0  0  0  0  0  0  0  0  0  0  0
   29.6531   -4.2978   32.1816 H   0  0  0  0  0  0  0  0  0  0  0  0
   28.4410   -6.7480   32.5450 H   0  0  0  0  0  0  0  0  0  0  0  0
   30.4784   -7.3133   32.8227 H   0  0  0  0  0  0  0  0  0  0  0  0
   32.7554   -7.7200   31.9166 H   0  0  0  0  0  0  0  0  0  0  0  0
   33.1956   -7.4154   29.4793 H   0  0  0  0  0  0  0  0  0  0  0  0
   31.3466   -6.7196   27.9701 H   0  0  0  0  0  0  0  0  0  0  0  0
  1  2  2  0
  2  3  1  0
  2  4  1  0
  4  5  2  0
  5  6  1  0
  6  7  2  0
  7  8  1  0
  8  9  2  0
  9 10  1  0
 10 11  1  0
 11 12  2  0
 12 13  1  0
 13 14  2  0
 14 15  1  0
 15 16  2  0
 16 17  1  0
 17 18  2  0
 17 19  1  0
  9  4  1  0
 16 11  1  0
  5 20  1  0
  6 21  1  0
  7 22  1  0
  8 23  1  0
 10 24  1  0
 12 25  1  0
 13 26  1  0
 14 27  1  0
 15 28  1  0
M  CHG  2   3  -1  19  -1
M  END
>  <meeko>  (8) 
{"is_sidechain": [false], "free_energy": -8.024, "intermolecular_energy": -9.75, "internal_energy": -1.127}

$$$$
3qqs_ligand
     RDKit          3D

 28 29  0  0  0  0  0  0  0  0999 V2000
   29.9320   -7.4010   33.7410 O   0  0  0  0  0  0  0  0  0  0  0  0
   29.3390   -7.5530   32.6220 C   0  0  0  0  0  0  0  0  0  0  0  0
   28.1540   -8.0080   32.4850 O   0  0  0  0  0  0  0  0  0  0  0  0
   30.0830   -7.1390   31.3660 C   0  0  0  0  0  0  0  0  0  0  0  0
   31.4650   -7.4240   31.2770 C   0  0  0  0  0  0  0  0  0  0  0  0
   32.2090   -7.1050   30.1400 C   0  0  0  0  0  0  0  0  0  0  0  0
   31.5870   -6.4900   29.0630 C   0  0  0  0  0  0  0  0  0  0  0  0
   30.2240   -6.1940   29.1260 C   0  0  0  0  0  0  0  0  0  0  0  0
   29.4550   -6.5100   30.2620 C   0  0  0  0  0  0  0  0  0  0  0  0
   28.0660   -6.1470   30.2820 N   0  0  0  0  0  0  0  0  0  0  0  0
   27.6280   -4.8980   30.8200 C   0  0  0  0  0  0  0  0  0  0  0  0
   28.5480   -4.1800   31.6150 C   0  0  0  0  0  0  0  0  0  0  0  0
   28.1940   -2.9920   32.2570 C   0  0  0  0  0  0  0  0  0  0  0  0
   26.9020   -2.5020   32.1310 C   0  0  0  0  0  0  0  0  0  0  0  0
   25.9750   -3.2010   31.3580 C   0  0  0  0  0  0  0  0  0  0  0  0
   26.3180   -4.4000   30.6940 C   0  0  0  0  0  0  0  0  0  0  0  0
   25.2370   -5.0440   29.8710 C   0  0  0  0  0  0  0  0  0  0  0  0
   24.8230   -4.3800   28.8620 O   0  0  0  0  0  0  0  0  0  0  0  0
   24.9160   -6.2450   30.1460 O   0  0  0  0  0  0  0  0  0  0  0  0
   31.9672   -7.9101   32.1264 H   0  0  0  0  0  0  0  0  0  0  0  0
   33.2828   -7.3399   30.0980 H   0  0  0  0  0  0  0  0  0  0  0  0
   32.1657   -6.2365   28.1626 H   0  0  0  0  0  0  0  0  0  0  0  0
   29.7402   -5.7029   28.2688 H   0  0  0  0  0  0  0  0  0  0  0  0
   27.7760   -6.1690   29.2820 H   0  0  0  0  0  0  0  0  0  0  0  0
   29.5710   -4.5671   31.7315 H   0  0  0  0  0  0  0  0  0  0  0  0
   28.9355   -2.4471   32.8597 H   0  0  0  0  0  0  0  0  0  0  0  0
   26.6111   -1.5695   32.6368 H   0  0  0  0  0  0  0  0  0  0  0  0
   24.9516   -2.8091   31.2630 H   0  0  0  0  0  0  0  0  0  0  0  0
  1  2  2  0
  2  3  1  0
  2  4  1  0
  4  5  2  0
  5  6  1  0
  6  7  2  0
  7  8  1  0
  8  9  2  0
  9 10  1  0
 10 11  1  0
 11 12  2  0
 12 13  1  0
 13 14  2  0
 14 15  1  0
 15 16  2  0
 16 17  1  0
 17 18  2  0
 17 19  1  0
  9  4  1  0
 16 11  1  0
  5 20  1  0
  6 21  1  0
  7 22  1  0
  8 23  1  0
 10 24  1  0
 12 25  1  0
 13 26  1  0
 14 27  1  0
 15 28  1  0
M  CHG  2   3  -1  19  -1
M  END
>  <meeko>  (9) 
{"is_sidechain": [false], "free_energy": -8.022, "intermolecular_energy": -9.944, "internal_energy": -0.931}

$$$$
