3rr4_ligand
     RDKit          3D

 32 34  0  0  0  0  0  0  0  0999 V2000
   18.1950   18.3350   14.6760 C   0  0  0  0  0  0  0  0  0  0  0  0
   19.0410   17.9410   15.7930 N   0  0  0  0  0  0  0  0  0  0  0  0
   18.5510   17.7190   17.0180 C   0  0  0  0  0  0  0  0  0  0  0  0
   17.3330   17.3010   17.3370 N   0  0  0  0  0  0  0  0  0  0  0  0
   17.1970   17.1890   18.7040 C   0  0  0  0  0  0  0  0  0  0  0  0
   16.1230   16.7950   19.5010 C   0  0  0  0  0  0  0  0  0  0  0  0
   16.3550   16.8020   20.8890 C   0  0  0  0  0  0  0  0  0  0  0  0
   15.2950   16.4090   21.7530 N   0  0  0  0  0  0  0  0  0  0  0  0
   15.4640   16.3980   23.1040 C   0  0  0  0  0  0  0  0  0  0  0  0
   14.4680   16.0280   23.9360 N   0  0  0  0  0  0  0  0  0  0  0  0
   13.8940   14.6820   24.0120 C   0  0  0  0  0  0  0  0  0  0  0  0
   16.6460   16.7620   23.6130 N   0  0  0  0  0  0  0  0  0  0  0  0
   17.7630   17.1670   22.8670 C   0  0  0  0  0  0  0  0  0  0  0  0
   18.7970   17.4820   23.4220 O   0  0  0  0  0  0  0  0  0  0  0  0
   17.6070   17.1890   21.4100 C   0  0  0  0  0  0  0  0  0  0  0  0
   18.6890   17.5860   20.5970 C   0  0  0  0  0  0  0  0  0  0  0  0
   18.4330   17.5700   19.2330 C   0  0  0  0  0  0  0  0  0  0  0  0
   19.2220   17.8840   18.1490 N   0  0  0  0  0  0  0  0  0  0  0  0
   17.2604   18.7702   15.0596 H   0  0  0  0  0  0  0  0  0  0  0  0
   18.7218   19.0804   14.0621 H   0  0  0  0  0  0  0  0  0  0  0  0
   17.9634   17.4521   14.0621 H   0  0  0  0  0  0  0  0  0  0  0  0
   20.0380   17.8290   15.6490 H   0  0  0  0  0  0  0  0  0  0  0  0
   16.6150   17.0990   16.6500 H   0  0  0  0  0  0  0  0  0  0  0  0
   15.1549   16.4973   19.0717 H   0  0  0  0  0  0  0  0  0  0  0  0
   14.3930   16.1300   21.3790 H   0  0  0  0  0  0  0  0  0  0  0  0
   14.0820   16.7280   24.5600 H   0  0  0  0  0  0  0  0  0  0  0  0
   13.7715   14.3947   25.0667 H   0  0  0  0  0  0  0  0  0  0  0  0
   12.9137   14.6727   23.5132 H   0  0  0  0  0  0  0  0  0  0  0  0
   14.5660   13.9681   23.5132 H   0  0  0  0  0  0  0  0  0  0  0  0
   16.7910   16.7600   24.6140 H   0  0  0  0  0  0  0  0  0  0  0  0
   19.6624   17.8857   21.0126 H   0  0  0  0  0  0  0  0  0  0  0  0
   20.1840   18.1990   18.1990 H   0  0  0  0  0  0  0  0  0  0  0  0
  1  2  1  0
  2  3  1  0
  3  4  1  0
  4  5  1  0
  5  6  2  0
  6  7  1  0
  7  8  1  0
  8  9  2  0
  9 10  1  0
 10 11  1  0
  9 12  1  0
 12 13  1  0
 13 14  2  0
 13 15  1  0
 15 16  1  0
 16 17  2  0
 17 18  1  0
 18  3  2  0
 17  5  1  0
 15  7  2  0
  1 19  1  0
  1 20  1  0
  1 21  1  0
  2 22  1  0
  4 23  1  0
  6 24  1  0
  8 25  1  0
 10 26  1  0
 11 27  1  0
 11 28  1  0
 11 29  1  0
 12 30  1  0
 16 31  1  0
 18 32  1  0
M  CHG  2   8   1  18   1
M  END
>  <meeko>  (1) 
{"is_sidechain": [false], "free_energy": -8.853, "intermolecular_energy": -9.888, "internal_energy": -0.077}

$$$$
3rr4_ligand
     RDKit          3D

 32 34  0  0  0  0  0  0  0  0999 V2000
   13.6420   14.3170   24.1440 C   0  0  0  0  0  0  0  0  0  0  0  0
   13.6920   15.6720   23.6130 N   0  0  0  0  0  0  0  0  0  0  0  0
   14.5470   16.0300   22.6480 C   0  0  0  0  0  0  0  0  0  0  0  0
   14.3460   15.9950   21.3370 N   0  0  0  0  0  0  0  0  0  0  0  0
   15.4600   16.4430   20.6610 C   0  0  0  0  0  0  0  0  0  0  0  0
   15.7240   16.5870   19.2990 C   0  0  0  0  0  0  0  0  0  0  0  0
   16.9980   17.0860   18.9710 C   0  0  0  0  0  0  0  0  0  0  0  0
   17.3240   17.2540   17.5960 N   0  0  0  0  0  0  0  0  0  0  0  0
   18.5420   17.7330   17.2220 C   0  0  0  0  0  0  0  0  0  0  0  0
   18.8660   17.8980   15.9230 N   0  0  0  0  0  0  0  0  0  0  0  0
   17.9140   18.2050   14.8530 C   0  0  0  0  0  0  0  0  0  0  0  0
   19.4350   18.0460   18.1680 N   0  0  0  0  0  0  0  0  0  0  0  0
   19.2320   17.9240   19.5510 C   0  0  0  0  0  0  0  0  0  0  0  0
   20.1070   18.2330   20.3340 O   0  0  0  0  0  0  0  0  0  0  0  0
   17.9280   17.4100   19.9800 C   0  0  0  0  0  0  0  0  0  0  0  0
   17.6540   17.2620   21.3550 C   0  0  0  0  0  0  0  0  0  0  0  0
   16.3910   16.7670   21.6500 C   0  0  0  0  0  0  0  0  0  0  0  0
   15.7720   16.4930   22.8490 N   0  0  0  0  0  0  0  0  0  0  0  0
   13.6434   14.3537   25.2434 H   0  0  0  0  0  0  0  0  0  0  0  0
   12.7249   13.8200   23.7949 H   0  0  0  0  0  0  0  0  0  0  0  0
   14.5200   13.7537   23.7949 H   0  0  0  0  0  0  0  0  0  0  0  0
   13.0610   16.3760   23.9790 H   0  0  0  0  0  0  0  0  0  0  0  0
   13.4820   15.6770   20.9140 H   0  0  0  0  0  0  0  0  0  0  0  0
   14.9825   16.3267   18.5293 H   0  0  0  0  0  0  0  0  0  0  0  0
   16.6550   17.0220   16.8690 H   0  0  0  0  0  0  0  0  0  0  0  0
   19.8410   17.8060   15.6570 H   0  0  0  0  0  0  0  0  0  0  0  0
   16.9547   18.5144   15.2934 H   0  0  0  0  0  0  0  0  0  0  0  0
   18.3119   19.0204   14.2310 H   0  0  0  0  0  0  0  0  0  0  0  0
   17.7606   17.3108   14.2310 H   0  0  0  0  0  0  0  0  0  0  0  0
   20.3460   18.4030   17.9090 H   0  0  0  0  0  0  0  0  0  0  0  0
   18.3856   17.5193   22.1351 H   0  0  0  0  0  0  0  0  0  0  0  0
   16.1880   16.6230   23.7640 H   0  0  0  0  0  0  0  0  0  0  0  0
  1  2  1  0
  2  3  1  0
  3  4  1  0
  4  5  1  0
  5  6  2  0
  6  7  1  0
  7  8  1  0
  8  9  2  0
  9 10  1  0
 10 11  1  0
  9 12  1  0
 12 13  1  0
 13 14  2  0
 13 15  1  0
 15 16  1  0
 16 17  2  0
 17 18  1  0
 18  3  2  0
 17  5  1  0
 15  7  2  0
  1 19  1  0
  1 20  1  0
  1 21  1  0
  2 22  1  0
  4 23  1  0
  6 24  1  0
  8 25  1  0
 10 26  1  0
 11 27  1  0
 11 28  1  0
 11 29  1  0
 12 30  1  0
 16 31  1  0
 18 32  1  0
M  CHG  2   8   1  18   1
M  END
>  <meeko>  (2) 
{"is_sidechain": [false], "free_energy": -7.547, "intermolecular_energy": -8.43, "internal_energy": -0.076}

$$$$
3rr4_ligand
     RDKit          3D

 32 34  0  0  0  0  0  0  0  0999 V2000
   12.0410   15.1240   15.0360 C   0  0  0  0  0  0  0  0  0  0  0  0
   12.0520   16.3290   15.8530 N   0  0  0  0  0  0  0  0  0  0  0  0
   12.6580   16.3800   17.0440 C   0  0  0  0  0  0  0  0  0  0  0  0
   13.9570   16.5000   17.2860 N   0  0  0  0  0  0  0  0  0  0  0  0
   14.2020   16.5150   18.6420 C   0  0  0  0  0  0  0  0  0  0  0  0
   15.3860   16.6210   19.3700 C   0  0  0  0  0  0  0  0  0  0  0  0
   15.2490   16.6020   20.7700 C   0  0  0  0  0  0  0  0  0  0  0  0
   16.4240   16.7070   21.5650 N   0  0  0  0  0  0  0  0  0  0  0  0
   16.3500   16.6930   22.9250 C   0  0  0  0  0  0  0  0  0  0  0  0
   17.4540   16.7920   23.6930 N   0  0  0  0  0  0  0  0  0  0  0  0
   18.7760   17.2030   23.2130 C   0  0  0  0  0  0  0  0  0  0  0  0
   15.1510   16.5790   23.5080 N   0  0  0  0  0  0  0  0  0  0  0  0
   13.9250   16.4680   22.8340 C   0  0  0  0  0  0  0  0  0  0  0  0
   12.8850   16.3670   23.4530 O   0  0  0  0  0  0  0  0  0  0  0  0
   13.9780   16.4800   21.3700 C   0  0  0  0  0  0  0  0  0  0  0  0
   12.7850   16.3730   20.6260 C   0  0  0  0  0  0  0  0  0  0  0  0
   12.9490   16.3950   19.2480 C   0  0  0  0  0  0  0  0  0  0  0  0
   12.0420   16.3160   18.2160 N   0  0  0  0  0  0  0  0  0  0  0  0
   12.0329   14.2386   15.6886 H   0  0  0  0  0  0  0  0  0  0  0  0
   11.1428   15.1197   14.4010 H   0  0  0  0  0  0  0  0  0  0  0  0
   12.9390   15.1033   14.4010 H   0  0  0  0  0  0  0  0  0  0  0  0
   11.5880   17.1650   15.5160 H   0  0  0  0  0  0  0  0  0  0  0  0
   14.6560   16.5680   16.5550 H   0  0  0  0  0  0  0  0  0  0  0  0
   16.3666   16.7137   18.8802 H   0  0  0  0  0  0  0  0  0  0  0  0
   17.3400   16.7950   21.1360 H   0  0  0  0  0  0  0  0  0  0  0  0
   17.3730   16.5680   24.6790 H   0  0  0  0  0  0  0  0  0  0  0  0
   19.4312   17.4067   24.0728 H   0  0  0  0  0  0  0  0  0  0  0  0
   19.2112   16.3978   22.6030 H   0  0  0  0  0  0  0  0  0  0  0  0
   18.6780   18.1131   22.6030 H   0  0  0  0  0  0  0  0  0  0  0  0
   15.0750   16.5670   24.5170 H   0  0  0  0  0  0  0  0  0  0  0  0
   11.7979   16.2791   21.1023 H   0  0  0  0  0  0  0  0  0  0  0  0
   11.0380   16.2220   18.3270 H   0  0  0  0  0  0  0  0  0  0  0  0
  1  2  1  0
  2  3  1  0
  3  4  1  0
  4  5  1  0
  5  6  2  0
  6  7  1  0
  7  8  1  0
  8  9  2  0
  9 10  1  0
 10 11  1  0
  9 12  1  0
 12 13  1  0
 13 14  2  0
 13 15  1  0
 15 16  1  0
 16 17  2  0
 17 18  1  0
 18  3  2  0
 17  5  1  0
 15  7  2  0
  1 19  1  0
  1 20  1  0
  1 21  1  0
  2 22  1  0
  4 23  1  0
  6 24  1  0
  8 25  1  0
 10 26  1  0
 11 27  1  0
 11 28  1  0
 11 29  1  0
 12 30  1  0
 16 31  1  0
 18 32  1  0
M  CHG  2   8   1  18   1
M  END
>  <meeko>  (3) 
{"is_sidechain": [false], "free_energy": -7.489, "intermolecular_energy": -8.365, "internal_energy": -0.077}

$$$$
3rr4_ligand
     RDKit          3D

 32 34  0  0  0  0  0  0  0  0999 V2000
   14.0150   14.7210   24.0790 C   0  0  0  0  0  0  0  0  0  0  0  0
   14.7110   15.8250   23.4330 N   0  0  0  0  0  0  0  0  0  0  0  0
   14.6450   16.0380   22.1140 C   0  0  0  0  0  0  0  0  0  0  0  0
   15.6540   16.2370   21.2770 N   0  0  0  0  0  0  0  0  0  0  0  0
   15.1940   16.4210   19.9920 C   0  0  0  0  0  0  0  0  0  0  0  0
   15.8620   16.6600   18.7910 C   0  0  0  0  0  0  0  0  0  0  0  0
   15.0460   16.7970   17.6530 C   0  0  0  0  0  0  0  0  0  0  0  0
   15.6730   17.0420   16.3990 N   0  0  0  0  0  0  0  0  0  0  0  0
   14.9320   17.1830   15.2650 C   0  0  0  0  0  0  0  0  0  0  0  0
   15.5110   17.4160   14.0690 N   0  0  0  0  0  0  0  0  0  0  0  0
   15.9070   16.3790   13.1130 C   0  0  0  0  0  0  0  0  0  0  0  0
   13.6000   17.0890   15.3440 N   0  0  0  0  0  0  0  0  0  0  0  0
   12.8690   16.8510   16.5180 C   0  0  0  0  0  0  0  0  0  0  0  0
   11.6570   16.7830   16.4890 O   0  0  0  0  0  0  0  0  0  0  0  0
   13.6430   16.6960   17.7530 C   0  0  0  0  0  0  0  0  0  0  0  0
   12.9750   16.4540   18.9710 C   0  0  0  0  0  0  0  0  0  0  0  0
   13.8030   16.3230   20.0770 C   0  0  0  0  0  0  0  0  0  0  0  0
   13.5270   16.0870   21.4050 N   0  0  0  0  0  0  0  0  0  0  0  0
   14.0851   14.8322   25.1711 H   0  0  0  0  0  0  0  0  0  0  0  0
   12.9573   14.7274   23.7769 H   0  0  0  0  0  0  0  0  0  0  0  0
   14.4768   13.7694   23.7769 H   0  0  0  0  0  0  0  0  0  0  0  0
   15.2670   16.4610   23.9940 H   0  0  0  0  0  0  0  0  0  0  0  0
   16.6250   16.2490   21.5680 H   0  0  0  0  0  0  0  0  0  0  0  0
   16.9580   16.7366   18.7370 H   0  0  0  0  0  0  0  0  0  0  0  0
   16.6820   17.1150   16.3250 H   0  0  0  0  0  0  0  0  0  0  0  0
   15.6890   18.3790   13.8020 H   0  0  0  0  0  0  0  0  0  0  0  0
   16.2476   15.4872   13.6596 H   0  0  0  0  0  0  0  0  0  0  0  0
   15.0463   16.1152   12.4808 H   0  0  0  0  0  0  0  0  0  0  0  0
   16.7244   16.7560   12.4808 H   0  0  0  0  0  0  0  0  0  0  0  0
   13.0330   17.1910   14.5120 H   0  0  0  0  0  0  0  0  0  0  0  0
   11.8800   16.3750   19.0394 H   0  0  0  0  0  0  0  0  0  0  0  0
   12.5990   15.9660   21.7960 H   0  0  0  0  0  0  0  0  0  0  0  0
  1  2  1  0
  2  3  1  0
  3  4  1  0
  4  5  1  0
  5  6  2  0
  6  7  1  0
  7  8  1  0
  8  9  2  0
  9 10  1  0
 10 11  1  0
  9 12  1  0
 12 13  1  0
 13 14  2  0
 13 15  1  0
 15 16  1  0
 16 17  2  0
 17 18  1  0
 18  3  2  0
 17  5  1  0
 15  7  2  0
  1 19  1  0
  1 20  1  0
  1 21  1  0
  2 22  1  0
  4 23  1  0
  6 24  1  0
  8 25  1  0
 10 26  1  0
 11 27  1  0
 11 28  1  0
 11 29  1  0
 12 30  1  0
 16 31  1  0
 18 32  1  0
M  CHG  2   8   1  18   1
M  END
>  <meeko>  (4) 
{"is_sidechain": [false], "free_energy": -7.231, "intermolecular_energy": -8.081, "internal_energy": -0.073}

$$$$
3rr4_ligand
     RDKit          3D

 32 34  0  0  0  0  0  0  0  0999 V2000
   15.1000   15.5620   13.9020 C   0  0  0  0  0  0  0  0  0  0  0  0
   13.8370   15.8570   14.5610 N   0  0  0  0  0  0  0  0  0  0  0  0
   13.7260   15.9390   15.8920 C   0  0  0  0  0  0  0  0  0  0  0  0
   14.4380   15.2870   16.8020 N   0  0  0  0  0  0  0  0  0  0  0  0
   14.0350   15.6320   18.0750 C   0  0  0  0  0  0  0  0  0  0  0  0
   14.4750   15.2190   19.3320 C   0  0  0  0  0  0  0  0  0  0  0  0
   13.8160   15.7970   20.4320 C   0  0  0  0  0  0  0  0  0  0  0  0
   14.2230   15.4130   21.7410 N   0  0  0  0  0  0  0  0  0  0  0  0
   13.6190   15.9410   22.8420 C   0  0  0  0  0  0  0  0  0  0  0  0
   13.9930   15.5870   24.0880 N   0  0  0  0  0  0  0  0  0  0  0  0
   14.1770   14.2090   24.5510 C   0  0  0  0  0  0  0  0  0  0  0  0
   12.6330   16.8300   22.6770 N   0  0  0  0  0  0  0  0  0  0  0  0
   12.1440   17.2850   21.4440 C   0  0  0  0  0  0  0  0  0  0  0  0
   11.2410   18.0960   21.3960 O   0  0  0  0  0  0  0  0  0  0  0  0
   12.7770   16.7320   20.2430 C   0  0  0  0  0  0  0  0  0  0  0  0
   12.3380   17.1450   18.9680 C   0  0  0  0  0  0  0  0  0  0  0  0
   13.0050   16.5590   17.9000 C   0  0  0  0  0  0  0  0  0  0  0  0
   12.8620   16.7060   16.5390 N   0  0  0  0  0  0  0  0  0  0  0  0
   15.8758   15.3808   14.6605 H   0  0  0  0  0  0  0  0  0  0  0  0
   14.9853   14.6665   13.2736 H   0  0  0  0  0  0  0  0  0  0  0  0
   15.3939   16.4157   13.2736 H   0  0  0  0  0  0  0  0  0  0  0  0
   13.0050   16.0090   14.0020 H   0  0  0  0  0  0  0  0  0  0  0  0
   15.1720   14.6290   16.5700 H   0  0  0  0  0  0  0  0  0  0  0  0
   15.2867   14.4870   19.4556 H   0  0  0  0  0  0  0  0  0  0  0  0
   14.9700   14.7410   21.8790 H   0  0  0  0  0  0  0  0  0  0  0  0
   14.1640   16.3250   24.7640 H   0  0  0  0  0  0  0  0  0  0  0  0
   14.1797   14.1890   25.6508 H   0  0  0  0  0  0  0  0  0  0  0  0
   13.3545   13.5829   24.1749 H   0  0  0  0  0  0  0  0  0  0  0  0
   15.1350   13.8206   24.1749 H   0  0  0  0  0  0  0  0  0  0  0  0
   12.1720   17.2330   23.4830 H   0  0  0  0  0  0  0  0  0  0  0  0
   11.5281   17.8764   18.8298 H   0  0  0  0  0  0  0  0  0  0  0  0
   12.1900   17.3160   16.0850 H   0  0  0  0  0  0  0  0  0  0  0  0
  1  2  1  0
  2  3  1  0
  3  4  1  0
  4  5  1  0
  5  6  2  0
  6  7  1  0
  7  8  1  0
  8  9  2  0
  9 10  1  0
 10 11  1  0
  9 12  1  0
 12 13  1  0
 13 14  2  0
 13 15  1  0
 15 16  1  0
 16 17  2  0
 17 18  1  0
 18  3  2  0
 17  5  1  0
 15  7  2  0
  1 19  1  0
  1 20  1  0
  1 21  1  0
  2 22  1  0
  4 23  1  0
  6 24  1  0
  8 25  1  0
 10 26  1  0
 11 27  1  0
 11 28  1  0
 11 29  1  0
 12 30  1  0
 16 31  1  0
 18 32  1  0
M  CHG  2   8   1  18   1
M  END
>  <meeko>  (5) 
{"is_sidechain": [false], "free_energy": -7.169, "intermolecular_energy": -8.005, "internal_energy": -0.079}

$$$$
3rr4_ligand
     RDKit          3D

 32 34  0  0  0  0  0  0  0  0999 V2000
   18.4850   18.9010   13.4640 C   0  0  0  0  0  0  0  0  0  0  0  0
   19.0100   18.3230   14.6930 N   0  0  0  0  0  0  0  0  0  0  0  0
   18.2150   17.9410   15.6990 C   0  0  0  0  0  0  0  0  0  0  0  0
   18.5280   17.8500   16.9850 N   0  0  0  0  0  0  0  0  0  0  0  0
   17.4460   17.4190   17.7210 C   0  0  0  0  0  0  0  0  0  0  0  0
   17.2880   17.1750   19.0850 C   0  0  0  0  0  0  0  0  0  0  0  0
   16.0130   16.7350   19.4860 C   0  0  0  0  0  0  0  0  0  0  0  0
   15.7930   16.4710   20.8670 N   0  0  0  0  0  0  0  0  0  0  0  0
   14.5790   16.0420   21.3100 C   0  0  0  0  0  0  0  0  0  0  0  0
   14.3550   15.7870   22.6160 N   0  0  0  0  0  0  0  0  0  0  0  0
   13.2870   16.3890   23.4170 C   0  0  0  0  0  0  0  0  0  0  0  0
   13.5890   15.8720   20.4270 N   0  0  0  0  0  0  0  0  0  0  0  0
   13.6830   16.0980   19.0460 C   0  0  0  0  0  0  0  0  0  0  0  0
   12.7250   15.9140   18.3220 O   0  0  0  0  0  0  0  0  0  0  0  0
   14.9800   16.5600   18.5430 C   0  0  0  0  0  0  0  0  0  0  0  0
   15.1470   16.8080   17.1650 C   0  0  0  0  0  0  0  0  0  0  0  0
   16.4140   17.2410   16.7970 C   0  0  0  0  0  0  0  0  0  0  0  0
   16.9470   17.5770   15.5730 N   0  0  0  0  0  0  0  0  0  0  0  0
   17.7642   19.6945   13.7107 H   0  0  0  0  0  0  0  0  0  0  0  0
   19.3119   19.3264   12.8764 H   0  0  0  0  0  0  0  0  0  0  0  0
   17.9822   18.1187   12.8764 H   0  0  0  0  0  0  0  0  0  0  0  0
   20.0110   18.2020   14.8010 H   0  0  0  0  0  0  0  0  0  0  0  0
   19.4460   18.0720   17.3530 H   0  0  0  0  0  0  0  0  0  0  0  0
   18.1092   17.3177   19.8029 H   0  0  0  0  0  0  0  0  0  0  0  0
   16.5360   16.5970   21.5470 H   0  0  0  0  0  0  0  0  0  0  0  0
   14.9680   15.1300   23.0870 H   0  0  0  0  0  0  0  0  0  0  0  0
   13.5138   16.2612   24.4858 H   0  0  0  0  0  0  0  0  0  0  0  0
   13.2135   17.4614   23.1834 H   0  0  0  0  0  0  0  0  0  0  0  0
   12.3315   15.8966   23.1834 H   0  0  0  0  0  0  0  0  0  0  0  0
   12.6800   15.5540   20.7370 H   0  0  0  0  0  0  0  0  0  0  0  0
   14.3347   16.6689   16.4364 H   0  0  0  0  0  0  0  0  0  0  0  0
   16.4470   17.5540   14.6910 H   0  0  0  0  0  0  0  0  0  0  0  0
  1  2  1  0
  2  3  1  0
  3  4  1  0
  4  5  1  0
  5  6  2  0
  6  7  1  0
  7  8  1  0
  8  9  2  0
  9 10  1  0
 10 11  1  0
  9 12  1  0
 12 13  1  0
 13 14  2  0
 13 15  1  0
 15 16  1  0
 16 17  2  0
 17 18  1  0
 18  3  2  0
 17  5  1  0
 15  7  2  0
  1 19  1  0
  1 20  1  0
  1 21  1  0
  2 22  1  0
  4 23  1  0
  6 24  1  0
  8 25  1  0
 10 26  1  0
 11 27  1  0
 11 28  1  0
 11 29  1  0
 12 30  1  0
 16 31  1  0
 18 32  1  0
M  CHG  2   8   1  18   1
M  END
>  <meeko>  (6) 
{"is_sidechain": [false], "free_energy": -7.15, "intermolecular_energy": -7.985, "internal_energy": -0.079}

$$$$
3rr4_ligand
     RDKit          3D

 32 34  0  0  0  0  0  0  0  0999 V2000
   15.6540   16.2980   13.1870 C   0  0  0  0  0  0  0  0  0  0  0  0
   14.5110   16.0590   14.0560 N   0  0  0  0  0  0  0  0  0  0  0  0
   14.6140   16.0630   15.3900 C   0  0  0  0  0  0  0  0  0  0  0  0
   13.7690   15.5370   16.2670 N   0  0  0  0  0  0  0  0  0  0  0  0
   14.2120   15.7410   17.5560 C   0  0  0  0  0  0  0  0  0  0  0  0
   13.6750   15.3790   18.7900 C   0  0  0  0  0  0  0  0  0  0  0  0
   14.4210   15.7650   19.9200 C   0  0  0  0  0  0  0  0  0  0  0  0
   13.9220   15.4220   21.2080 N   0  0  0  0  0  0  0  0  0  0  0  0
   14.6020   15.7710   22.3340 C   0  0  0  0  0  0  0  0  0  0  0  0
   14.1420   15.4530   23.5620 N   0  0  0  0  0  0  0  0  0  0  0  0
   13.8970   14.0900   24.0400 C   0  0  0  0  0  0  0  0  0  0  0  0
   15.7530   16.4430   22.2160 N   0  0  0  0  0  0  0  0  0  0  0  0
   16.3450   16.8370   21.0060 C   0  0  0  0  0  0  0  0  0  0  0  0
   17.3950   17.4470   21.0010 O   0  0  0  0  0  0  0  0  0  0  0  0
   15.6320   16.4740   19.7780 C   0  0  0  0  0  0  0  0  0  0  0  0
   16.1680   16.8360   18.5250 C   0  0  0  0  0  0  0  0  0  0  0  0
   15.4130   16.4440   17.4290 C   0  0  0  0  0  0  0  0  0  0  0  0
   15.6060   16.6110   16.0760 N   0  0  0  0  0  0  0  0  0  0  0  0
   16.5480   16.4849   13.8001 H   0  0  0  0  0  0  0  0  0  0  0  0
   15.8227   15.4157   12.5521 H   0  0  0  0  0  0  0  0  0  0  0  0
   15.4551   17.1740   12.5521 H   0  0  0  0  0  0  0  0  0  0  0  0
   13.6000   15.8820   13.6470 H   0  0  0  0  0  0  0  0  0  0  0  0
   12.9180   15.0540   16.0010 H   0  0  0  0  0  0  0  0  0  0  0  0
   12.7278   14.8264   18.8758 H   0  0  0  0  0  0  0  0  0  0  0  0
   13.0510   14.9110   21.3110 H   0  0  0  0  0  0  0  0  0  0  0  0
   13.9500   16.2090   24.2110 H   0  0  0  0  0  0  0  0  0  0  0  0
   13.8955   14.0819   25.1400 H   0  0  0  0  0  0  0  0  0  0  0  0
   12.9218   13.7412   23.6695 H   0  0  0  0  0  0  0  0  0  0  0  0
   14.6897   13.4234   23.6695 H   0  0  0  0  0  0  0  0  0  0  0  0
   16.2730   16.7110   23.0420 H   0  0  0  0  0  0  0  0  0  0  0  0
   17.1141   17.3880   18.4240 H   0  0  0  0  0  0  0  0  0  0  0  0
   16.3960   17.0870   15.6540 H   0  0  0  0  0  0  0  0  0  0  0  0
  1  2  1  0
  2  3  1  0
  3  4  1  0
  4  5  1  0
  5  6  2  0
  6  7  1  0
  7  8  1  0
  8  9  2  0
  9 10  1  0
 10 11  1  0
  9 12  1  0
 12 13  1  0
 13 14  2  0
 13 15  1  0
 15 16  1  0
 16 17  2  0
 17 18  1  0
 18  3  2  0
 17  5  1  0
 15  7  2  0
  1 19  1  0
  1 20  1  0
  1 21  1  0
  2 22  1  0
  4 23  1  0
  6 24  1  0
  8 25  1  0
 10 26  1  0
 11 27  1  0
 11 28  1  0
 11 29  1  0
 12 30  1  0
 16 31  1  0
 18 32  1  0
M  CHG  2   8   1  18   1
M  END
>  <meeko>  (7) 
{"is_sidechain": [false], "free_energy": -7.081, "intermolecular_energy": -7.906, "internal_energy": -0.081}

$$$$
3rr4_ligand
     RDKit          3D

 32 34  0  0  0  0  0  0  0  0999 V2000
   13.8980   14.1660   23.7050 C   0  0  0  0  0  0  0  0  0  0  0  0
   13.9500   15.5460   23.2440 N   0  0  0  0  0  0  0  0  0  0  0  0
   14.3960   15.8780   22.0270 C   0  0  0  0  0  0  0  0  0  0  0  0
   13.7170   15.8690   20.8880 N   0  0  0  0  0  0  0  0  0  0  0  0
   14.5150   16.2740   19.8400 C   0  0  0  0  0  0  0  0  0  0  0  0
   14.2550   16.4230   18.4790 C   0  0  0  0  0  0  0  0  0  0  0  0
   15.3350   16.8670   17.6930 C   0  0  0  0  0  0  0  0  0  0  0  0
   15.1280   17.0390   16.2960 N   0  0  0  0  0  0  0  0  0  0  0  0
   16.1380   17.4660   15.4890 C   0  0  0  0  0  0  0  0  0  0  0  0
   15.9580   17.6330   14.1620 N   0  0  0  0  0  0  0  0  0  0  0  0
   16.8720   17.1500   13.1240 C   0  0  0  0  0  0  0  0  0  0  0  0
   17.3350   17.7240   16.0280 N   0  0  0  0  0  0  0  0  0  0  0  0
   17.6610   17.5940   17.3870 C   0  0  0  0  0  0  0  0  0  0  0  0
   18.7790   17.8530   17.7830 O   0  0  0  0  0  0  0  0  0  0  0  0
   16.5900   17.1350   18.2770 C   0  0  0  0  0  0  0  0  0  0  0  0
   16.8450   16.9820   19.6560 C   0  0  0  0  0  0  0  0  0  0  0  0
   15.7640   16.5420   20.4060 C   0  0  0  0  0  0  0  0  0  0  0  0
   15.6280   16.2810   21.7510 N   0  0  0  0  0  0  0  0  0  0  0  0
   13.8973   14.1466   24.8048 H   0  0  0  0  0  0  0  0  0  0  0  0
   12.9812   13.6882   23.3292 H   0  0  0  0  0  0  0  0  0  0  0  0
   14.7762   13.6205   23.3292 H   0  0  0  0  0  0  0  0  0  0  0  0
   13.6390   16.2900   23.8590 H   0  0  0  0  0  0  0  0  0  0  0  0
   12.7430   15.5960   20.8220 H   0  0  0  0  0  0  0  0  0  0  0  0
   13.2672   16.2071   18.0459 H   0  0  0  0  0  0  0  0  0  0  0  0
   14.2250   16.8470   15.8740 H   0  0  0  0  0  0  0  0  0  0  0  0
   15.1290   18.1280   13.8510 H   0  0  0  0  0  0  0  0  0  0  0  0
   17.7505   16.6858   13.5960 H   0  0  0  0  0  0  0  0  0  0  0  0
   16.3563   16.4067   12.4983 H   0  0  0  0  0  0  0  0  0  0  0  0
   17.1956   17.9949   12.4983 H   0  0  0  0  0  0  0  0  0  0  0  0
   18.0980   18.0430   15.4450 H   0  0  0  0  0  0  0  0  0  0  0  0
   17.8271   17.1955   20.1030 H   0  0  0  0  0  0  0  0  0  0  0  0
   16.3630   16.3800   22.4420 H   0  0  0  0  0  0  0  0  0  0  0  0
  1  2  1  0
  2  3  1  0
  3  4  1  0
  4  5  1  0
  5  6  2  0
  6  7  1  0
  7  8  1  0
  8  9  2  0
  9 10  1  0
 10 11  1  0
  9 12  1  0
 12 13  1  0
 13 14  2  0
 13 15  1  0
 15 16  1  0
 16 17  2  0
 17 18  1  0
 18  3  2  0
 17  5  1  0
 15  7  2  0
  1 19  1  0
  1 20  1  0
  1 21  1  0
  2 22  1  0
  4 23  1  0
  6 24  1  0
  8 25  1  0
 10 26  1  0
 11 27  1  0
 11 28  1  0
 11 29  1  0
 12 30  1  0
 16 31  1  0
 18 32  1  0
M  CHG  2   8   1  18   1
M  END
>  <meeko>  (8) 
{"is_sidechain": [false], "free_energy": -6.922, "intermolecular_energy": -7.737, "internal_energy": -0.072}

$$$$
3rr4_ligand
     RDKit          3D

 32 34  0  0  0  0  0  0  0  0999 V2000
   10.8360   16.4150   14.4320 C   0  0  0  0  0  0  0  0  0  0  0  0
   11.6000   15.3790   15.1130 N   0  0  0  0  0  0  0  0  0  0  0  0
   12.4880   15.6600   16.0730 C   0  0  0  0  0  0  0  0  0  0  0  0
   12.3020   15.6080   17.3850 N   0  0  0  0  0  0  0  0  0  0  0  0
   13.4510   15.9700   18.0560 C   0  0  0  0  0  0  0  0  0  0  0  0
   13.7400   16.0670   19.4160 C   0  0  0  0  0  0  0  0  0  0  0  0
   15.0480   16.4750   19.7380 C   0  0  0  0  0  0  0  0  0  0  0  0
   15.4010   16.5920   21.1110 N   0  0  0  0  0  0  0  0  0  0  0  0
   16.6520   16.9840   21.4790 C   0  0  0  0  0  0  0  0  0  0  0  0
   17.0020   17.0990   22.7760 N   0  0  0  0  0  0  0  0  0  0  0  0
   18.3740   17.2540   23.2650 C   0  0  0  0  0  0  0  0  0  0  0  0
   17.5510   17.2600   20.5270 N   0  0  0  0  0  0  0  0  0  0  0  0
   17.3240   17.1820   19.1450 C   0  0  0  0  0  0  0  0  0  0  0  0
   18.2060   17.4550   18.3560 O   0  0  0  0  0  0  0  0  0  0  0  0
   15.9840   16.7630   18.7230 C   0  0  0  0  0  0  0  0  0  0  0  0
   15.6840   16.6630   17.3490 C   0  0  0  0  0  0  0  0  0  0  0  0
   14.3870   16.2580   17.0600 C   0  0  0  0  0  0  0  0  0  0  0  0
   13.7380   16.0500   15.8650 N   0  0  0  0  0  0  0  0  0  0  0  0
   10.3558   17.0662   15.1772 H   0  0  0  0  0  0  0  0  0  0  0  0
   11.5104   17.0138   13.8022 H   0  0  0  0  0  0  0  0  0  0  0  0
   10.0647   15.9476   13.8022 H   0  0  0  0  0  0  0  0  0  0  0  0
   11.4620   14.4080   14.8580 H   0  0  0  0  0  0  0  0  0  0  0  0
   11.4250   15.3370   17.8130 H   0  0  0  0  0  0  0  0  0  0  0  0
   12.9922   15.8388   20.1898 H   0  0  0  0  0  0  0  0  0  0  0  0
   14.7280   16.3840   21.8420 H   0  0  0  0  0  0  0  0  0  0  0  0
   16.2650   17.0780   23.4740 H   0  0  0  0  0  0  0  0  0  0  0  0
   18.3734   17.2539   24.3650 H   0  0  0  0  0  0  0  0  0  0  0  0
   18.9903   16.4198   22.8986 H   0  0  0  0  0  0  0  0  0  0  0  0
   18.7886   18.2047   22.8986 H   0  0  0  0  0  0  0  0  0  0  0  0
   18.4860   17.5520   20.7810 H   0  0  0  0  0  0  0  0  0  0  0  0
   16.4216   16.8887   16.5648 H   0  0  0  0  0  0  0  0  0  0  0  0
   14.1500   16.1740   14.9470 H   0  0  0  0  0  0  0  0  0  0  0  0
  1  2  1  0
  2  3  1  0
  3  4  1  0
  4  5  1  0
  5  6  2  0
  6  7  1  0
  7  8  1  0
  8  9  2  0
  9 10  1  0
 10 11  1  0
  9 12  1  0
 12 13  1  0
 13 14  2  0
 13 15  1  0
 15 16  1  0
 16 17  2  0
 17 18  1  0
 18  3  2  0
 17  5  1  0
 15  7  2  0
  1 19  1  0
  1 20  1  0
  1 21  1  0
  2 22  1  0
  4 23  1  0
  6 24  1  0
  8 25  1  0
 10 26  1  0
 11 27  1  0
 11 28  1  0
 11 29  1  0
 12 30  1  0
 16 31  1  0
 18 32  1  0
M  CHG  2   8   1  18   1
M  END
>  <meeko>  (9) 
{"is_sidechain": [false], "free_energy": -6.825, "intermolecular_energy": -7.623, "internal_energy": -0.077}

$$$$
