3qgy_ligand
     RDKit          3D

 54 57  0  0  0  0  0  0  0  0999 V2000
   41.6170   53.2150   16.0560 C   0  0  0  0  0  0  0  0  0  0  0  0
   42.8880   52.7450   15.5560 N   0  0  0  0  0  0  0  0  0  0  0  0
   42.8090   51.9940   14.3920 C   0  0  0  0  0  0  0  0  0  0  0  0
   43.9780   51.7250   13.8030 N   0  0  0  0  0  0  0  0  0  0  0  0
   43.9350   50.9900   12.6790 C   0  0  0  0  0  0  0  0  0  0  0  0
   42.7710   50.5210   12.1230 C   0  0  0  0  0  0  0  0  0  0  0  0
   41.6090   50.8450   12.7940 C   0  0  0  0  0  0  0  0  0  0  0  0
   40.2740   50.4030   12.3000 C   0  0  0  0  0  0  0  0  0  0  0  0
   40.2130   49.6620   11.1750 C   0  0  0  0  0  0  0  0  0  0  0  0
   39.0150   49.2190   10.6700 N   0  0  0  0  0  0  0  0  0  0  0  0
   37.7990   49.4850   11.2410 C   0  0  0  0  0  0  0  0  0  0  0  0
   36.7390   49.0680   10.7790 O   0  0  0  0  0  0  0  0  0  0  0  0
   37.8170   50.3290   12.4890 C   0  0  0  0  0  0  0  0  0  0  0  0
   36.5770   50.5940   13.0360 N   0  0  0  0  0  0  0  0  0  0  0  0
   36.2320   50.6990   14.3680 C   0  0  0  0  0  0  0  0  0  0  0  0
   37.0060   50.6070   15.3150 O   0  0  0  0  0  0  0  0  0  0  0  0
   34.7910   50.9720   14.6390 C   0  0  0  0  0  0  0  0  0  0  0  0
   33.8400   50.4860   13.7400 C   0  0  0  0  0  0  0  0  0  0  0  0
   32.4760   50.7200   13.9600 C   0  0  0  0  0  0  0  0  0  0  0  0
   32.0130   51.4500   15.0660 C   0  0  0  0  0  0  0  0  0  0  0  0
   30.6610   51.6770   15.2800 N   0  0  0  0  0  0  0  0  0  0  0  0
   30.1910   52.9310   15.8790 C   0  0  0  0  0  0  0  0  0  0  0  0
   28.7840   53.2650   15.3920 C   0  0  0  0  0  0  0  0  0  0  0  0
   27.7800   52.1630   15.7210 C   0  0  0  0  0  0  0  0  0  0  0  0
   28.4250   50.7820   15.7880 C   0  0  0  0  0  0  0  0  0  0  0  0
   29.6600   50.6760   14.8950 C   0  0  0  0  0  0  0  0  0  0  0  0
   32.9940   51.9430   15.9430 C   0  0  0  0  0  0  0  0  0  0  0  0
   34.3630   51.7160   15.7390 C   0  0  0  0  0  0  0  0  0  0  0  0
   39.0070   50.7460   12.9500 C   0  0  0  0  0  0  0  0  0  0  0  0
   41.6220   51.5930   13.9200 N   0  0  0  0  0  0  0  0  0  0  0  0
   41.6311   53.2098   17.1559 H   0  0  0  0  0  0  0  0  0  0  0  0
   41.4375   54.2390   15.6964 H   0  0  0  0  0  0  0  0  0  0  0  0
   40.8145   52.5542   15.6964 H   0  0  0  0  0  0  0  0  0  0  0  0
   43.5780   53.4660   15.3730 H   0  0  0  0  0  0  0  0  0  0  0  0
   44.8843   50.7512   12.1771 H   0  0  0  0  0  0  0  0  0  0  0  0
   42.7645   49.9236   11.1994 H   0  0  0  0  0  0  0  0  0  0  0  0
   41.1448   49.4063   10.6493 H   0  0  0  0  0  0  0  0  0  0  0  0
   38.9990   48.6610    9.8250 H   0  0  0  0  0  0  0  0  0  0  0  0
   35.8620   50.7660   12.3330 H   0  0  0  0  0  0  0  0  0  0  0  0
   34.1626   49.9172   12.8555 H   0  0  0  0  0  0  0  0  0  0  0  0
   31.7446   50.3188   13.2430 H   0  0  0  0  0  0  0  0  0  0  0  0
   30.1792   52.8264   16.9739 H   0  0  0  0  0  0  0  0  0  0  0  0
   30.8711   53.7427   15.5815 H   0  0  0  0  0  0  0  0  0  0  0  0
   28.4554   54.1980   15.8731 H   0  0  0  0  0  0  0  0  0  0  0  0
   28.8226   53.3692   14.2976 H   0  0  0  0  0  0  0  0  0  0  0  0
   27.3204   52.3847   16.6955 H   0  0  0  0  0  0  0  0  0  0  0  0
   27.0321   52.1424   14.9147 H   0  0  0  0  0  0  0  0  0  0  0  0
   28.7217   50.5800   16.8278 H   0  0  0  0  0  0  0  0  0  0  0  0
   27.6874   50.0480   15.4314 H   0  0  0  0  0  0  0  0  0  0  0  0
   30.0953   49.6710   14.9974 H   0  0  0  0  0  0  0  0  0  0  0  0
   29.3607   50.8557   13.8519 H   0  0  0  0  0  0  0  0  0  0  0  0
   32.6774   52.5271   16.8197 H   0  0  0  0  0  0  0  0  0  0  0  0
   35.0995   52.1247   16.4465 H   0  0  0  0  0  0  0  0  0  0  0  0
   39.0315   51.3718   13.8543 H   0  0  0  0  0  0  0  0  0  0  0  0
  1  2  1  0
  2  3  1  0
  3  4  2  0
  4  5  1  0
  5  6  2  0
  6  7  1  0
  7  8  1  0
  8  9  2  0
  9 10  1  0
 10 11  1  0
 11 12  2  0
 11 13  1  0
 13 14  1  0
 14 15  1  0
 15 16  2  0
 15 17  1  0
 17 18  2  0
 18 19  1  0
 19 20  2  0
 20 21  1  0
 21 22  1  0
 22 23  1  0
 23 24  1  0
 24 25  1  0
 25 26  1  0
 20 27  1  0
 27 28  2  0
 13 29  2  0
  7 30  2  0
 30  3  1  0
 29  8  1  0
 28 17  1  0
 26 21  1  0
  1 31  1  0
  1 32  1  0
  1 33  1  0
  2 34  1  0
  5 35  1  0
  6 36  1  0
  9 37  1  0
 10 38  1  0
 14 39  1  0
 18 40  1  0
 19 41  1  0
 22 42  1  0
 22 43  1  0
 23 44  1  0
 23 45  1  0
 24 46  1  0
 24 47  1  0
 25 48  1  0
 25 49  1  0
 26 50  1  0
 26 51  1  0
 27 52  1  0
 28 53  1  0
 29 54  1  0
M  END
>  <meeko>  (1) 
{"is_sidechain": [false], "free_energy": -9.463, "intermolecular_energy": -12.229, "internal_energy": -0.696}

$$$$
3qgy_ligand
     RDKit          3D

 54 57  0  0  0  0  0  0  0  0999 V2000
   27.3320   54.8580   16.9660 C   0  0  0  0  0  0  0  0  0  0  0  0
   26.8960   54.5160   15.6320 N   0  0  0  0  0  0  0  0  0  0  0  0
   27.7590   53.6790   14.9400 C   0  0  0  0  0  0  0  0  0  0  0  0
   27.4260   53.4360   13.6680 N   0  0  0  0  0  0  0  0  0  0  0  0
   28.2490   52.6370   12.9680 C   0  0  0  0  0  0  0  0  0  0  0  0
   29.3840   52.0710   13.4920 C   0  0  0  0  0  0  0  0  0  0  0  0
   29.6530   52.3710   14.8120 C   0  0  0  0  0  0  0  0  0  0  0  0
   30.8520   51.8220   15.5080 C   0  0  0  0  0  0  0  0  0  0  0  0
   30.7070   51.3260   16.7530 C   0  0  0  0  0  0  0  0  0  0  0  0
   31.7690   50.8020   17.4470 N   0  0  0  0  0  0  0  0  0  0  0  0
   33.0470   50.7390   16.9560 C   0  0  0  0  0  0  0  0  0  0  0  0
   33.9820   50.2540   17.5900 O   0  0  0  0  0  0  0  0  0  0  0  0
   33.2610   51.3010   15.5760 C   0  0  0  0  0  0  0  0  0  0  0  0
   34.5600   51.2380   15.1110 N   0  0  0  0  0  0  0  0  0  0  0  0
   35.0520   50.5280   14.0350 C   0  0  0  0  0  0  0  0  0  0  0  0
   34.3850   49.8420   13.2670 O   0  0  0  0  0  0  0  0  0  0  0  0
   36.5210   50.6490   13.8030 C   0  0  0  0  0  0  0  0  0  0  0  0
   37.3050   51.2410   14.7940 C   0  0  0  0  0  0  0  0  0  0  0  0
   38.6890   51.3730   14.6160 C   0  0  0  0  0  0  0  0  0  0  0  0
   39.3350   50.9330   13.4490 C   0  0  0  0  0  0  0  0  0  0  0  0
   40.7060   51.0630   13.2780 N   0  0  0  0  0  0  0  0  0  0  0  0
   41.3990   52.3030   13.6440 C   0  0  0  0  0  0  0  0  0  0  0  0
   42.8440   52.0140   14.0430 C   0  0  0  0  0  0  0  0  0  0  0  0
   43.6270   51.3300   12.9250 C   0  0  0  0  0  0  0  0  0  0  0  0
   42.7390   50.4870   12.0160 C   0  0  0  0  0  0  0  0  0  0  0  0
   41.5050   49.9550   12.7420 C   0  0  0  0  0  0  0  0  0  0  0  0
   38.5170   50.3590   12.4610 C   0  0  0  0  0  0  0  0  0  0  0  0
   37.1310   50.2190   12.6250 C   0  0  0  0  0  0  0  0  0  0  0  0
   32.1980   51.8080   14.9300 C   0  0  0  0  0  0  0  0  0  0  0  0
   28.8380   53.1630   15.5430 N   0  0  0  0  0  0  0  0  0  0  0  0
   26.6891   54.3537   17.7025 H   0  0  0  0  0  0  0  0  0  0  0  0
   28.3738   54.5337   17.1057 H   0  0  0  0  0  0  0  0  0  0  0  0
   27.2651   55.9470   17.1057 H   0  0  0  0  0  0  0  0  0  0  0  0
   25.9820   54.0810   15.5700 H   0  0  0  0  0  0  0  0  0  0  0  0
   27.9993   52.4251   11.9179 H   0  0  0  0  0  0  0  0  0  0  0  0
   30.0392   51.4182   12.8965 H   0  0  0  0  0  0  0  0  0  0  0  0
   29.7132   51.3416   17.2244 H   0  0  0  0  0  0  0  0  0  0  0  0
   31.6310   50.4340   18.3800 H   0  0  0  0  0  0  0  0  0  0  0  0
   35.1970   51.8360   15.6320 H   0  0  0  0  0  0  0  0  0  0  0  0
   36.8347   51.6057   15.7191 H   0  0  0  0  0  0  0  0  0  0  0  0
   39.2876   51.8353   15.4147 H   0  0  0  0  0  0  0  0  0  0  0  0
   41.3918   52.9885   12.7837 H   0  0  0  0  0  0  0  0  0  0  0  0
   40.8798   52.7599   14.4994 H   0  0  0  0  0  0  0  0  0  0  0  0
   43.3393   52.9642   14.2919 H   0  0  0  0  0  0  0  0  0  0  0  0
   42.8253   51.3330   14.9067 H   0  0  0  0  0  0  0  0  0  0  0  0
   44.1203   52.1027   12.3171 H   0  0  0  0  0  0  0  0  0  0  0  0
   44.3573   50.6551   13.3953 H   0  0  0  0  0  0  0  0  0  0  0  0
   42.4110   51.1067   11.1684 H   0  0  0  0  0  0  0  0  0  0  0  0
   43.3288   49.6225   11.6772 H   0  0  0  0  0  0  0  0  0  0  0  0
   40.8920   49.3750   12.0364 H   0  0  0  0  0  0  0  0  0  0  0  0
   41.8310   49.3158   13.5758 H   0  0  0  0  0  0  0  0  0  0  0  0
   38.9795   50.0074   11.5269 H   0  0  0  0  0  0  0  0  0  0  0  0
   36.5251   49.7699   11.8242 H   0  0  0  0  0  0  0  0  0  0  0  0
   32.3443   52.2303   13.9249 H   0  0  0  0  0  0  0  0  0  0  0  0
  1  2  1  0
  2  3  1  0
  3  4  2  0
  4  5  1  0
  5  6  2  0
  6  7  1  0
  7  8  1  0
  8  9  2  0
  9 10  1  0
 10 11  1  0
 11 12  2  0
 11 13  1  0
 13 14  1  0
 14 15  1  0
 15 16  2  0
 15 17  1  0
 17 18  2  0
 18 19  1  0
 19 20  2  0
 20 21  1  0
 21 22  1  0
 22 23  1  0
 23 24  1  0
 24 25  1  0
 25 26  1  0
 20 27  1  0
 27 28  2  0
 13 29  2  0
  7 30  2  0
 30  3  1  0
 29  8  1  0
 28 17  1  0
 26 21  1  0
  1 31  1  0
  1 32  1  0
  1 33  1  0
  2 34  1  0
  5 35  1  0
  6 36  1  0
  9 37  1  0
 10 38  1  0
 14 39  1  0
 18 40  1  0
 19 41  1  0
 22 42  1  0
 22 43  1  0
 23 44  1  0
 23 45  1  0
 24 46  1  0
 24 47  1  0
 25 48  1  0
 25 49  1  0
 26 50  1  0
 26 51  1  0
 27 52  1  0
 28 53  1  0
 29 54  1  0
M  END
>  <meeko>  (2) 
{"is_sidechain": [false], "free_energy": -9.14, "intermolecular_energy": -11.654, "internal_energy": -0.853}

$$$$
3qgy_ligand
     RDKit          3D

 54 57  0  0  0  0  0  0  0  0999 V2000
   28.4270   50.6330   11.9430 C   0  0  0  0  0  0  0  0  0  0  0  0
   27.7770   51.8580   12.3450 N   0  0  0  0  0  0  0  0  0  0  0  0
   28.2490   52.4010   13.5310 C   0  0  0  0  0  0  0  0  0  0  0  0
   27.5490   53.4350   14.0070 N   0  0  0  0  0  0  0  0  0  0  0  0
   27.9760   53.9760   15.1610 C   0  0  0  0  0  0  0  0  0  0  0  0
   29.0750   53.5260   15.8500 C   0  0  0  0  0  0  0  0  0  0  0  0
   29.7410   52.4560   15.2870 C   0  0  0  0  0  0  0  0  0  0  0  0
   30.9520   51.8670   15.9280 C   0  0  0  0  0  0  0  0  0  0  0  0
   30.8330   51.3150   17.1520 C   0  0  0  0  0  0  0  0  0  0  0  0
   31.9080   50.7530   17.7950 N   0  0  0  0  0  0  0  0  0  0  0  0
   33.1730   50.7040   17.2710 C   0  0  0  0  0  0  0  0  0  0  0  0
   34.1190   50.1850   17.8590 O   0  0  0  0  0  0  0  0  0  0  0  0
   33.3580   51.3290   15.9130 C   0  0  0  0  0  0  0  0  0  0  0  0
   34.6450   51.2800   15.4150 N   0  0  0  0  0  0  0  0  0  0  0  0
   35.0940   50.6770   14.2570 C   0  0  0  0  0  0  0  0  0  0  0  0
   34.3910   50.0990   13.4350 O   0  0  0  0  0  0  0  0  0  0  0  0
   36.5600   50.7800   14.0070 C   0  0  0  0  0  0  0  0  0  0  0  0
   37.3800   51.2530   15.0320 C   0  0  0  0  0  0  0  0  0  0  0  0
   38.7640   51.3640   14.8370 C   0  0  0  0  0  0  0  0  0  0  0  0
   39.3750   51.0220   13.6200 C   0  0  0  0  0  0  0  0  0  0  0  0
   40.7450   51.1310   13.4330 N   0  0  0  0  0  0  0  0  0  0  0  0
   41.4710   52.3370   13.8450 C   0  0  0  0  0  0  0  0  0  0  0  0
   42.9150   51.9990   14.2070 C   0  0  0  0  0  0  0  0  0  0  0  0
   43.6660   51.3530   13.0450 C   0  0  0  0  0  0  0  0  0  0  0  0
   42.7450   50.5720   12.1120 C   0  0  0  0  0  0  0  0  0  0  0  0
   41.5120   50.0330   12.8330 C   0  0  0  0  0  0  0  0  0  0  0  0
   38.5220   50.5680   12.6000 C   0  0  0  0  0  0  0  0  0  0  0  0
   37.1360   50.4490   12.7800 C   0  0  0  0  0  0  0  0  0  0  0  0
   32.2830   51.8720   15.3180 C   0  0  0  0  0  0  0  0  0  0  0  0
   29.3410   51.8990   14.1220 N   0  0  0  0  0  0  0  0  0  0  0  0
   28.7274   50.0669   12.8370 H   0  0  0  0  0  0  0  0  0  0  0  0
   27.7310   50.0285   11.3429 H   0  0  0  0  0  0  0  0  0  0  0  0
   29.3178   50.8704   11.3429 H   0  0  0  0  0  0  0  0  0  0  0  0
   27.8070   52.6120   11.6660 H   0  0  0  0  0  0  0  0  0  0  0  0
   27.4142   54.8258   15.5761 H   0  0  0  0  0  0  0  0  0  0  0  0
   29.4042   53.9892   16.7918 H   0  0  0  0  0  0  0  0  0  0  0  0
   29.8510   51.3148   17.6476 H   0  0  0  0  0  0  0  0  0  0  0  0
   31.7890   50.3420   18.7130 H   0  0  0  0  0  0  0  0  0  0  0  0
   35.3100   51.7990   15.9830 H   0  0  0  0  0  0  0  0  0  0  0  0
   36.9385   51.5402   15.9977 H   0  0  0  0  0  0  0  0  0  0  0  0
   39.3908   51.7305   15.6633 H   0  0  0  0  0  0  0  0  0  0  0  0
   41.4661   53.0619   13.0177 H   0  0  0  0  0  0  0  0  0  0  0  0
   40.9750   52.7642   14.7290 H   0  0  0  0  0  0  0  0  0  0  0  0
   43.4345   52.9255   14.4929 H   0  0  0  0  0  0  0  0  0  0  0  0
   42.8945   51.2782   15.0377 H   0  0  0  0  0  0  0  0  0  0  0  0
   44.1659   52.1434   12.4659 H   0  0  0  0  0  0  0  0  0  0  0  0
   44.3895   50.6420   13.4704 H   0  0  0  0  0  0  0  0  0  0  0  0
   42.4172   51.2375   11.2999 H   0  0  0  0  0  0  0  0  0  0  0  0
   43.3103   49.7122   11.7232 H   0  0  0  0  0  0  0  0  0  0  0  0
   40.8757   49.4991   12.1118 H   0  0  0  0  0  0  0  0  0  0  0  0
   41.8376   49.3495   13.6310 H   0  0  0  0  0  0  0  0  0  0  0  0
   38.9562   50.2965   11.6265 H   0  0  0  0  0  0  0  0  0  0  0  0
   36.5028   50.0945   11.9533 H   0  0  0  0  0  0  0  0  0  0  0  0
   32.4080   52.3403   14.3305 H   0  0  0  0  0  0  0  0  0  0  0  0
  1  2  1  0
  2  3  1  0
  3  4  2  0
  4  5  1  0
  5  6  2  0
  6  7  1  0
  7  8  1  0
  8  9  2  0
  9 10  1  0
 10 11  1  0
 11 12  2  0
 11 13  1  0
 13 14  1  0
 14 15  1  0
 15 16  2  0
 15 17  1  0
 17 18  2  0
 18 19  1  0
 19 20  2  0
 20 21  1  0
 21 22  1  0
 22 23  1  0
 23 24  1  0
 24 25  1  0
 25 26  1  0
 20 27  1  0
 27 28  2  0
 13 29  2  0
  7 30  2  0
 30  3  1  0
 29  8  1  0
 28 17  1  0
 26 21  1  0
  1 31  1  0
  1 32  1  0
  1 33  1  0
  2 34  1  0
  5 35  1  0
  6 36  1  0
  9 37  1  0
 10 38  1  0
 14 39  1  0
 18 40  1  0
 19 41  1  0
 22 42  1  0
 22 43  1  0
 23 44  1  0
 23 45  1  0
 24 46  1  0
 24 47  1  0
 25 48  1  0
 25 49  1  0
 26 50  1  0
 26 51  1  0
 27 52  1  0
 28 53  1  0
 29 54  1  0
M  END
>  <meeko>  (3) 
{"is_sidechain": [false], "free_energy": -8.905, "intermolecular_energy": -11.356, "internal_energy": -0.847}

$$$$
3qgy_ligand
     RDKit          3D

 54 57  0  0  0  0  0  0  0  0999 V2000
   40.4150   49.5100   10.9080 C   0  0  0  0  0  0  0  0  0  0  0  0
   41.7740   49.4870   11.3940 N   0  0  0  0  0  0  0  0  0  0  0  0
   42.0270   50.3590   12.4430 C   0  0  0  0  0  0  0  0  0  0  0  0
   43.3090   50.7000   12.6090 N   0  0  0  0  0  0  0  0  0  0  0  0
   43.5840   51.5530   13.6100 C   0  0  0  0  0  0  0  0  0  0  0  0
   42.6300   52.0700   14.4510 C   0  0  0  0  0  0  0  0  0  0  0  0
   41.3330   51.6650   14.2110 C   0  0  0  0  0  0  0  0  0  0  0  0
   40.1980   52.1480   15.0490 C   0  0  0  0  0  0  0  0  0  0  0  0
   40.4710   52.8470   16.1680 C   0  0  0  0  0  0  0  0  0  0  0  0
   39.4730   53.3230   16.9810 N   0  0  0  0  0  0  0  0  0  0  0  0
   38.1370   53.1340   16.7420 C   0  0  0  0  0  0  0  0  0  0  0  0
   37.2580   53.5800   17.4760 O   0  0  0  0  0  0  0  0  0  0  0  0
   37.7840   52.3390   15.5130 C   0  0  0  0  0  0  0  0  0  0  0  0
   36.4320   52.1500   15.3030 N   0  0  0  0  0  0  0  0  0  0  0  0
   35.6250   51.1340   15.7710 C   0  0  0  0  0  0  0  0  0  0  0  0
   35.9820   50.2210   16.5080 O   0  0  0  0  0  0  0  0  0  0  0  0
   34.1970   51.1990   15.3450 C   0  0  0  0  0  0  0  0  0  0  0  0
   33.8300   50.5830   14.1480 C   0  0  0  0  0  0  0  0  0  0  0  0
   32.4980   50.6200   13.7130 C   0  0  0  0  0  0  0  0  0  0  0  0
   31.4940   51.2780   14.4420 C   0  0  0  0  0  0  0  0  0  0  0  0
   30.1760   51.3100   14.0080 N   0  0  0  0  0  0  0  0  0  0  0  0
   29.3420   52.4980   14.2160 C   0  0  0  0  0  0  0  0  0  0  0  0
   28.2820   52.6090   13.1230 C   0  0  0  0  0  0  0  0  0  0  0  0
   27.3760   51.3810   13.0700 C   0  0  0  0  0  0  0  0  0  0  0  0
   28.0770   50.1120   13.5450 C   0  0  0  0  0  0  0  0  0  0  0  0
   29.5860   50.1620   13.3110 C   0  0  0  0  0  0  0  0  0  0  0  0
   31.8970   51.9060   15.6320 C   0  0  0  0  0  0  0  0  0  0  0  0
   33.2250   51.8760   16.0830 C   0  0  0  0  0  0  0  0  0  0  0  0
   38.7890   51.8870   14.7450 C   0  0  0  0  0  0  0  0  0  0  0  0
   41.0280   50.8000   13.2180 N   0  0  0  0  0  0  0  0  0  0  0  0
   39.7207   49.5217   11.7611 H   0  0  0  0  0  0  0  0  0  0  0  0
   40.2596   50.4109   10.2963 H   0  0  0  0  0  0  0  0  0  0  0  0
   40.2292   48.6149   10.2963 H   0  0  0  0  0  0  0  0  0  0  0  0
   42.1130   48.5810   11.7010 H   0  0  0  0  0  0  0  0  0  0  0  0
   44.6309   51.8536   13.7641 H   0  0  0  0  0  0  0  0  0  0  0  0
   42.8839   52.7641   15.2657 H   0  0  0  0  0  0  0  0  0  0  0  0
   41.5199   53.0410   16.4367 H   0  0  0  0  0  0  0  0  0  0  0  0
   39.7070   53.8490   17.8150 H   0  0  0  0  0  0  0  0  0  0  0  0
   36.0070   52.8990   14.7600 H   0  0  0  0  0  0  0  0  0  0  0  0
   34.5894   50.0660   13.5430 H   0  0  0  0  0  0  0  0  0  0  0  0
   32.2308   50.1181   12.7714 H   0  0  0  0  0  0  0  0  0  0  0  0
   28.8455   52.4242   15.1948 H   0  0  0  0  0  0  0  0  0  0  0  0
   29.9827   53.3915   14.1804 H   0  0  0  0  0  0  0  0  0  0  0  0
   27.6634   53.4973   13.3186 H   0  0  0  0  0  0  0  0  0  0  0  0
   28.8011   52.6871   12.1564 H   0  0  0  0  0  0  0  0  0  0  0  0
   26.5010   51.5611   13.7119 H   0  0  0  0  0  0  0  0  0  0  0  0
   27.0853   51.2273   12.0203 H   0  0  0  0  0  0  0  0  0  0  0  0
   27.8898   49.9861   14.6216 H   0  0  0  0  0  0  0  0  0  0  0  0
   27.6741   49.2678   12.9662 H   0  0  0  0  0  0  0  0  0  0  0  0
   30.0420   49.2353   13.6895 H   0  0  0  0  0  0  0  0  0  0  0  0
   29.7756   50.2647   12.2323 H   0  0  0  0  0  0  0  0  0  0  0  0
   31.1449   52.4400   16.2313 H   0  0  0  0  0  0  0  0  0  0  0  0
   33.5001   52.3859   17.0180 H   0  0  0  0  0  0  0  0  0  0  0  0
   38.5437   51.2961   13.8502 H   0  0  0  0  0  0  0  0  0  0  0  0
  1  2  1  0
  2  3  1  0
  3  4  2  0
  4  5  1  0
  5  6  2  0
  6  7  1  0
  7  8  1  0
  8  9  2  0
  9 10  1  0
 10 11  1  0
 11 12  2  0
 11 13  1  0
 13 14  1  0
 14 15  1  0
 15 16  2  0
 15 17  1  0
 17 18  2  0
 18 19  1  0
 19 20  2  0
 20 21  1  0
 21 22  1  0
 22 23  1  0
 23 24  1  0
 24 25  1  0
 25 26  1  0
 20 27  1  0
 27 28  2  0
 13 29  2  0
  7 30  2  0
 30  3  1  0
 29  8  1  0
 28 17  1  0
 26 21  1  0
  1 31  1  0
  1 32  1  0
  1 33  1  0
  2 34  1  0
  5 35  1  0
  6 36  1  0
  9 37  1  0
 10 38  1  0
 14 39  1  0
 18 40  1  0
 19 41  1  0
 22 42  1  0
 22 43  1  0
 23 44  1  0
 23 45  1  0
 24 46  1  0
 24 47  1  0
 25 48  1  0
 25 49  1  0
 26 50  1  0
 26 51  1  0
 27 52  1  0
 28 53  1  0
 29 54  1  0
M  END
>  <meeko>  (4) 
{"is_sidechain": [false], "free_energy": -8.858, "intermolecular_energy": -11.247, "internal_energy": -0.897}

$$$$
3qgy_ligand
     RDKit          3D

 54 57  0  0  0  0  0  0  0  0999 V2000
   29.2270   50.2660   12.9870 C   0  0  0  0  0  0  0  0  0  0  0  0
   30.3140   49.3850   13.3440 N   0  0  0  0  0  0  0  0  0  0  0  0
   31.2870   49.9640   14.1470 C   0  0  0  0  0  0  0  0  0  0  0  0
   30.8520   50.4520   15.3130 N   0  0  0  0  0  0  0  0  0  0  0  0
   31.7740   51.0090   16.1180 C   0  0  0  0  0  0  0  0  0  0  0  0
   33.1050   51.1000   15.7980 C   0  0  0  0  0  0  0  0  0  0  0  0
   33.4680   50.5730   14.5750 C   0  0  0  0  0  0  0  0  0  0  0  0
   34.8810   50.6060   14.1010 C   0  0  0  0  0  0  0  0  0  0  0  0
   35.2240   49.8540   13.0350 C   0  0  0  0  0  0  0  0  0  0  0  0
   36.5070   49.8430   12.5460 N   0  0  0  0  0  0  0  0  0  0  0  0
   37.5370   50.5710   13.0810 C   0  0  0  0  0  0  0  0  0  0  0  0
   38.6750   50.5560   12.6200 O   0  0  0  0  0  0  0  0  0  0  0  0
   37.2050   51.4090   14.2880 C   0  0  0  0  0  0  0  0  0  0  0  0
   38.2630   52.1210   14.8170 N   0  0  0  0  0  0  0  0  0  0  0  0
   39.1460   51.7390   15.8060 C   0  0  0  0  0  0  0  0  0  0  0  0
   39.1570   50.6490   16.3700 O   0  0  0  0  0  0  0  0  0  0  0  0
   40.1750   52.7520   16.1770 C   0  0  0  0  0  0  0  0  0  0  0  0
   39.8880   53.6450   17.2110 C   0  0  0  0  0  0  0  0  0  0  0  0
   40.8290   54.6120   17.5900 C   0  0  0  0  0  0  0  0  0  0  0  0
   42.0740   54.7320   16.9530 C   0  0  0  0  0  0  0  0  0  0  0  0
   43.0030   55.6900   17.3340 N   0  0  0  0  0  0  0  0  0  0  0  0
   44.4220   55.5440   16.9900 C   0  0  0  0  0  0  0  0  0  0  0  0
   45.0850   56.9130   16.8540 C   0  0  0  0  0  0  0  0  0  0  0  0
   44.9760   57.7380   18.1340 C   0  0  0  0  0  0  0  0  0  0  0  0
   43.7330   57.3960   18.9490 C   0  0  0  0  0  0  0  0  0  0  0  0
   42.5890   56.8860   18.0760 C   0  0  0  0  0  0  0  0  0  0  0  0
   42.3270   53.8320   15.9030 C   0  0  0  0  0  0  0  0  0  0  0  0
   41.3960   52.8580   15.5120 C   0  0  0  0  0  0  0  0  0  0  0  0
   35.9400   51.3910   14.7390 C   0  0  0  0  0  0  0  0  0  0  0  0
   32.5620   50.0170   13.7410 N   0  0  0  0  0  0  0  0  0  0  0  0
   28.7518   50.6511   13.9012 H   0  0  0  0  0  0  0  0  0  0  0  0
   29.6161   51.1067   12.3939 H   0  0  0  0  0  0  0  0  0  0  0  0
   28.4851   49.7112   12.3939 H   0  0  0  0  0  0  0  0  0  0  0  0
   30.0450   48.5270   13.8130 H   0  0  0  0  0  0  0  0  0  0  0  0
   31.4430   51.4137   17.0858 H   0  0  0  0  0  0  0  0  0  0  0  0
   33.8377   51.5643   16.4744 H   0  0  0  0  0  0  0  0  0  0  0  0
   34.4576   49.2348   12.5458 H   0  0  0  0  0  0  0  0  0  0  0  0
   36.7360   49.2710   11.7410 H   0  0  0  0  0  0  0  0  0  0  0  0
   38.3990   53.0240   14.3660 H   0  0  0  0  0  0  0  0  0  0  0  0
   38.9198   53.5895   17.7301 H   0  0  0  0  0  0  0  0  0  0  0  0
   40.5840   55.2991   18.4133 H   0  0  0  0  0  0  0  0  0  0  0  0
   44.9293   54.9736   17.7820 H   0  0  0  0  0  0  0  0  0  0  0  0
   44.5016   55.0141   16.0294 H   0  0  0  0  0  0  0  0  0  0  0  0
   46.1491   56.7688   16.6154 H   0  0  0  0  0  0  0  0  0  0  0  0
   44.5653   57.4612   16.0544 H   0  0  0  0  0  0  0  0  0  0  0  0
   45.8658   57.5480   18.7523 H   0  0  0  0  0  0  0  0  0  0  0  0
   44.9023   58.7962   17.8427 H   0  0  0  0  0  0  0  0  0  0  0  0
   43.9934   56.6174   19.6811 H   0  0  0  0  0  0  0  0  0  0  0  0
   43.3925   58.3168   19.4452 H   0  0  0  0  0  0  0  0  0  0  0  0
   41.7295   56.6360   18.7153 H   0  0  0  0  0  0  0  0  0  0  0  0
   42.3116   57.6719   17.3581 H   0  0  0  0  0  0  0  0  0  0  0  0
   43.2873   53.8936   15.3700 H   0  0  0  0  0  0  0  0  0  0  0  0
   41.6295   52.1773   14.6800 H   0  0  0  0  0  0  0  0  0  0  0  0
   35.6886   51.9916   15.6256 H   0  0  0  0  0  0  0  0  0  0  0  0
  1  2  1  0
  2  3  1  0
  3  4  2  0
  4  5  1  0
  5  6  2  0
  6  7  1  0
  7  8  1  0
  8  9  2  0
  9 10  1  0
 10 11  1  0
 11 12  2  0
 11 13  1  0
 13 14  1  0
 14 15  1  0
 15 16  2  0
 15 17  1  0
 17 18  2  0
 18 19  1  0
 19 20  2  0
 20 21  1  0
 21 22  1  0
 22 23  1  0
 23 24  1  0
 24 25  1  0
 25 26  1  0
 20 27  1  0
 27 28  2  0
 13 29  2  0
  7 30  2  0
 30  3  1  0
 29  8  1  0
 28 17  1  0
 26 21  1  0
  1 31  1  0
  1 32  1  0
  1 33  1  0
  2 34  1  0
  5 35  1  0
  6 36  1  0
  9 37  1  0
 10 38  1  0
 14 39  1  0
 18 40  1  0
 19 41  1  0
 22 42  1  0
 22 43  1  0
 23 44  1  0
 23 45  1  0
 24 46  1  0
 24 47  1  0
 25 48  1  0
 25 49  1  0
 26 50  1  0
 26 51  1  0
 27 52  1  0
 28 53  1  0
 29 54  1  0
M  END
>  <meeko>  (5) 
{"is_sidechain": [false], "free_energy": -8.801, "intermolecular_energy": -11.189, "internal_energy": -0.881}

$$$$
3qgy_ligand
     RDKit          3D

 54 57  0  0  0  0  0  0  0  0999 V2000
   44.5160   57.4310   16.2590 C   0  0  0  0  0  0  0  0  0  0  0  0
   44.9040   56.1980   16.9030 N   0  0  0  0  0  0  0  0  0  0  0  0
   43.8430   55.3980   17.3060 C   0  0  0  0  0  0  0  0  0  0  0  0
   43.5230   55.4800   18.6010 N   0  0  0  0  0  0  0  0  0  0  0  0
   42.4920   54.7260   19.0180 C   0  0  0  0  0  0  0  0  0  0  0  0
   41.7780   53.8930   18.1940 C   0  0  0  0  0  0  0  0  0  0  0  0
   42.1770   53.8660   16.8730 C   0  0  0  0  0  0  0  0  0  0  0  0
   41.4910   53.0040   15.8690 C   0  0  0  0  0  0  0  0  0  0  0  0
   42.2390   52.3580   14.9510 C   0  0  0  0  0  0  0  0  0  0  0  0
   41.6700   51.5460   14.0020 N   0  0  0  0  0  0  0  0  0  0  0  0
   40.3220   51.3220   13.8950 C   0  0  0  0  0  0  0  0  0  0  0  0
   39.8340   50.5810   13.0450 O   0  0  0  0  0  0  0  0  0  0  0  0
   39.4450   52.0410   14.8860 C   0  0  0  0  0  0  0  0  0  0  0  0
   38.0900   51.8100   14.7470 N   0  0  0  0  0  0  0  0  0  0  0  0
   37.2470   51.1160   15.5900 C   0  0  0  0  0  0  0  0  0  0  0  0
   37.5690   50.6040   16.6580 O   0  0  0  0  0  0  0  0  0  0  0  0
   35.8270   51.0220   15.1440 C   0  0  0  0  0  0  0  0  0  0  0  0
   34.8550   51.7160   15.8650 C   0  0  0  0  0  0  0  0  0  0  0  0
   33.5090   51.6550   15.4780 C   0  0  0  0  0  0  0  0  0  0  0  0
   33.0840   50.8970   14.3750 C   0  0  0  0  0  0  0  0  0  0  0  0
   31.7510   50.8410   13.9950 N   0  0  0  0  0  0  0  0  0  0  0  0
   31.0930   49.5560   13.7360 C   0  0  0  0  0  0  0  0  0  0  0  0
   29.5980   49.6490   14.0330 C   0  0  0  0  0  0  0  0  0  0  0  0
   28.9080   50.7250   13.1980 C   0  0  0  0  0  0  0  0  0  0  0  0
   29.8450   51.8720   12.8290 C   0  0  0  0  0  0  0  0  0  0  0  0
   30.9570   52.0660   13.8580 C   0  0  0  0  0  0  0  0  0  0  0  0
   34.0820   50.1920   13.6810 C   0  0  0  0  0  0  0  0  0  0  0  0
   35.4340   50.2450   14.0540 C   0  0  0  0  0  0  0  0  0  0  0  0
   40.0390   52.8300   15.7970 C   0  0  0  0  0  0  0  0  0  0  0  0
   43.2160   54.6060   16.4270 N   0  0  0  0  0  0  0  0  0  0  0  0
   44.2787   58.1852   17.0238 H   0  0  0  0  0  0  0  0  0  0  0  0
   45.3436   57.7931   15.6314 H   0  0  0  0  0  0  0  0  0  0  0  0
   43.6302   57.2539   15.6314 H   0  0  0  0  0  0  0  0  0  0  0  0
   45.5130   55.5950   16.3600 H   0  0  0  0  0  0  0  0  0  0  0  0
   42.2045   54.7795   20.0784 H   0  0  0  0  0  0  0  0  0  0  0  0
   40.9395   53.2844   18.5634 H   0  0  0  0  0  0  0  0  0  0  0  0
   43.3316   52.4851   14.9633 H   0  0  0  0  0  0  0  0  0  0  0  0
   42.2560   51.0700   13.3270 H   0  0  0  0  0  0  0  0  0  0  0  0
   37.6950   52.2590   13.9240 H   0  0  0  0  0  0  0  0  0  0  0  0
   35.1461   52.3139   16.7412 H   0  0  0  0  0  0  0  0  0  0  0  0
   32.7623   52.2186   16.0566 H   0  0  0  0  0  0  0  0  0  0  0  0
   31.2356   49.2830   12.6800 H   0  0  0  0  0  0  0  0  0  0  0  0
   31.5378   48.7913   14.3897 H   0  0  0  0  0  0  0  0  0  0  0  0
   29.1323   48.6771   13.8126 H   0  0  0  0  0  0  0  0  0  0  0  0
   29.4813   49.9187   15.0930 H   0  0  0  0  0  0  0  0  0  0  0  0
   28.5321   50.2653   12.2721 H   0  0  0  0  0  0  0  0  0  0  0  0
   28.0908   51.1439   13.8036 H   0  0  0  0  0  0  0  0  0  0  0  0
   30.3012   51.6557   11.8517 H   0  0  0  0  0  0  0  0  0  0  0  0
   29.2496   52.7964   12.7986 H   0  0  0  0  0  0  0  0  0  0  0  0
   31.6122   52.8872   13.5321 H   0  0  0  0  0  0  0  0  0  0  0  0
   30.5029   52.3056   14.8308 H   0  0  0  0  0  0  0  0  0  0  0  0
   33.7936   49.5774   12.8155 H   0  0  0  0  0  0  0  0  0  0  0  0
   36.1838   49.6739   13.4869 H   0  0  0  0  0  0  0  0  0  0  0  0
   39.4076   53.3681   16.5194 H   0  0  0  0  0  0  0  0  0  0  0  0
  1  2  1  0
  2  3  1  0
  3  4  2  0
  4  5  1  0
  5  6  2  0
  6  7  1  0
  7  8  1  0
  8  9  2  0
  9 10  1  0
 10 11  1  0
 11 12  2  0
 11 13  1  0
 13 14  1  0
 14 15  1  0
 15 16  2  0
 15 17  1  0
 17 18  2  0
 18 19  1  0
 19 20  2  0
 20 21  1  0
 21 22  1  0
 22 23  1  0
 23 24  1  0
 24 25  1  0
 25 26  1  0
 20 27  1  0
 27 28  2  0
 13 29  2  0
  7 30  2  0
 30  3  1  0
 29  8  1  0
 28 17  1  0
 26 21  1  0
  1 31  1  0
  1 32  1  0
  1 33  1  0
  2 34  1  0
  5 35  1  0
  6 36  1  0
  9 37  1  0
 10 38  1  0
 14 39  1  0
 18 40  1  0
 19 41  1  0
 22 42  1  0
 22 43  1  0
 23 44  1  0
 23 45  1  0
 24 46  1  0
 24 47  1  0
 25 48  1  0
 25 49  1  0
 26 50  1  0
 26 51  1  0
 27 52  1  0
 28 53  1  0
 29 54  1  0
M  END
>  <meeko>  (6) 
{"is_sidechain": [false], "free_energy": -8.658, "intermolecular_energy": -11.068, "internal_energy": -0.817}

$$$$
3qgy_ligand
     RDKit          3D

 54 57  0  0  0  0  0  0  0  0999 V2000
   28.6340   45.5170   18.9840 C   0  0  0  0  0  0  0  0  0  0  0  0
   29.7780   46.3110   19.3680 N   0  0  0  0  0  0  0  0  0  0  0  0
   29.6240   47.6770   19.1780 C   0  0  0  0  0  0  0  0  0  0  0  0
   28.9800   48.3230   20.1550 N   0  0  0  0  0  0  0  0  0  0  0  0
   28.8250   49.6490   20.0040 C   0  0  0  0  0  0  0  0  0  0  0  0
   29.2830   50.3480   18.9150 C   0  0  0  0  0  0  0  0  0  0  0  0
   29.9340   49.6040   17.9520 C   0  0  0  0  0  0  0  0  0  0  0  0
   30.4800   50.2350   16.7160 C   0  0  0  0  0  0  0  0  0  0  0  0
   29.6210   50.8040   15.8460 C   0  0  0  0  0  0  0  0  0  0  0  0
   30.0590   51.4050   14.6930 N   0  0  0  0  0  0  0  0  0  0  0  0
   31.3760   51.4780   14.3200 C   0  0  0  0  0  0  0  0  0  0  0  0
   31.7480   52.0320   13.2880 O   0  0  0  0  0  0  0  0  0  0  0  0
   32.3700   50.8350   15.2520 C   0  0  0  0  0  0  0  0  0  0  0  0
   33.6880   50.9100   14.8460 N   0  0  0  0  0  0  0  0  0  0  0  0
   34.3280   50.1750   13.8690 C   0  0  0  0  0  0  0  0  0  0  0  0
   33.8010   49.3310   13.1510 O   0  0  0  0  0  0  0  0  0  0  0  0
   35.7760   50.4770   13.6830 C   0  0  0  0  0  0  0  0  0  0  0  0
   36.4350   49.9300   12.5810 C   0  0  0  0  0  0  0  0  0  0  0  0
   37.7950   50.1910   12.3700 C   0  0  0  0  0  0  0  0  0  0  0  0
   38.5470   50.9890   13.2470 C   0  0  0  0  0  0  0  0  0  0  0  0
   39.8930   51.2470   13.0320 N   0  0  0  0  0  0  0  0  0  0  0  0
   40.3340   52.5110   12.4330 C   0  0  0  0  0  0  0  0  0  0  0  0
   41.7340   52.8770   12.9200 C   0  0  0  0  0  0  0  0  0  0  0  0
   42.7620   51.7970   12.5900 C   0  0  0  0  0  0  0  0  0  0  0  0
   42.1480   50.4030   12.5230 C   0  0  0  0  0  0  0  0  0  0  0  0
   40.9160   50.2680   13.4160 C   0  0  0  0  0  0  0  0  0  0  0  0
   37.8620   51.5100   14.3580 C   0  0  0  0  0  0  0  0  0  0  0  0
   36.5000   51.2600   14.5830 C   0  0  0  0  0  0  0  0  0  0  0  0
   31.9020   50.2540   16.3690 C   0  0  0  0  0  0  0  0  0  0  0  0
   30.0950   48.2670   18.0720 N   0  0  0  0  0  0  0  0  0  0  0  0
   28.1171   45.1583   19.8863 H   0  0  0  0  0  0  0  0  0  0  0  0
   27.9448   46.1319   18.3866 H   0  0  0  0  0  0  0  0  0  0  0  0
   28.9690   44.6562   18.3866 H   0  0  0  0  0  0  0  0  0  0  0  0
   30.0830   46.1990   20.3290 H   0  0  0  0  0  0  0  0  0  0  0  0
   28.3025   50.2049   20.7964 H   0  0  0  0  0  0  0  0  0  0  0  0
   29.1400   51.4342   18.8160 H   0  0  0  0  0  0  0  0  0  0  0  0
   28.5434   50.7859   16.0660 H   0  0  0  0  0  0  0  0  0  0  0  0
   29.3920   51.8280   14.0580 H   0  0  0  0  0  0  0  0  0  0  0  0
   34.2100   51.6390   15.3270 H   0  0  0  0  0  0  0  0  0  0  0  0
   35.8840   49.2912   11.8751 H   0  0  0  0  0  0  0  0  0  0  0  0
   38.2898   49.7567   11.4888 H   0  0  0  0  0  0  0  0  0  0  0  0
   40.3479   52.4067   11.3380 H   0  0  0  0  0  0  0  0  0  0  0  0
   39.6357   53.3071   12.7306 H   0  0  0  0  0  0  0  0  0  0  0  0
   42.0415   53.8172   12.4389 H   0  0  0  0  0  0  0  0  0  0  0  0
   41.6937   52.9808   14.0144 H   0  0  0  0  0  0  0  0  0  0  0  0
   43.2161   52.0290   11.6153 H   0  0  0  0  0  0  0  0  0  0  0  0
   43.5106   51.7926   13.3960 H   0  0  0  0  0  0  0  0  0  0  0  0
   41.8556   50.1950   11.4832 H   0  0  0  0  0  0  0  0  0  0  0  0
   42.9021   49.6859   12.8797 H   0  0  0  0  0  0  0  0  0  0  0  0
   40.5033   49.2537   13.3124 H   0  0  0  0  0  0  0  0  0  0  0  0
   41.2111   50.4527   14.4595 H   0  0  0  0  0  0  0  0  0  0  0  0
   38.4128   52.1354   15.0760 H   0  0  0  0  0  0  0  0  0  0  0  0
   36.0027   51.6813   15.4691 H   0  0  0  0  0  0  0  0  0  0  0  0
   32.6174   49.7722   17.0517 H   0  0  0  0  0  0  0  0  0  0  0  0
  1  2  1  0
  2  3  1  0
  3  4  2  0
  4  5  1  0
  5  6  2  0
  6  7  1  0
  7  8  1  0
  8  9  2  0
  9 10  1  0
 10 11  1  0
 11 12  2  0
 11 13  1  0
 13 14  1  0
 14 15  1  0
 15 16  2  0
 15 17  1  0
 17 18  2  0
 18 19  1  0
 19 20  2  0
 20 21  1  0
 21 22  1  0
 22 23  1  0
 23 24  1  0
 24 25  1  0
 25 26  1  0
 20 27  1  0
 27 28  2  0
 13 29  2  0
  7 30  2  0
 30  3  1  0
 29  8  1  0
 28 17  1  0
 26 21  1  0
  1 31  1  0
  1 32  1  0
  1 33  1  0
  2 34  1  0
  5 35  1  0
  6 36  1  0
  9 37  1  0
 10 38  1  0
 14 39  1  0
 18 40  1  0
 19 41  1  0
 22 42  1  0
 22 43  1  0
 23 44  1  0
 23 45  1  0
 24 46  1  0
 24 47  1  0
 25 48  1  0
 25 49  1  0
 26 50  1  0
 26 51  1  0
 27 52  1  0
 28 53  1  0
 29 54  1  0
M  END
>  <meeko>  (7) 
{"is_sidechain": [false], "free_energy": -8.58, "intermolecular_energy": -11.03, "internal_energy": -0.753}

$$$$
3qgy_ligand
     RDKit          3D

 54 57  0  0  0  0  0  0  0  0999 V2000
   40.8440   52.1060   20.7010 C   0  0  0  0  0  0  0  0  0  0  0  0
   42.0810   52.7080   20.2630 N   0  0  0  0  0  0  0  0  0  0  0  0
   42.0520   53.2100   18.9690 C   0  0  0  0  0  0  0  0  0  0  0  0
   42.8160   54.2860   18.7540 N   0  0  0  0  0  0  0  0  0  0  0  0
   42.8170   54.7880   17.5070 C   0  0  0  0  0  0  0  0  0  0  0  0
   42.0820   54.2600   16.4760 C   0  0  0  0  0  0  0  0  0  0  0  0
   41.3200   53.1520   16.7840 C   0  0  0  0  0  0  0  0  0  0  0  0
   40.4720   52.4790   15.7590 C   0  0  0  0  0  0  0  0  0  0  0  0
   41.0750   51.8610   14.7240 C   0  0  0  0  0  0  0  0  0  0  0  0
   40.3520   51.2190   13.7490 N   0  0  0  0  0  0  0  0  0  0  0  0
   38.9840   51.1510   13.7310 C   0  0  0  0  0  0  0  0  0  0  0  0
   38.3570   50.5600   12.8550 O   0  0  0  0  0  0  0  0  0  0  0  0
   38.2660   51.8470   14.8570 C   0  0  0  0  0  0  0  0  0  0  0  0
   36.8880   51.7760   14.8080 N   0  0  0  0  0  0  0  0  0  0  0  0
   36.0420   50.9860   15.5600 C   0  0  0  0  0  0  0  0  0  0  0  0
   36.3870   50.2190   16.4530 O   0  0  0  0  0  0  0  0  0  0  0  0
   34.5900   51.1220   15.2490 C   0  0  0  0  0  0  0  0  0  0  0  0
   34.1120   50.5910   14.0500 C   0  0  0  0  0  0  0  0  0  0  0  0
   32.7540   50.6970   13.7210 C   0  0  0  0  0  0  0  0  0  0  0  0
   31.8310   51.3420   14.5610 C   0  0  0  0  0  0  0  0  0  0  0  0
   30.4870   51.4420   14.2320 N   0  0  0  0  0  0  0  0  0  0  0  0
   30.0650   51.9660   12.9290 C   0  0  0  0  0  0  0  0  0  0  0  0
   28.7270   51.3600   12.5140 C   0  0  0  0  0  0  0  0  0  0  0  0
   27.6240   51.6410   13.5310 C   0  0  0  0  0  0  0  0  0  0  0  0
   28.1600   51.7990   14.9500 C   0  0  0  0  0  0  0  0  0  0  0  0
   29.4480   51.0090   15.1740 C   0  0  0  0  0  0  0  0  0  0  0  0
   32.3440   51.8840   15.7510 C   0  0  0  0  0  0  0  0  0  0  0  0
   33.7010   51.7840   16.0960 C   0  0  0  0  0  0  0  0  0  0  0  0
   39.0080   52.4670   15.7900 C   0  0  0  0  0  0  0  0  0  0  0  0
   41.2900   52.6320   18.0320 N   0  0  0  0  0  0  0  0  0  0  0  0
   40.8128   52.0908   21.8005 H   0  0  0  0  0  0  0  0  0  0  0  0
   39.9954   52.6919   20.3181 H   0  0  0  0  0  0  0  0  0  0  0  0
   40.7814   51.0767   20.3181 H   0  0  0  0  0  0  0  0  0  0  0  0
   42.4280   53.4640   20.8430 H   0  0  0  0  0  0  0  0  0  0  0  0
   43.4412   55.6703   17.3021 H   0  0  0  0  0  0  0  0  0  0  0  0
   42.0992   54.6937   15.4653 H   0  0  0  0  0  0  0  0  0  0  0  0
   42.1730   51.8712   14.6588 H   0  0  0  0  0  0  0  0  0  0  0  0
   40.8320   50.7600   12.9840 H   0  0  0  0  0  0  0  0  0  0  0  0
   36.4800   52.4330   14.1460 H   0  0  0  0  0  0  0  0  0  0  0  0
   34.8046   50.0869   13.3600 H   0  0  0  0  0  0  0  0  0  0  0  0
   32.3995   50.2614   12.7752 H   0  0  0  0  0  0  0  0  0  0  0  0
   29.9618   53.0591   12.9952 H   0  0  0  0  0  0  0  0  0  0  0  0
   30.8230   51.7002   12.1775 H   0  0  0  0  0  0  0  0  0  0  0  0
   28.4311   51.7864   11.5442 H   0  0  0  0  0  0  0  0  0  0  0  0
   28.8565   50.2695   12.4504 H   0  0  0  0  0  0  0  0  0  0  0  0
   27.1084   52.5693   13.2439 H   0  0  0  0  0  0  0  0  0  0  0  0
   26.9405   50.7791   13.5274 H   0  0  0  0  0  0  0  0  0  0  0  0
   28.3616   52.8643   15.1355 H   0  0  0  0  0  0  0  0  0  0  0  0
   27.4002   51.4076   15.6425 H   0  0  0  0  0  0  0  0  0  0  0  0
   29.8002   51.1750   16.2028 H   0  0  0  0  0  0  0  0  0  0  0  0
   29.2430   49.9406   15.0111 H   0  0  0  0  0  0  0  0  0  0  0  0
   31.6588   52.4047   16.4361 H   0  0  0  0  0  0  0  0  0  0  0  0
   34.0636   52.2279   17.0349 H   0  0  0  0  0  0  0  0  0  0  0  0
   38.4941   52.9874   16.6116 H   0  0  0  0  0  0  0  0  0  0  0  0
  1  2  1  0
  2  3  1  0
  3  4  2  0
  4  5  1  0
  5  6  2  0
  6  7  1  0
  7  8  1  0
  8  9  2  0
  9 10  1  0
 10 11  1  0
 11 12  2  0
 11 13  1  0
 13 14  1  0
 14 15  1  0
 15 16  2  0
 15 17  1  0
 17 18  2  0
 18 19  1  0
 19 20  2  0
 20 21  1  0
 21 22  1  0
 22 23  1  0
 23 24  1  0
 24 25  1  0
 25 26  1  0
 20 27  1  0
 27 28  2  0
 13 29  2  0
  7 30  2  0
 30  3  1  0
 29  8  1  0
 28 17  1  0
 26 21  1  0
  1 31  1  0
  1 32  1  0
  1 33  1  0
  2 34  1  0
  5 35  1  0
  6 36  1  0
  9 37  1  0
 10 38  1  0
 14 39  1  0
 18 40  1  0
 19 41  1  0
 22 42  1  0
 22 43  1  0
 23 44  1  0
 23 45  1  0
 24 46  1  0
 24 47  1  0
 25 48  1  0
 25 49  1  0
 26 50  1  0
 26 51  1  0
 27 52  1  0
 28 53  1  0
 29 54  1  0
M  END
>  <meeko>  (8) 
{"is_sidechain": [false], "free_energy": -8.345, "intermolecular_energy": -10.601, "internal_energy": -0.878}

$$$$
3qgy_ligand
     RDKit          3D

 54 57  0  0  0  0  0  0  0  0999 V2000
   28.1550   45.2010   17.0490 C   0  0  0  0  0  0  0  0  0  0  0  0
   28.9770   45.9780   17.9470 N   0  0  0  0  0  0  0  0  0  0  0  0
   28.9710   47.3440   17.7010 C   0  0  0  0  0  0  0  0  0  0  0  0
   27.8190   47.8380   17.2370 N   0  0  0  0  0  0  0  0  0  0  0  0
   27.7790   49.1600   16.9990 C   0  0  0  0  0  0  0  0  0  0  0  0
   28.8450   50.0000   17.2030 C   0  0  0  0  0  0  0  0  0  0  0  0
   29.9960   49.4080   17.6810 C   0  0  0  0  0  0  0  0  0  0  0  0
   31.2300   50.2020   17.9450 C   0  0  0  0  0  0  0  0  0  0  0  0
   31.2660   51.0020   19.0300 C   0  0  0  0  0  0  0  0  0  0  0  0
   32.3720   51.7560   19.3320 N   0  0  0  0  0  0  0  0  0  0  0  0
   33.5160   51.7730   18.5770 C   0  0  0  0  0  0  0  0  0  0  0  0
   34.5010   52.4460   18.8720 O   0  0  0  0  0  0  0  0  0  0  0  0
   33.5140   50.9100   17.3420 C   0  0  0  0  0  0  0  0  0  0  0  0
   34.6720   50.9560   16.5920 N   0  0  0  0  0  0  0  0  0  0  0  0
   34.8040   50.9880   15.2190 C   0  0  0  0  0  0  0  0  0  0  0  0
   33.8790   51.0200   14.4130 O   0  0  0  0  0  0  0  0  0  0  0  0
   36.2050   51.0100   14.7080 C   0  0  0  0  0  0  0  0  0  0  0  0
   37.2200   51.4350   15.5660 C   0  0  0  0  0  0  0  0  0  0  0  0
   38.5500   51.4700   15.1250 C   0  0  0  0  0  0  0  0  0  0  0  0
   38.9130   51.0960   13.8210 C   0  0  0  0  0  0  0  0  0  0  0  0
   40.2320   51.1290   13.3900 N   0  0  0  0  0  0  0  0  0  0  0  0
   40.9870   52.3860   13.3650 C   0  0  0  0  0  0  0  0  0  0  0  0
   42.4780   52.1210   13.5570 C   0  0  0  0  0  0  0  0  0  0  0  0
   43.0430   51.1920   12.4840 C   0  0  0  0  0  0  0  0  0  0  0  0
   42.0000   50.2220   11.9380 C   0  0  0  0  0  0  0  0  0  0  0  0
   40.9140   49.9020   12.9630 C   0  0  0  0  0  0  0  0  0  0  0  0
   37.8680   50.6910   12.9740 C   0  0  0  0  0  0  0  0  0  0  0  0
   36.5320   50.6490   13.4010 C   0  0  0  0  0  0  0  0  0  0  0  0
   32.4110   50.1900   17.0790 C   0  0  0  0  0  0  0  0  0  0  0  0
   30.0690   48.0790   17.9190 N   0  0  0  0  0  0  0  0  0  0  0  0
   27.4777   44.5608   17.6333 H   0  0  0  0  0  0  0  0  0  0  0  0
   27.5637   45.8779   16.4149 H   0  0  0  0  0  0  0  0  0  0  0  0
   28.7976   44.5725   16.4149 H   0  0  0  0  0  0  0  0  0  0  0  0
   28.7630   45.8750   18.9340 H   0  0  0  0  0  0  0  0  0  0  0  0
   26.8411   49.5923   16.6202 H   0  0  0  0  0  0  0  0  0  0  0  0
   28.7854   51.0791   16.9980 H   0  0  0  0  0  0  0  0  0  0  0  0
   30.3869   51.0514   19.6894 H   0  0  0  0  0  0  0  0  0  0  0  0
   32.3720   52.3460   20.1550 H   0  0  0  0  0  0  0  0  0  0  0  0
   35.5120   51.0100   17.1630 H   0  0  0  0  0  0  0  0  0  0  0  0
   36.9753   51.7439   16.5930 H   0  0  0  0  0  0  0  0  0  0  0  0
   39.3340   51.8008   15.8221 H   0  0  0  0  0  0  0  0  0  0  0  0
   40.8299   52.8829   12.3963 H   0  0  0  0  0  0  0  0  0  0  0  0
   40.6327   53.0289   14.1842 H   0  0  0  0  0  0  0  0  0  0  0  0
   43.0162   53.0794   13.5147 H   0  0  0  0  0  0  0  0  0  0  0  0
   42.6103   51.6296   14.5322 H   0  0  0  0  0  0  0  0  0  0  0  0
   43.4236   51.8042   11.6531 H   0  0  0  0  0  0  0  0  0  0  0  0
   43.8420   50.5950   12.9479 H   0  0  0  0  0  0  0  0  0  0  0  0
   41.5285   50.6715   11.0516 H   0  0  0  0  0  0  0  0  0  0  0  0
   42.5132   49.2821   11.6867 H   0  0  0  0  0  0  0  0  0  0  0  0
   40.1800   49.2185   12.5112 H   0  0  0  0  0  0  0  0  0  0  0  0
   41.3811   49.4311   13.8405 H   0  0  0  0  0  0  0  0  0  0  0  0
   38.1051   50.3968   11.9409 H   0  0  0  0  0  0  0  0  0  0  0  0
   35.7421   50.3312   12.7046 H   0  0  0  0  0  0  0  0  0  0  0  0
   32.3940   49.5645   16.1743 H   0  0  0  0  0  0  0  0  0  0  0  0
  1  2  1  0
  2  3  1  0
  3  4  2  0
  4  5  1  0
  5  6  2  0
  6  7  1  0
  7  8  1  0
  8  9  2  0
  9 10  1  0
 10 11  1  0
 11 12  2  0
 11 13  1  0
 13 14  1  0
 14 15  1  0
 15 16  2  0
 15 17  1  0
 17 18  2  0
 18 19  1  0
 19 20  2  0
 20 21  1  0
 21 22  1  0
 22 23  1  0
 23 24  1  0
 24 25  1  0
 25 26  1  0
 20 27  1  0
 27 28  2  0
 13 29  2  0
  7 30  2  0
 30  3  1  0
 29  8  1  0
 28 17  1  0
 26 21  1  0
  1 31  1  0
  1 32  1  0
  1 33  1  0
  2 34  1  0
  5 35  1  0
  6 36  1  0
  9 37  1  0
 10 38  1  0
 14 39  1  0
 18 40  1  0
 19 41  1  0
 22 42  1  0
 22 43  1  0
 23 44  1  0
 23 45  1  0
 24 46  1  0
 24 47  1  0
 25 48  1  0
 25 49  1  0
 26 50  1  0
 26 51  1  0
 27 52  1  0
 28 53  1  0
 29 54  1  0
M  END
>  <meeko>  (9) 
{"is_sidechain": [false], "free_energy": -8.31, "intermolecular_energy": -10.746, "internal_energy": -0.689}

$$$$
