4e5w_ligand
     RDKit          3D

 57 61  0  0  0  0  0  0  0  0999 V2000
   13.1870    2.6120   -1.3800 C   0  0  0  0  0  0  0  0  0  0  0  0
   14.2280    1.5140   -1.1880 C   0  0  0  0  0  0  0  0  0  0  0  0
   13.7870    0.4990   -0.1380 C   0  0  0  0  0  0  0  0  0  0  0  0
   15.5750    2.0720   -0.8070 N   0  0  2  0  0  0  0  0  0  0  0  0
   16.7110    1.1270   -0.5270 C   0  0  0  0  0  0  0  0  0  0  0  0
   17.6650    1.9630    0.2990 C   0  0  0  0  0  0  0  0  0  0  0  0
   16.7390    2.7620    1.2010 C   0  0  0  0  0  0  0  0  0  0  0  0
   15.5740    3.1630    0.3010 C   0  0  1  0  0  0  0  0  0  0  0  0
   15.7830    4.5390   -0.3660 C   0  0  0  0  0  0  0  0  0  0  0  0
   16.1530    4.5270   -1.5470 O   0  0  0  0  0  0  0  0  0  0  0  0
   15.5770    5.7030    0.3620 N   0  0  0  0  0  0  0  0  0  0  0  0
   15.6770    6.9660   -0.3720 C   0  0  0  0  0  0  0  0  0  0  0  0
   16.1490    8.1000    0.5250 C   0  0  0  0  0  0  0  0  0  0  0  0
   15.2510    8.2820    1.7570 C   0  0  0  0  0  0  0  0  0  0  0  0
   14.0280    9.0150    1.4450 N   0  0  0  0  0  0  0  0  0  0  0  0
   12.9240    8.5200    0.7880 C   0  0  0  0  0  0  0  0  0  0  0  0
   12.0020    9.4330    0.5750 N   0  0  0  0  0  0  0  0  0  0  0  0
   12.4850   10.5680    1.1710 C   0  0  0  0  0  0  0  0  0  0  0  0
   11.9480   11.8620    1.3020 C   0  0  0  0  0  0  0  0  0  0  0  0
   12.6020   12.8700    1.9590 N   0  0  0  0  0  0  0  0  0  0  0  0
   13.7920   12.5300    2.4810 C   0  0  0  0  0  0  0  0  0  0  0  0
   14.6430   13.3270    3.1940 N   0  0  0  0  0  0  0  0  0  0  0  0
   15.7570   12.5990    3.5580 C   0  0  0  0  0  0  0  0  0  0  0  0
   15.6260   11.3080    3.0730 C   0  0  0  0  0  0  0  0  0  0  0  0
   14.3850   11.2910    2.3940 C   0  0  0  0  0  0  0  0  0  0  0  0
   13.7260   10.3030    1.7240 C   0  0  0  0  0  0  0  0  0  0  0  0
   15.0810    6.9310    2.4830 C   0  0  0  0  0  0  0  0  0  0  0  0
   14.7600    5.7440    1.5730 C   0  0  0  0  0  0  0  0  0  0  0  0
   12.8469    2.9707   -0.3973 H   0  0  0  0  0  0  0  0  0  0  0  0
   13.6334    3.4465   -1.9406 H   0  0  0  0  0  0  0  0  0  0  0  0
   12.3299    2.2107   -1.9406 H   0  0  0  0  0  0  0  0  0  0  0  0
   14.3207    1.0074   -2.1600 H   0  0  0  0  0  0  0  0  0  0  0  0
   13.9655    0.9097    0.8667 H   0  0  0  0  0  0  0  0  0  0  0  0
   12.7150    0.2856   -0.2618 H   0  0  0  0  0  0  0  0  0  0  0  0
   14.3625   -0.4302   -0.2618 H   0  0  0  0  0  0  0  0  0  0  0  0
   15.8750    2.6290   -1.6370 H   0  0  0  0  0  0  0  0  0  0  0  0
   16.3637    0.2504    0.0395 H   0  0  0  0  0  0  0  0  0  0  0  0
   17.1720    0.7257   -1.4416 H   0  0  0  0  0  0  0  0  0  0  0  0
   18.3372    1.3245    0.8909 H   0  0  0  0  0  0  0  0  0  0  0  0
   18.3221    2.5977   -0.3137 H   0  0  0  0  0  0  0  0  0  0  0  0
   16.3864    2.1442    2.0400 H   0  0  0  0  0  0  0  0  0  0  0  0
   17.2410    3.6339    1.6458 H   0  0  0  0  0  0  0  0  0  0  0  0
   14.6400    3.2387    0.8771 H   0  0  0  0  0  0  0  0  0  0  0  0
   16.3928    6.8429   -1.1981 H   0  0  0  0  0  0  0  0  0  0  0  0
   14.6773    7.2223   -0.7528 H   0  0  0  0  0  0  0  0  0  0  0  0
   17.1726    7.8809    0.8629 H   0  0  0  0  0  0  0  0  0  0  0  0
   16.1092    9.0305   -0.0604 H   0  0  0  0  0  0  0  0  0  0  0  0
   15.7385    8.9422    2.4895 H   0  0  0  0  0  0  0  0  0  0  0  0
   12.8237    7.4705    0.4741 H   0  0  0  0  0  0  0  0  0  0  0  0
   10.9634   12.0724    0.8589 H   0  0  0  0  0  0  0  0  0  0  0  0
   14.4570   14.2960    3.4130 H   0  0  0  0  0  0  0  0  0  0  0  0
   16.6097   12.9812    4.1384 H   0  0  0  0  0  0  0  0  0  0  0  0
   16.3347   10.4750    3.1906 H   0  0  0  0  0  0  0  0  0  0  0  0
   16.0178    6.7094    3.0153 H   0  0  0  0  0  0  0  0  0  0  0  0
   14.2158    7.0483    3.1521 H   0  0  0  0  0  0  0  0  0  0  0  0
   14.9282    4.8157    2.1386 H   0  0  0  0  0  0  0  0  0  0  0  0
   13.7128    5.8531    1.2545 H   0  0  0  0  0  0  0  0  0  0  0  0
  1  2  1  0
  2  3  1  0
  2  4  1  0
  4  5  1  0
  5  6  1  0
  6  7  1  0
  7  8  1  0
  8  9  1  0
  9 10  2  0
  9 11  1  0
 11 12  1  0
 12 13  1  0
 13 14  1  0
 14 15  1  0
 15 16  1  0
 16 17  2  0
 17 18  1  0
 18 19  2  0
 19 20  1  0
 20 21  2  0
 21 22  1  0
 22 23  1  0
 23 24  2  0
 24 25  1  0
 25 26  2  0
 14 27  1  0
 27 28  1  0
  8  4  1  0
 28 11  1  0
 26 15  1  0
 26 18  1  0
 25 21  1  0
  1 29  1  0
  1 30  1  0
  1 31  1  0
  2 32  1  0
  3 33  1  0
  3 34  1  0
  3 35  1  0
  4 36  1  6
  5 37  1  0
  5 38  1  0
  6 39  1  0
  6 40  1  0
  7 41  1  0
  7 42  1  0
  8 43  1  1
 12 44  1  0
 12 45  1  0
 13 46  1  0
 13 47  1  0
 14 48  1  0
 16 49  1  0
 19 50  1  0
 22 51  1  0
 23 52  1  0
 24 53  1  0
 27 54  1  0
 27 55  1  0
 28 56  1  0
 28 57  1  0
M  CHG  1   4   1
M  END
>  <meeko>  (1) 
{"is_sidechain": [false], "free_energy": -8.294, "intermolecular_energy": -9.748, "internal_energy": -0.668}

$$$$
4e5w_ligand
     RDKit          3D

 57 61  0  0  0  0  0  0  0  0999 V2000
   14.8190   13.6750    3.4010 C   0  0  0  0  0  0  0  0  0  0  0  0
   14.7500   12.1520    3.4540 C   0  0  0  0  0  0  0  0  0  0  0  0
   16.1350   11.5330    3.6220 C   0  0  0  0  0  0  0  0  0  0  0  0
   14.0890   11.5730    2.2310 N   0  0  2  0  0  0  0  0  0  0  0  0
   12.7570   12.1150    1.7880 C   0  0  0  0  0  0  0  0  0  0  0  0
   12.1950   11.0000    0.9310 C   0  0  0  0  0  0  0  0  0  0  0  0
   12.6010    9.7430    1.6810 C   0  0  0  0  0  0  0  0  0  0  0  0
   14.0230   10.0220    2.1610 C   0  0  1  0  0  0  0  0  0  0  0  0
   15.0940    9.5300    1.1640 C   0  0  0  0  0  0  0  0  0  0  0  0
   15.9240   10.3690    0.7910 O   0  0  0  0  0  0  0  0  0  0  0  0
   15.0780    8.2150    0.7180 N   0  0  0  0  0  0  0  0  0  0  0  0
   16.1950    7.7930   -0.1290 C   0  0  0  0  0  0  0  0  0  0  0  0
   15.7790    6.7010   -1.1030 C   0  0  0  0  0  0  0  0  0  0  0  0
   15.1740    5.4830   -0.3900 C   0  0  0  0  0  0  0  0  0  0  0  0
   16.1980    4.6110    0.1750 N   0  0  0  0  0  0  0  0  0  0  0  0
   17.2950    5.0080    0.9090 C   0  0  0  0  0  0  0  0  0  0  0  0
   18.0920    4.0090    1.2200 N   0  0  0  0  0  0  0  0  0  0  0  0
   17.4670    2.8920    0.7280 C   0  0  0  0  0  0  0  0  0  0  0  0
   17.8130    1.5290    0.7670 C   0  0  0  0  0  0  0  0  0  0  0  0
   17.0290    0.5530    0.2140 N   0  0  0  0  0  0  0  0  0  0  0  0
   15.8970    0.9910   -0.3620 C   0  0  0  0  0  0  0  0  0  0  0  0
   14.9320    0.2390   -0.9710 N   0  0  0  0  0  0  0  0  0  0  0  0
   13.9250    1.0660   -1.4270 C   0  0  0  0  0  0  0  0  0  0  0  0
   14.2430    2.3760   -1.1070 C   0  0  0  0  0  0  0  0  0  0  0  0
   15.4910    2.3030   -0.4430 C   0  0  0  0  0  0  0  0  0  0  0  0
   16.2910    3.2640    0.1020 C   0  0  0  0  0  0  0  0  0  0  0  0
   14.0510    5.9400    0.5640 C   0  0  0  0  0  0  0  0  0  0  0  0
   14.4000    7.1430    1.4430 C   0  0  0  0  0  0  0  0  0  0  0  0
   14.8372   14.0771    4.4247 H   0  0  0  0  0  0  0  0  0  0  0  0
   15.7320   13.9824    2.8700 H   0  0  0  0  0  0  0  0  0  0  0  0
   13.9375   14.0637    2.8700 H   0  0  0  0  0  0  0  0  0  0  0  0
   14.1371   11.9034    4.3330 H   0  0  0  0  0  0  0  0  0  0  0  0
   16.3635   11.4309    4.6931 H   0  0  0  0  0  0  0  0  0  0  0  0
   16.1534   10.5410    3.1470 H   0  0  0  0  0  0  0  0  0  0  0  0
   16.8863   12.1810    3.1470 H   0  0  0  0  0  0  0  0  0  0  0  0
   14.7470   11.7820    1.4500 H   0  0  0  0  0  0  0  0  0  0  0  0
   12.1058   12.3146    2.6517 H   0  0  0  0  0  0  0  0  0  0  0  0
   12.8385   13.0715    1.2509 H   0  0  0  0  0  0  0  0  0  0  0  0
   11.1004   11.0762    0.8536 H   0  0  0  0  0  0  0  0  0  0  0  0
   12.5681   11.0230   -0.1035 H   0  0  0  0  0  0  0  0  0  0  0  0
   11.9305    9.5670    2.5351 H   0  0  0  0  0  0  0  0  0  0  0  0
   12.5431    8.8441    1.0497 H   0  0  0  0  0  0  0  0  0  0  0  0
   14.2258    9.5064    3.1113 H   0  0  0  0  0  0  0  0  0  0  0  0
   16.5578    8.6607   -0.6995 H   0  0  0  0  0  0  0  0  0  0  0  0
   16.9862    7.3908    0.5208 H   0  0  0  0  0  0  0  0  0  0  0  0
   15.0310    7.1122   -1.7969 H   0  0  0  0  0  0  0  0  0  0  0  0
   16.6804    6.3650   -1.6365 H   0  0  0  0  0  0  0  0  0  0  0  0
   14.6795    4.8224   -1.1174 H   0  0  0  0  0  0  0  0  0  0  0  0
   17.4841    6.0508    1.2037 H   0  0  0  0  0  0  0  0  0  0  0  0
   18.7509    1.2361    1.2616 H   0  0  0  0  0  0  0  0  0  0  0  0
   14.9710   -0.7670   -1.0560 H   0  0  0  0  0  0  0  0  0  0  0  0
   13.0187    0.7386   -1.9575 H   0  0  0  0  0  0  0  0  0  0  0  0
   13.6526    3.2787   -1.3226 H   0  0  0  0  0  0  0  0  0  0  0  0
   13.1732    6.2046   -0.0439 H   0  0  0  0  0  0  0  0  0  0  0  0
   13.8692    5.0998    1.2503 H   0  0  0  0  0  0  0  0  0  0  0  0
   13.4690    7.5450    1.8692 H   0  0  0  0  0  0  0  0  0  0  0  0
   15.0935    6.7873    2.2193 H   0  0  0  0  0  0  0  0  0  0  0  0
  1  2  1  0
  2  3  1  0
  2  4  1  0
  4  5  1  0
  5  6  1  0
  6  7  1  0
  7  8  1  0
  8  9  1  0
  9 10  2  0
  9 11  1  0
 11 12  1  0
 12 13  1  0
 13 14  1  0
 14 15  1  0
 15 16  1  0
 16 17  2  0
 17 18  1  0
 18 19  2  0
 19 20  1  0
 20 21  2  0
 21 22  1  0
 22 23  1  0
 23 24  2  0
 24 25  1  0
 25 26  2  0
 14 27  1  0
 27 28  1  0
  8  4  1  0
 28 11  1  0
 26 15  1  0
 26 18  1  0
 25 21  1  0
  1 29  1  0
  1 30  1  0
  1 31  1  0
  2 32  1  0
  3 33  1  0
  3 34  1  0
  3 35  1  0
  4 36  1  6
  5 37  1  0
  5 38  1  0
  6 39  1  0
  6 40  1  0
  7 41  1  0
  7 42  1  0
  8 43  1  1
 12 44  1  0
 12 45  1  0
 13 46  1  0
 13 47  1  0
 14 48  1  0
 16 49  1  0
 19 50  1  0
 22 51  1  0
 23 52  1  0
 24 53  1  0
 27 54  1  0
 27 55  1  0
 28 56  1  0
 28 57  1  0
M  CHG  1   4   1
M  END
>  <meeko>  (2) 
{"is_sidechain": [false], "free_energy": -8.242, "intermolecular_energy": -10.445, "internal_energy": 0.09}

$$$$
4e5w_ligand
     RDKit          3D

 57 61  0  0  0  0  0  0  0  0999 V2000
   12.0120   12.6650   -1.1380 C   0  0  0  0  0  0  0  0  0  0  0  0
   12.0530   11.2460   -0.5810 C   0  0  0  0  0  0  0  0  0  0  0  0
   10.6720   10.5980   -0.5900 C   0  0  0  0  0  0  0  0  0  0  0  0
   12.6160   11.2020    0.8160 N   0  0  2  0  0  0  0  0  0  0  0  0
   12.7840   12.4870    1.5810 C   0  0  0  0  0  0  0  0  0  0  0  0
   13.8120   12.1320    2.6360 C   0  0  0  0  0  0  0  0  0  0  0  0
   14.7870   11.2390    1.8870 C   0  0  0  0  0  0  0  0  0  0  0  0
   13.9070   10.3580    1.0060 C   0  0  1  0  0  0  0  0  0  0  0  0
   13.5250    9.0270    1.6880 C   0  0  0  0  0  0  0  0  0  0  0  0
   12.5640    9.0640    2.4670 O   0  0  0  0  0  0  0  0  0  0  0  0
   14.2600    7.8770    1.4310 N   0  0  0  0  0  0  0  0  0  0  0  0
   13.7640    6.6320    2.0200 C   0  0  0  0  0  0  0  0  0  0  0  0
   14.8960    5.6590    2.3110 C   0  0  0  0  0  0  0  0  0  0  0  0
   15.7350    5.3490    1.0620 C   0  0  0  0  0  0  0  0  0  0  0  0
   15.0910    4.3660    0.1960 N   0  0  0  0  0  0  0  0  0  0  0  0
   13.9400    4.5530   -0.5360 C   0  0  0  0  0  0  0  0  0  0  0  0
   13.5490    3.4650   -1.1620 N   0  0  0  0  0  0  0  0  0  0  0  0
   14.5150    2.5330   -0.8870 C   0  0  0  0  0  0  0  0  0  0  0  0
   14.6690    1.1930   -1.2890 C   0  0  0  0  0  0  0  0  0  0  0  0
   15.7350    0.4250   -0.9040 N   0  0  0  0  0  0  0  0  0  0  0  0
   16.6300    1.0480   -0.1210 C   0  0  0  0  0  0  0  0  0  0  0  0
   17.7860    0.5280    0.3920 N   0  0  0  0  0  0  0  0  0  0  0  0
   18.4310    1.4930    1.1400 C   0  0  0  0  0  0  0  0  0  0  0  0
   17.6810    2.6570    1.1110 C   0  0  0  0  0  0  0  0  0  0  0  0
   16.5500    2.3500    0.3160 C   0  0  0  0  0  0  0  0  0  0  0  0
   15.4750    3.0970   -0.0660 C   0  0  0  0  0  0  0  0  0  0  0  0
   16.1880    6.6650    0.3980 C   0  0  0  0  0  0  0  0  0  0  0  0
   15.0920    7.7210    0.2400 C   0  0  0  0  0  0  0  0  0  0  0  0
   11.9912   13.3848   -0.3065 H   0  0  0  0  0  0  0  0  0  0  0  0
   12.9054   12.8428   -1.7546 H   0  0  0  0  0  0  0  0  0  0  0  0
   11.1098   12.7909   -1.7546 H   0  0  0  0  0  0  0  0  0  0  0  0
   12.7201   10.6768   -1.2451 H   0  0  0  0  0  0  0  0  0  0  0  0
   10.3345   10.4396    0.4449 H   0  0  0  0  0  0  0  0  0  0  0  0
    9.9613   11.2566   -1.1107 H   0  0  0  0  0  0  0  0  0  0  0  0
   10.7244    9.6305   -1.1107 H   0  0  0  0  0  0  0  0  0  0  0  0
   11.9270   10.6420    1.3620 H   0  0  0  0  0  0  0  0  0  0  0  0
   13.1525   13.2903    0.9261 H   0  0  0  0  0  0  0  0  0  0  0  0
   11.8413   12.8611    2.0069 H   0  0  0  0  0  0  0  0  0  0  0  0
   14.3150   13.0337    3.0153 H   0  0  0  0  0  0  0  0  0  0  0  0
   13.3725   11.6445    3.5187 H   0  0  0  0  0  0  0  0  0  0  0  0
   15.4714   11.8419    1.2721 H   0  0  0  0  0  0  0  0  0  0  0  0
   15.4178   10.6486    2.5678 H   0  0  0  0  0  0  0  0  0  0  0  0
   14.4274   10.0898    0.0747 H   0  0  0  0  0  0  0  0  0  0  0  0
   13.2432    6.8650    2.9605 H   0  0  0  0  0  0  0  0  0  0  0  0
   13.0812    6.1589    1.2989 H   0  0  0  0  0  0  0  0  0  0  0  0
   15.5516    6.0983    3.0773 H   0  0  0  0  0  0  0  0  0  0  0  0
   14.4480    4.7160    2.6576 H   0  0  0  0  0  0  0  0  0  0  0  0
   16.6662    4.8364    1.3450 H   0  0  0  0  0  0  0  0  0  0  0  0
   13.4039    5.5119   -0.5913 H   0  0  0  0  0  0  0  0  0  0  0  0
   13.9024    0.7450   -1.9383 H   0  0  0  0  0  0  0  0  0  0  0  0
   18.1000   -0.4180    0.2280 H   0  0  0  0  0  0  0  0  0  0  0  0
   19.3845    1.3591    1.6719 H   0  0  0  0  0  0  0  0  0  0  0  0
   17.9138    3.6143    1.6003 H   0  0  0  0  0  0  0  0  0  0  0  0
   16.9923    7.0973    1.0113 H   0  0  0  0  0  0  0  0  0  0  0  0
   16.5089    6.4006   -0.6204 H   0  0  0  0  0  0  0  0  0  0  0  0
   15.5684    8.6874    0.0185 H   0  0  0  0  0  0  0  0  0  0  0  0
   14.4332    7.3856   -0.5745 H   0  0  0  0  0  0  0  0  0  0  0  0
  1  2  1  0
  2  3  1  0
  2  4  1  0
  4  5  1  0
  5  6  1  0
  6  7  1  0
  7  8  1  0
  8  9  1  0
  9 10  2  0
  9 11  1  0
 11 12  1  0
 12 13  1  0
 13 14  1  0
 14 15  1  0
 15 16  1  0
 16 17  2  0
 17 18  1  0
 18 19  2  0
 19 20  1  0
 20 21  2  0
 21 22  1  0
 22 23  1  0
 23 24  2  0
 24 25  1  0
 25 26  2  0
 14 27  1  0
 27 28  1  0
  8  4  1  0
 28 11  1  0
 26 15  1  0
 26 18  1  0
 25 21  1  0
  1 29  1  0
  1 30  1  0
  1 31  1  0
  2 32  1  0
  3 33  1  0
  3 34  1  0
  3 35  1  0
  4 36  1  1
  5 37  1  0
  5 38  1  0
  6 39  1  0
  6 40  1  0
  7 41  1  0
  7 42  1  0
  8 43  1  6
 12 44  1  0
 12 45  1  0
 13 46  1  0
 13 47  1  0
 14 48  1  0
 16 49  1  0
 19 50  1  0
 22 51  1  0
 23 52  1  0
 24 53  1  0
 27 54  1  0
 27 55  1  0
 28 56  1  0
 28 57  1  0
M  CHG  1   4   1
M  END
>  <meeko>  (3) 
{"is_sidechain": [false], "free_energy": -8.208, "intermolecular_energy": -9.635, "internal_energy": -0.68}

$$$$
4e5w_ligand
     RDKit          3D

 57 61  0  0  0  0  0  0  0  0999 V2000
   12.0620    4.0710   -0.1970 C   0  0  0  0  0  0  0  0  0  0  0  0
   13.4610    4.2630   -0.7710 C   0  0  0  0  0  0  0  0  0  0  0  0
   14.1970    2.9340   -0.9130 C   0  0  0  0  0  0  0  0  0  0  0  0
   14.2900    5.2060    0.0620 N   0  0  2  0  0  0  0  0  0  0  0  0
   15.5560    4.7040    0.7010 C   0  0  0  0  0  0  0  0  0  0  0  0
   15.7960    5.6940    1.8220 C   0  0  0  0  0  0  0  0  0  0  0  0
   14.4000    5.9590    2.3610 C   0  0  0  0  0  0  0  0  0  0  0  0
   13.5160    6.0410    1.1200 C   0  0  1  0  0  0  0  0  0  0  0  0
   13.3670    7.4840    0.5910 C   0  0  0  0  0  0  0  0  0  0  0  0
   14.4170    8.0940    0.3530 O   0  0  0  0  0  0  0  0  0  0  0  0
   12.1040    8.0370    0.4270 N   0  0  0  0  0  0  0  0  0  0  0  0
   12.0410    9.3630   -0.1920 C   0  0  0  0  0  0  0  0  0  0  0  0
   10.8380   10.1540    0.2980 C   0  0  0  0  0  0  0  0  0  0  0  0
    9.5160    9.4070    0.0690 C   0  0  0  0  0  0  0  0  0  0  0  0
    9.0500    9.5210   -1.3090 N   0  0  0  0  0  0  0  0  0  0  0  0
    9.6840    9.0290   -2.4280 C   0  0  0  0  0  0  0  0  0  0  0  0
    9.0720    9.3520   -3.5470 N   0  0  0  0  0  0  0  0  0  0  0  0
    7.9490   10.0320   -3.1520 C   0  0  0  0  0  0  0  0  0  0  0  0
    6.8930   10.6050   -3.8830 C   0  0  0  0  0  0  0  0  0  0  0  0
    5.8400   11.2420   -3.2820 N   0  0  0  0  0  0  0  0  0  0  0  0
    5.8840   11.2700   -1.9400 C   0  0  0  0  0  0  0  0  0  0  0  0
    4.9640   11.8210   -1.0920 N   0  0  0  0  0  0  0  0  0  0  0  0
    5.3720   11.6320    0.2130 C   0  0  0  0  0  0  0  0  0  0  0  0
    6.5760   10.9470    0.2110 C   0  0  0  0  0  0  0  0  0  0  0  0
    6.8800   10.7350   -1.1550 C   0  0  0  0  0  0  0  0  0  0  0  0
    7.9280   10.1170   -1.7710 C   0  0  0  0  0  0  0  0  0  0  0  0
    9.6140    7.9820    0.6510 C   0  0  0  0  0  0  0  0  0  0  0  0
   10.8960    7.2260    0.2960 C   0  0  0  0  0  0  0  0  0  0  0  0
   12.1124    4.0779    0.9018 H   0  0  0  0  0  0  0  0  0  0  0  0
   11.4099    4.8881   -0.5393 H   0  0  0  0  0  0  0  0  0  0  0  0
   11.6541    3.1085   -0.5393 H   0  0  0  0  0  0  0  0  0  0  0  0
   13.3241    4.7057   -1.7686 H   0  0  0  0  0  0  0  0  0  0  0  0
   14.4206    2.5302    0.0855 H   0  0  0  0  0  0  0  0  0  0  0  0
   13.5648    2.2217   -1.4634 H   0  0  0  0  0  0  0  0  0  0  0  0
   15.1362    3.0920   -1.4634 H   0  0  0  0  0  0  0  0  0  0  0  0
   14.5910    5.9510   -0.6020 H   0  0  0  0  0  0  0  0  0  0  0  0
   15.4214    3.6862    1.0960 H   0  0  0  0  0  0  0  0  0  0  0  0
   16.3979    4.6391   -0.0040 H   0  0  0  0  0  0  0  0  0  0  0  0
   16.4424    5.2600    2.5991 H   0  0  0  0  0  0  0  0  0  0  0  0
   16.3079    6.6079    1.4862 H   0  0  0  0  0  0  0  0  0  0  0  0
   14.0744    5.1373    3.0159 H   0  0  0  0  0  0  0  0  0  0  0  0
   14.3543    6.8763    2.9664 H   0  0  0  0  0  0  0  0  0  0  0  0
   12.4984    5.6846    1.3379 H   0  0  0  0  0  0  0  0  0  0  0  0
   12.9580    9.9171    0.0573 H   0  0  0  0  0  0  0  0  0  0  0  0
   11.9451    9.2303   -1.2797 H   0  0  0  0  0  0  0  0  0  0  0  0
   10.9547   10.3442    1.3751 H   0  0  0  0  0  0  0  0  0  0  0  0
   10.7972   11.0927   -0.2739 H   0  0  0  0  0  0  0  0  0  0  0  0
    8.7028    9.8899    0.6307 H   0  0  0  0  0  0  0  0  0  0  0  0
   10.6052    8.4290   -2.3903 H   0  0  0  0  0  0  0  0  0  0  0  0
    6.9136   10.5390   -4.9808 H   0  0  0  0  0  0  0  0  0  0  0  0
    4.1200   12.2840   -1.3990 H   0  0  0  0  0  0  0  0  0  0  0  0
    4.8297   11.9701    1.1083 H   0  0  0  0  0  0  0  0  0  0  0  0
    7.1686   10.6349    1.0836 H   0  0  0  0  0  0  0  0  0  0  0  0
    9.5536    8.0559    1.7469 H   0  0  0  0  0  0  0  0  0  0  0  0
    8.7863    7.4102    0.2059 H   0  0  0  0  0  0  0  0  0  0  0  0
   10.9851    6.3575    0.9651 H   0  0  0  0  0  0  0  0  0  0  0  0
   10.8165    6.9309   -0.7607 H   0  0  0  0  0  0  0  0  0  0  0  0
  1  2  1  0
  2  3  1  0
  2  4  1  0
  4  5  1  0
  5  6  1  0
  6  7  1  0
  7  8  1  0
  8  9  1  0
  9 10  2  0
  9 11  1  0
 11 12  1  0
 12 13  1  0
 13 14  1  0
 14 15  1  0
 15 16  1  0
 16 17  2  0
 17 18  1  0
 18 19  2  0
 19 20  1  0
 20 21  2  0
 21 22  1  0
 22 23  1  0
 23 24  2  0
 24 25  1  0
 25 26  2  0
 14 27  1  0
 27 28  1  0
  8  4  1  0
 28 11  1  0
 26 15  1  0
 26 18  1  0
 25 21  1  0
  1 29  1  0
  1 30  1  0
  1 31  1  0
  2 32  1  0
  3 33  1  0
  3 34  1  0
  3 35  1  0
  4 36  1  6
  5 37  1  0
  5 38  1  0
  6 39  1  0
  6 40  1  0
  7 41  1  0
  7 42  1  0
  8 43  1  1
 12 44  1  0
 12 45  1  0
 13 46  1  0
 13 47  1  0
 14 48  1  0
 16 49  1  0
 19 50  1  0
 22 51  1  0
 23 52  1  0
 24 53  1  0
 27 54  1  0
 27 55  1  0
 28 56  1  0
 28 57  1  0
M  CHG  1   4   1
M  END
>  <meeko>  (4) 
{"is_sidechain": [false], "free_energy": -6.731, "intermolecular_energy": -8.056, "internal_energy": -0.523}

$$$$
4e5w_ligand
     RDKit          3D

 57 61  0  0  0  0  0  0  0  0999 V2000
    5.6880    6.5270   -4.2710 C   0  0  0  0  0  0  0  0  0  0  0  0
    6.2180    7.8330   -4.8540 C   0  0  0  0  0  0  0  0  0  0  0  0
    7.6710    7.7000   -5.3030 C   0  0  0  0  0  0  0  0  0  0  0  0
    6.1000    8.9760   -3.8790 N   0  0  2  0  0  0  0  0  0  0  0  0
    5.2350   10.1560   -4.2310 C   0  0  0  0  0  0  0  0  0  0  0  0
    5.7660   11.2560   -3.3360 C   0  0  0  0  0  0  0  0  0  0  0  0
    7.2690   11.0320   -3.3600 C   0  0  0  0  0  0  0  0  0  0  0  0
    7.4350    9.5160   -3.2950 C   0  0  1  0  0  0  0  0  0  0  0  0
    7.5830    8.9960   -1.8490 C   0  0  0  0  0  0  0  0  0  0  0  0
    6.5440    8.6210   -1.2910 O   0  0  0  0  0  0  0  0  0  0  0  0
    8.8290    8.9860   -1.2380 N   0  0  0  0  0  0  0  0  0  0  0  0
    8.9090    8.3660    0.0860 C   0  0  0  0  0  0  0  0  0  0  0  0
   10.0040    8.9950    0.9350 C   0  0  0  0  0  0  0  0  0  0  0  0
   11.3770    8.9430    0.2500 C   0  0  0  0  0  0  0  0  0  0  0  0
   12.0080    7.6340    0.3790 N   0  0  0  0  0  0  0  0  0  0  0  0
   11.3830    6.4110    0.2620 C   0  0  0  0  0  0  0  0  0  0  0  0
   12.1880    5.4000    0.5070 N   0  0  0  0  0  0  0  0  0  0  0  0
   13.4130    5.9700    0.7350 C   0  0  0  0  0  0  0  0  0  0  0  0
   14.6700    5.4090    1.0260 C   0  0  0  0  0  0  0  0  0  0  0  0
   15.7930    6.1710    1.2100 N   0  0  0  0  0  0  0  0  0  0  0  0
   15.6090    7.4950    1.0820 C   0  0  0  0  0  0  0  0  0  0  0  0
   16.5510    8.4780    1.1980 N   0  0  0  0  0  0  0  0  0  0  0  0
   15.9600    9.7080    0.9890 C   0  0  0  0  0  0  0  0  0  0  0  0
   14.6120    9.5180    0.7330 C   0  0  0  0  0  0  0  0  0  0  0  0
   14.4140    8.1190    0.8030 C   0  0  0  0  0  0  0  0  0  0  0  0
   13.3030    7.3460    0.6360 C   0  0  0  0  0  0  0  0  0  0  0  0
   11.2710    9.5230   -1.1760 C   0  0  0  0  0  0  0  0  0  0  0  0
   10.0810    9.0170   -1.9930 C   0  0  0  0  0  0  0  0  0  0  0  0
    5.7097    6.5804   -3.1725 H   0  0  0  0  0  0  0  0  0  0  0  0
    4.6538    6.3671   -4.6100 H   0  0  0  0  0  0  0  0  0  0  0  0
    6.3183    5.6917   -4.6100 H   0  0  0  0  0  0  0  0  0  0  0  0
    5.5909    8.0534   -5.7304 H   0  0  0  0  0  0  0  0  0  0  0  0
    8.3237    7.6403   -4.4196 H   0  0  0  0  0  0  0  0  0  0  0  0
    7.7862    6.7876   -5.9065 H   0  0  0  0  0  0  0  0  0  0  0  0
    7.9500    8.5764   -5.9065 H   0  0  0  0  0  0  0  0  0  0  0  0
    5.6630    8.5560   -3.0300 H   0  0  0  0  0  0  0  0  0  0  0  0
    5.3459   10.4234   -5.2922 H   0  0  0  0  0  0  0  0  0  0  0  0
    4.1621    9.9622   -4.0849 H   0  0  0  0  0  0  0  0  0  0  0  0
    5.5091   12.2479   -3.7361 H   0  0  0  0  0  0  0  0  0  0  0  0
    5.3428   11.2268   -2.3211 H   0  0  0  0  0  0  0  0  0  0  0  0
    7.7060   11.4308   -4.2873 H   0  0  0  0  0  0  0  0  0  0  0  0
    7.7796   11.5429   -2.5304 H   0  0  0  0  0  0  0  0  0  0  0  0
    8.3396    9.1956   -3.8327 H   0  0  0  0  0  0  0  0  0  0  0  0
    7.9437    8.4923    0.5980 H   0  0  0  0  0  0  0  0  0  0  0  0
    9.1471    7.3004   -0.0474 H   0  0  0  0  0  0  0  0  0  0  0  0
    9.7435   10.0467    1.1252 H   0  0  0  0  0  0  0  0  0  0  0  0
   10.0739    8.4218    1.8713 H   0  0  0  0  0  0  0  0  0  0  0  0
   12.0894    9.5978    0.7731 H   0  0  0  0  0  0  0  0  0  0  0  0
   10.3231    6.2930   -0.0077 H   0  0  0  0  0  0  0  0  0  0  0  0
   14.7541    4.3154    1.1090 H   0  0  0  0  0  0  0  0  0  0  0  0
   17.5260    8.3030    1.4000 H   0  0  0  0  0  0  0  0  0  0  0  0
   16.4750   10.6795    1.0206 H   0  0  0  0  0  0  0  0  0  0  0  0
   13.8573   10.2896    0.5208 H   0  0  0  0  0  0  0  0  0  0  0  0
   11.1883   10.6168   -1.0942 H   0  0  0  0  0  0  0  0  0  0  0  0
   12.1737    9.1919   -1.7103 H   0  0  0  0  0  0  0  0  0  0  0  0
    9.9480    9.6786   -2.8617 H   0  0  0  0  0  0  0  0  0  0  0  0
   10.3072    7.9820   -2.2892 H   0  0  0  0  0  0  0  0  0  0  0  0
  1  2  1  0
  2  3  1  0
  2  4  1  0
  4  5  1  0
  5  6  1  0
  6  7  1  0
  7  8  1  0
  8  9  1  0
  9 10  2  0
  9 11  1  0
 11 12  1  0
 12 13  1  0
 13 14  1  0
 14 15  1  0
 15 16  1  0
 16 17  2  0
 17 18  1  0
 18 19  2  0
 19 20  1  0
 20 21  2  0
 21 22  1  0
 22 23  1  0
 23 24  2  0
 24 25  1  0
 25 26  2  0
 14 27  1  0
 27 28  1  0
  8  4  1  0
 28 11  1  0
 26 15  1  0
 26 18  1  0
 25 21  1  0
  1 29  1  0
  1 30  1  0
  1 31  1  0
  2 32  1  0
  3 33  1  0
  3 34  1  0
  3 35  1  0
  4 36  1  1
  5 37  1  0
  5 38  1  0
  6 39  1  0
  6 40  1  0
  7 41  1  0
  7 42  1  0
  8 43  1  6
 12 44  1  0
 12 45  1  0
 13 46  1  0
 13 47  1  0
 14 48  1  0
 16 49  1  0
 19 50  1  0
 22 51  1  0
 23 52  1  0
 24 53  1  0
 27 54  1  0
 27 55  1  0
 28 56  1  0
 28 57  1  0
M  CHG  1   4   1
M  END
>  <meeko>  (5) 
{"is_sidechain": [false], "free_energy": -6.634, "intermolecular_energy": -7.708, "internal_energy": -0.757}

$$$$
4e5w_ligand
     RDKit          3D

 57 61  0  0  0  0  0  0  0  0999 V2000
    8.8140    8.8430   -5.9080 C   0  0  0  0  0  0  0  0  0  0  0  0
    8.3610    7.6990   -5.0060 C   0  0  0  0  0  0  0  0  0  0  0  0
    8.0520    6.4390   -5.8100 C   0  0  0  0  0  0  0  0  0  0  0  0
    7.1570    8.0730   -4.1810 N   0  0  2  0  0  0  0  0  0  0  0  0
    5.8090    8.1570   -4.8440 C   0  0  0  0  0  0  0  0  0  0  0  0
    5.0110    9.0320   -3.8990 C   0  0  0  0  0  0  0  0  0  0  0  0
    6.0160   10.0840   -3.4630 C   0  0  0  0  0  0  0  0  0  0  0  0
    7.3190    9.3150   -3.2610 C   0  0  1  0  0  0  0  0  0  0  0  0
    7.5020    8.8280   -1.8080 C   0  0  0  0  0  0  0  0  0  0  0  0
    6.4830    8.4300   -1.2290 O   0  0  0  0  0  0  0  0  0  0  0  0
    8.7560    8.8690   -1.2130 N   0  0  0  0  0  0  0  0  0  0  0  0
    8.8720    8.2790    0.1210 C   0  0  0  0  0  0  0  0  0  0  0  0
    9.9560    8.9590    0.9440 C   0  0  0  0  0  0  0  0  0  0  0  0
   11.3220    8.9380    0.2420 C   0  0  0  0  0  0  0  0  0  0  0  0
   11.9960    7.6520    0.3870 N   0  0  0  0  0  0  0  0  0  0  0  0
   11.4200    6.4080    0.2540 C   0  0  0  0  0  0  0  0  0  0  0  0
   12.2540    5.4260    0.5200 N   0  0  0  0  0  0  0  0  0  0  0  0
   13.4510    6.0400    0.7810 C   0  0  0  0  0  0  0  0  0  0  0  0
   14.7200    5.5250    1.1040 C   0  0  0  0  0  0  0  0  0  0  0  0
   15.8080    6.3270    1.3180 N   0  0  0  0  0  0  0  0  0  0  0  0
   15.5800    7.6440    1.1860 C   0  0  0  0  0  0  0  0  0  0  0  0
   16.4830    8.6600    1.3270 N   0  0  0  0  0  0  0  0  0  0  0  0
   15.8530    9.8680    1.1020 C   0  0  0  0  0  0  0  0  0  0  0  0
   14.5200    9.6300    0.8100 C   0  0  0  0  0  0  0  0  0  0  0  0
   14.3710    8.2240    0.8750 C   0  0  0  0  0  0  0  0  0  0  0  0
   13.2940    7.4110    0.6780 C   0  0  0  0  0  0  0  0  0  0  0  0
   11.1790    9.4860   -1.1930 C   0  0  0  0  0  0  0  0  0  0  0  0
    9.9960    8.9260   -1.9850 C   0  0  0  0  0  0  0  0  0  0  0  0
    9.1486    9.6880   -5.2884 H   0  0  0  0  0  0  0  0  0  0  0  0
    9.6451    8.5022   -6.5430 H   0  0  0  0  0  0  0  0  0  0  0  0
    7.9749    9.1636   -6.5430 H   0  0  0  0  0  0  0  0  0  0  0  0
    9.2009    7.4933   -4.3261 H   0  0  0  0  0  0  0  0  0  0  0  0
    7.8476    5.6057   -5.1216 H   0  0  0  0  0  0  0  0  0  0  0  0
    7.1705    6.6155   -6.4439 H   0  0  0  0  0  0  0  0  0  0  0  0
    8.9151    6.1877   -6.4439 H   0  0  0  0  0  0  0  0  0  0  0  0
    7.0720    7.3090   -3.4760 H   0  0  0  0  0  0  0  0  0  0  0  0
    5.8871    8.6199   -5.8388 H   0  0  0  0  0  0  0  0  0  0  0  0
    5.3489    7.1719   -5.0113 H   0  0  0  0  0  0  0  0  0  0  0  0
    4.1569    9.4936   -4.4161 H   0  0  0  0  0  0  0  0  0  0  0  0
    4.5802    8.4728   -3.0553 H   0  0  0  0  0  0  0  0  0  0  0  0
    6.1356   10.8523   -4.2411 H   0  0  0  0  0  0  0  0  0  0  0  0
    5.6980   10.6107   -2.5512 H   0  0  0  0  0  0  0  0  0  0  0  0
    8.1895    9.9487   -3.4862 H   0  0  0  0  0  0  0  0  0  0  0  0
    7.9093    8.3846    0.6426 H   0  0  0  0  0  0  0  0  0  0  0  0
    9.1431    7.2192    0.0052 H   0  0  0  0  0  0  0  0  0  0  0  0
    9.6639   10.0052    1.1178 H   0  0  0  0  0  0  0  0  0  0  0  0
   10.0559    8.4066    1.8900 H   0  0  0  0  0  0  0  0  0  0  0  0
   12.0195    9.6252    0.7432 H   0  0  0  0  0  0  0  0  0  0  0  0
   10.3725    6.2520   -0.0434 H   0  0  0  0  0  0  0  0  0  0  0  0
   14.8423    4.4350    1.1878 H   0  0  0  0  0  0  0  0  0  0  0  0
   17.4570    8.5210    1.5550 H   0  0  0  0  0  0  0  0  0  0  0  0
   16.3314   10.8575    1.1472 H   0  0  0  0  0  0  0  0  0  0  0  0
   13.7439   10.3740    0.5775 H   0  0  0  0  0  0  0  0  0  0  0  0
   11.0616   10.5780   -1.1310 H   0  0  0  0  0  0  0  0  0  0  0  0
   12.0852    9.1736   -1.7327 H   0  0  0  0  0  0  0  0  0  0  0  0
    9.8304    9.5662   -2.8641 H   0  0  0  0  0  0  0  0  0  0  0  0
   10.2521    7.8936   -2.2652 H   0  0  0  0  0  0  0  0  0  0  0  0
  1  2  1  0
  2  3  1  0
  2  4  1  0
  4  5  1  0
  5  6  1  0
  6  7  1  0
  7  8  1  0
  8  9  1  0
  9 10  2  0
  9 11  1  0
 11 12  1  0
 12 13  1  0
 13 14  1  0
 14 15  1  0
 15 16  1  0
 16 17  2  0
 17 18  1  0
 18 19  2  0
 19 20  1  0
 20 21  2  0
 21 22  1  0
 22 23  1  0
 23 24  2  0
 24 25  1  0
 25 26  2  0
 14 27  1  0
 27 28  1  0
  8  4  1  0
 28 11  1  0
 26 15  1  0
 26 18  1  0
 25 21  1  0
  1 29  1  0
  1 30  1  0
  1 31  1  0
  2 32  1  0
  3 33  1  0
  3 34  1  0
  3 35  1  0
  4 36  1  1
  5 37  1  0
  5 38  1  0
  6 39  1  0
  6 40  1  0
  7 41  1  0
  7 42  1  0
  8 43  1  6
 12 44  1  0
 12 45  1  0
 13 46  1  0
 13 47  1  0
 14 48  1  0
 16 49  1  0
 19 50  1  0
 22 51  1  0
 23 52  1  0
 24 53  1  0
 27 54  1  0
 27 55  1  0
 28 56  1  0
 28 57  1  0
M  CHG  1   4   1
M  END
>  <meeko>  (6) 
{"is_sidechain": [false], "free_energy": -6.579, "intermolecular_energy": -7.853, "internal_energy": -0.548}

$$$$
4e5w_ligand
     RDKit          3D

 57 61  0  0  0  0  0  0  0  0999 V2000
    6.9440   12.0490    2.6860 C   0  0  0  0  0  0  0  0  0  0  0  0
    6.3060   13.0920    1.7750 C   0  0  0  0  0  0  0  0  0  0  0  0
    5.0840   13.7350    2.4260 C   0  0  0  0  0  0  0  0  0  0  0  0
    5.9140   12.5140    0.4410 N   0  0  2  0  0  0  0  0  0  0  0  0
    4.4950   12.6630   -0.0380 C   0  0  0  0  0  0  0  0  0  0  0  0
    4.3580   11.5620   -1.0680 C   0  0  0  0  0  0  0  0  0  0  0  0
    5.1240   10.4050   -0.4500 C   0  0  0  0  0  0  0  0  0  0  0  0
    6.3590   11.0490    0.1740 C   0  0  1  0  0  0  0  0  0  0  0  0
    7.5670   11.0720   -0.7870 C   0  0  0  0  0  0  0  0  0  0  0  0
    7.5090   11.8780   -1.7240 O   0  0  0  0  0  0  0  0  0  0  0  0
    8.6310   10.2020   -0.5870 N   0  0  0  0  0  0  0  0  0  0  0  0
    9.7910   10.3670   -1.4660 C   0  0  0  0  0  0  0  0  0  0  0  0
   10.5200    9.0500   -1.6850 C   0  0  0  0  0  0  0  0  0  0  0  0
   10.9530    8.3960   -0.3650 C   0  0  0  0  0  0  0  0  0  0  0  0
   12.1680    8.9970    0.1750 N   0  0  0  0  0  0  0  0  0  0  0  0
   12.3920   10.3400    0.3820 C   0  0  0  0  0  0  0  0  0  0  0  0
   13.6110   10.5970    0.8050 N   0  0  0  0  0  0  0  0  0  0  0  0
   14.2020    9.3690    0.9450 C   0  0  0  0  0  0  0  0  0  0  0  0
   15.4840    8.9880    1.3820 C   0  0  0  0  0  0  0  0  0  0  0  0
   15.8780    7.6790    1.4610 N   0  0  0  0  0  0  0  0  0  0  0  0
   14.9460    6.7820    1.1000 C   0  0  0  0  0  0  0  0  0  0  0  0
   15.0640    5.4200    1.0960 N   0  0  0  0  0  0  0  0  0  0  0  0
   13.8790    4.8580    0.6650 C   0  0  0  0  0  0  0  0  0  0  0  0
   12.9790    5.8730    0.3850 C   0  0  0  0  0  0  0  0  0  0  0  0
   13.6750    7.0740    0.6610 C   0  0  0  0  0  0  0  0  0  0  0  0
   13.3040    8.3830    0.5760 C   0  0  0  0  0  0  0  0  0  0  0  0
    9.7460    8.2980    0.5900 C   0  0  0  0  0  0  0  0  0  0  0  0
    8.9050    9.5720    0.7020 C   0  0  0  0  0  0  0  0  0  0  0  0
    6.7741   12.3268    3.7367 H   0  0  0  0  0  0  0  0  0  0  0  0
    6.4929   11.0652    2.4893 H   0  0  0  0  0  0  0  0  0  0  0  0
    8.0253   12.0025    2.4893 H   0  0  0  0  0  0  0  0  0  0  0  0
    7.0725   13.8636    1.6104 H   0  0  0  0  0  0  0  0  0  0  0  0
    5.1819   13.6835    3.5204 H   0  0  0  0  0  0  0  0  0  0  0  0
    5.0130   14.7872    2.1133 H   0  0  0  0  0  0  0  0  0  0  0  0
    4.1766   13.1976    2.1133 H   0  0  0  0  0  0  0  0  0  0  0  0
    6.4960   13.0310   -0.2530 H   0  0  0  0  0  0  0  0  0  0  0  0
    3.7831   12.5204    0.7883 H   0  0  0  0  0  0  0  0  0  0  0  0
    4.2806   13.6623   -0.4448 H   0  0  0  0  0  0  0  0  0  0  0  0
    3.3017   11.2969   -1.2227 H   0  0  0  0  0  0  0  0  0  0  0  0
    4.7404   11.8502   -2.0583 H   0  0  0  0  0  0  0  0  0  0  0  0
    4.5171    9.9042    0.3187 H   0  0  0  0  0  0  0  0  0  0  0  0
    5.3849    9.6349   -1.1909 H   0  0  0  0  0  0  0  0  0  0  0  0
    6.6838   10.4933    1.0660 H   0  0  0  0  0  0  0  0  0  0  0  0
    9.4501   10.7522   -2.4383 H   0  0  0  0  0  0  0  0  0  0  0  0
   10.4881   11.0704   -0.9871 H   0  0  0  0  0  0  0  0  0  0  0  0
    9.8502    8.3596   -2.2186 H   0  0  0  0  0  0  0  0  0  0  0  0
   11.4279    9.2615   -2.2690 H   0  0  0  0  0  0  0  0  0  0  0  0
   11.2647    7.3556   -0.5392 H   0  0  0  0  0  0  0  0  0  0  0  0
   11.6316   11.1163    0.2116 H   0  0  0  0  0  0  0  0  0  0  0  0
   16.1981    9.7729    1.6717 H   0  0  0  0  0  0  0  0  0  0  0  0
   15.8990    4.9260    1.3780 H   0  0  0  0  0  0  0  0  0  0  0  0
   13.6819    3.7808    0.5610 H   0  0  0  0  0  0  0  0  0  0  0  0
   11.9448    5.7681    0.0252 H   0  0  0  0  0  0  0  0  0  0  0  0
    9.0929    7.4882    0.2326 H   0  0  0  0  0  0  0  0  0  0  0  0
   10.1608    8.1142    1.5921 H   0  0  0  0  0  0  0  0  0  0  0  0
    7.9458    9.3160    1.1758 H   0  0  0  0  0  0  0  0  0  0  0  0
    9.4845   10.2920    1.2984 H   0  0  0  0  0  0  0  0  0  0  0  0
  1  2  1  0
  2  3  1  0
  2  4  1  0
  4  5  1  0
  5  6  1  0
  6  7  1  0
  7  8  1  0
  8  9  1  0
  9 10  2  0
  9 11  1  0
 11 12  1  0
 12 13  1  0
 13 14  1  0
 14 15  1  0
 15 16  1  0
 16 17  2  0
 17 18  1  0
 18 19  2  0
 19 20  1  0
 20 21  2  0
 21 22  1  0
 22 23  1  0
 23 24  2  0
 24 25  1  0
 25 26  2  0
 14 27  1  0
 27 28  1  0
  8  4  1  0
 28 11  1  0
 26 15  1  0
 26 18  1  0
 25 21  1  0
  1 29  1  0
  1 30  1  0
  1 31  1  0
  2 32  1  0
  3 33  1  0
  3 34  1  0
  3 35  1  0
  4 36  1  6
  5 37  1  0
  5 38  1  0
  6 39  1  0
  6 40  1  0
  7 41  1  0
  7 42  1  0
  8 43  1  1
 12 44  1  0
 12 45  1  0
 13 46  1  0
 13 47  1  0
 14 48  1  0
 16 49  1  0
 19 50  1  0
 22 51  1  0
 23 52  1  0
 24 53  1  0
 27 54  1  0
 27 55  1  0
 28 56  1  0
 28 57  1  0
M  CHG  1   4   1
M  END
>  <meeko>  (7) 
{"is_sidechain": [false], "free_energy": -6.317, "intermolecular_energy": -7.433, "internal_energy": -0.659}

$$$$
4e5w_ligand
     RDKit          3D

 57 61  0  0  0  0  0  0  0  0999 V2000
   17.2490    9.4920    0.5420 C   0  0  0  0  0  0  0  0  0  0  0  0
   15.7460    9.2630    0.6610 C   0  0  0  0  0  0  0  0  0  0  0  0
   15.1190   10.1790    1.7080 C   0  0  0  0  0  0  0  0  0  0  0  0
   15.4170    7.8300    0.9900 N   0  0  2  0  0  0  0  0  0  0  0  0
   16.5320    6.8780    1.3270 C   0  0  0  0  0  0  0  0  0  0  0  0
   15.9180    5.5180    1.0700 C   0  0  0  0  0  0  0  0  0  0  0  0
   15.0920    5.7380   -0.1860 C   0  0  0  0  0  0  0  0  0  0  0  0
   14.4500    7.1090    0.0090 C   0  0  1  0  0  0  0  0  0  0  0  0
   13.0570    7.0250    0.6690 C   0  0  0  0  0  0  0  0  0  0  0  0
   12.9280    6.1940    1.5770 O   0  0  0  0  0  0  0  0  0  0  0  0
   12.0260    7.8400    0.2220 N   0  0  0  0  0  0  0  0  0  0  0  0
   10.7710    7.7890    0.9750 C   0  0  0  0  0  0  0  0  0  0  0  0
    9.5720    8.0880    0.0890 C   0  0  0  0  0  0  0  0  0  0  0  0
    9.6970    9.4410   -0.6260 C   0  0  0  0  0  0  0  0  0  0  0  0
    9.3510   10.5590    0.2460 N   0  0  0  0  0  0  0  0  0  0  0  0
   10.2290   11.3120    0.9940 C   0  0  0  0  0  0  0  0  0  0  0  0
    9.6240   12.2040    1.7480 N   0  0  0  0  0  0  0  0  0  0  0  0
    8.2940   12.0820    1.4420 C   0  0  0  0  0  0  0  0  0  0  0  0
    7.1570   12.7730    1.9000 C   0  0  0  0  0  0  0  0  0  0  0  0
    5.8950   12.4980    1.4480 N   0  0  0  0  0  0  0  0  0  0  0  0
    5.8200   11.5250    0.5250 C   0  0  0  0  0  0  0  0  0  0  0  0
    4.6980   11.0620   -0.1030 N   0  0  0  0  0  0  0  0  0  0  0  0
    5.0470   10.0630   -0.9890 C   0  0  0  0  0  0  0  0  0  0  0  0
    6.4180    9.8760   -0.9340 C   0  0  0  0  0  0  0  0  0  0  0  0
    6.8820   10.8030    0.0290 C   0  0  0  0  0  0  0  0  0  0  0  0
    8.1310   11.0810    0.5000 C   0  0  0  0  0  0  0  0  0  0  0  0
   11.0550    9.5240   -1.3520 C   0  0  0  0  0  0  0  0  0  0  0  0
   12.2600    9.0760   -0.5230 C   0  0  0  0  0  0  0  0  0  0  0  0
   17.6904    9.5592    1.5473 H   0  0  0  0  0  0  0  0  0  0  0  0
   17.7057    8.6531   -0.0036 H   0  0  0  0  0  0  0  0  0  0  0  0
   17.4351   10.4289   -0.0036 H   0  0  0  0  0  0  0  0  0  0  0  0
   15.3210    9.5024   -0.3249 H   0  0  0  0  0  0  0  0  0  0  0  0
   15.3703    9.8119    2.7140 H   0  0  0  0  0  0  0  0  0  0  0  0
   15.5085   11.2000    1.5824 H   0  0  0  0  0  0  0  0  0  0  0  0
   14.0262   10.1854    1.5824 H   0  0  0  0  0  0  0  0  0  0  0  0
   14.8290    7.8840    1.8490 H   0  0  0  0  0  0  0  0  0  0  0  0
   17.4036    7.0461    0.6773 H   0  0  0  0  0  0  0  0  0  0  0  0
   16.9024    6.9957    2.3560 H   0  0  0  0  0  0  0  0  0  0  0  0
   16.6968    4.7597    0.9014 H   0  0  0  0  0  0  0  0  0  0  0  0
   15.3220    5.1481    1.9174 H   0  0  0  0  0  0  0  0  0  0  0  0
   15.7346    5.7338   -1.0788 H   0  0  0  0  0  0  0  0  0  0  0  0
   14.3443    4.9455   -0.3370 H   0  0  0  0  0  0  0  0  0  0  0  0
   14.3046    7.6160   -0.9563 H   0  0  0  0  0  0  0  0  0  0  0  0
   10.6542    6.7836    1.4058 H   0  0  0  0  0  0  0  0  0  0  0  0
   10.8133    8.5534    1.7649 H   0  0  0  0  0  0  0  0  0  0  0  0
    9.4854    7.2948   -0.6681 H   0  0  0  0  0  0  0  0  0  0  0  0
    8.6808    8.1292    0.7325 H   0  0  0  0  0  0  0  0  0  0  0  0
    8.9420    9.5234   -1.4217 H   0  0  0  0  0  0  0  0  0  0  0  0
   11.3208   11.1812    0.9640 H   0  0  0  0  0  0  0  0  0  0  0  0
    7.2878   13.5658    2.6513 H   0  0  0  0  0  0  0  0  0  0  0  0
    3.7680   11.4180    0.0690 H   0  0  0  0  0  0  0  0  0  0  0  0
    4.3503    9.5066   -1.6332 H   0  0  0  0  0  0  0  0  0  0  0  0
    7.0180    9.1599   -1.5148 H   0  0  0  0  0  0  0  0  0  0  0  0
   11.0022    8.8884   -2.2482 H   0  0  0  0  0  0  0  0  0  0  0  0
   11.2172   10.5879   -1.5798 H   0  0  0  0  0  0  0  0  0  0  0  0
   13.1108    8.9179   -1.2020 H   0  0  0  0  0  0  0  0  0  0  0  0
   12.4581    9.8671    0.2152 H   0  0  0  0  0  0  0  0  0  0  0  0
  1  2  1  0
  2  3  1  0
  2  4  1  0
  4  5  1  0
  5  6  1  0
  6  7  1  0
  7  8  1  0
  8  9  1  0
  9 10  2  0
  9 11  1  0
 11 12  1  0
 12 13  1  0
 13 14  1  0
 14 15  1  0
 15 16  1  0
 16 17  2  0
 17 18  1  0
 18 19  2  0
 19 20  1  0
 20 21  2  0
 21 22  1  0
 22 23  1  0
 23 24  2  0
 24 25  1  0
 25 26  2  0
 14 27  1  0
 27 28  1  0
  8  4  1  0
 28 11  1  0
 26 15  1  0
 26 18  1  0
 25 21  1  0
  1 29  1  0
  1 30  1  0
  1 31  1  0
  2 32  1  0
  3 33  1  0
  3 34  1  0
  3 35  1  0
  4 36  1  1
  5 37  1  0
  5 38  1  0
  6 39  1  0
  6 40  1  0
  7 41  1  0
  7 42  1  0
  8 43  1  6
 12 44  1  0
 12 45  1  0
 13 46  1  0
 13 47  1  0
 14 48  1  0
 16 49  1  0
 19 50  1  0
 22 51  1  0
 23 52  1  0
 24 53  1  0
 27 54  1  0
 27 55  1  0
 28 56  1  0
 28 57  1  0
M  CHG  1   4   1
M  END
>  <meeko>  (8) 
{"is_sidechain": [false], "free_energy": -6.119, "intermolecular_energy": -7.128, "internal_energy": -0.731}

$$$$
4e5w_ligand
     RDKit          3D

 57 61  0  0  0  0  0  0  0  0999 V2000
   11.4200    8.9760   -5.5470 C   0  0  0  0  0  0  0  0  0  0  0  0
   11.1880   10.4280   -5.9530 C   0  0  0  0  0  0  0  0  0  0  0  0
   12.2400   11.3540   -5.3500 C   0  0  0  0  0  0  0  0  0  0  0  0
    9.8160   10.9110   -5.5640 N   0  0  2  0  0  0  0  0  0  0  0  0
    8.9900   11.6680   -6.5690 C   0  0  0  0  0  0  0  0  0  0  0  0
    7.9910   12.4130   -5.7080 C   0  0  0  0  0  0  0  0  0  0  0  0
    8.8180   12.8490   -4.5100 C   0  0  0  0  0  0  0  0  0  0  0  0
    9.7140   11.6530   -4.2020 C   0  0  1  0  0  0  0  0  0  0  0  0
    9.0880   10.6930   -3.1670 C   0  0  0  0  0  0  0  0  0  0  0  0
    7.9330   10.3130   -3.3970 O   0  0  0  0  0  0  0  0  0  0  0  0
    9.8100   10.3180   -2.0410 N   0  0  0  0  0  0  0  0  0  0  0  0
    9.1980    9.3130   -1.1710 C   0  0  0  0  0  0  0  0  0  0  0  0
    9.6300    9.4860    0.2770 C   0  0  0  0  0  0  0  0  0  0  0  0
   11.1570    9.4580    0.4380 C   0  0  0  0  0  0  0  0  0  0  0  0
   11.6860    8.0980    0.4270 N   0  0  0  0  0  0  0  0  0  0  0  0
   10.9740    6.9470    0.1740 C   0  0  0  0  0  0  0  0  0  0  0  0
   11.6970    5.8570    0.3110 N   0  0  0  0  0  0  0  0  0  0  0  0
   12.9580    6.3040    0.6060 C   0  0  0  0  0  0  0  0  0  0  0  0
   14.1660    5.6220    0.8400 C   0  0  0  0  0  0  0  0  0  0  0  0
   15.3400    6.2710    1.1120 N   0  0  0  0  0  0  0  0  0  0  0  0
   15.2570    7.6120    1.1290 C   0  0  0  0  0  0  0  0  0  0  0  0
   16.2690    8.5020    1.3570 N   0  0  0  0  0  0  0  0  0  0  0  0
   15.7740    9.7890    1.2800 C   0  0  0  0  0  0  0  0  0  0  0  0
   14.4190    9.7310    0.9980 C   0  0  0  0  0  0  0  0  0  0  0  0
   14.1160    8.3510    0.9130 C   0  0  0  0  0  0  0  0  0  0  0  0
   12.9530    7.6870    0.6570 C   0  0  0  0  0  0  0  0  0  0  0  0
   11.8040   10.4610   -0.5390 C   0  0  0  0  0  0  0  0  0  0  0  0
   11.2670   10.4070   -1.9700 C   0  0  0  0  0  0  0  0  0  0  0  0
   11.4322    8.8996   -4.4497 H   0  0  0  0  0  0  0  0  0  0  0  0
   10.6106    8.3490   -5.9493 H   0  0  0  0  0  0  0  0  0  0  0  0
   12.3844    8.6324   -5.9493 H   0  0  0  0  0  0  0  0  0  0  0  0
   11.2710   10.4568   -7.0495 H   0  0  0  0  0  0  0  0  0  0  0  0
   12.1851   11.3057   -4.2524 H   0  0  0  0  0  0  0  0  0  0  0  0
   13.2401   11.0378   -5.6814 H   0  0  0  0  0  0  0  0  0  0  0  0
   12.0532   12.3861   -5.6814 H   0  0  0  0  0  0  0  0  0  0  0  0
    9.2760   10.0420   -5.3610 H   0  0  0  0  0  0  0  0  0  0  0  0
    9.6136   12.3680   -7.1445 H   0  0  0  0  0  0  0  0  0  0  0  0
    8.5132   11.0144   -7.3143 H   0  0  0  0  0  0  0  0  0  0  0  0
    7.5822   13.2833   -6.2423 H   0  0  0  0  0  0  0  0  0  0  0  0
    7.1209   11.8000   -5.4301 H   0  0  0  0  0  0  0  0  0  0  0  0
    9.4232   13.7335   -4.7576 H   0  0  0  0  0  0  0  0  0  0  0  0
    8.1906   13.1310   -3.6516 H   0  0  0  0  0  0  0  0  0  0  0  0
   10.6754   11.9799   -3.7790 H   0  0  0  0  0  0  0  0  0  0  0  0
    8.1038    9.4084   -1.2306 H   0  0  0  0  0  0  0  0  0  0  0  0
    9.5256    8.3194   -1.5107 H   0  0  0  0  0  0  0  0  0  0  0  0
    9.2533   10.4516    0.6454 H   0  0  0  0  0  0  0  0  0  0  0  0
    9.2158    8.6460    0.8540 H   0  0  0  0  0  0  0  0  0  0  0  0
   11.4422    9.8119    1.4397 H   0  0  0  0  0  0  0  0  0  0  0  0
    9.9120    6.9399   -0.1126 H   0  0  0  0  0  0  0  0  0  0  0  0
   14.1671    4.5226    0.8029 H   0  0  0  0  0  0  0  0  0  0  0  0
   17.2250    8.2340    1.5430 H   0  0  0  0  0  0  0  0  0  0  0  0
   16.3598   10.7095    1.4197 H   0  0  0  0  0  0  0  0  0  0  0  0
   13.7270   10.5761    0.8680 H   0  0  0  0  0  0  0  0  0  0  0  0
   11.6343   11.4754   -0.1488 H   0  0  0  0  0  0  0  0  0  0  0  0
   12.8681   10.1888   -0.5993 H   0  0  0  0  0  0  0  0  0  0  0  0
   11.5866   11.3182   -2.4968 H   0  0  0  0  0  0  0  0  0  0  0  0
   11.6707    9.4949   -2.4337 H   0  0  0  0  0  0  0  0  0  0  0  0
  1  2  1  0
  2  3  1  0
  2  4  1  0
  4  5  1  0
  5  6  1  0
  6  7  1  0
  7  8  1  0
  8  9  1  0
  9 10  2  0
  9 11  1  0
 11 12  1  0
 12 13  1  0
 13 14  1  0
 14 15  1  0
 15 16  1  0
 16 17  2  0
 17 18  1  0
 18 19  2  0
 19 20  1  0
 20 21  2  0
 21 22  1  0
 22 23  1  0
 23 24  2  0
 24 25  1  0
 25 26  2  0
 14 27  1  0
 27 28  1  0
  8  4  1  0
 28 11  1  0
 26 15  1  0
 26 18  1  0
 25 21  1  0
  1 29  1  0
  1 30  1  0
  1 31  1  0
  2 32  1  0
  3 33  1  0
  3 34  1  0
  3 35  1  0
  4 36  1  1
  5 37  1  0
  5 38  1  0
  6 39  1  0
  6 40  1  0
  7 41  1  0
  7 42  1  0
  8 43  1  1
 12 44  1  0
 12 45  1  0
 13 46  1  0
 13 47  1  0
 14 48  1  0
 16 49  1  0
 19 50  1  0
 22 51  1  0
 23 52  1  0
 24 53  1  0
 27 54  1  0
 27 55  1  0
 28 56  1  0
 28 57  1  0
M  CHG  1   4   1
M  END
>  <meeko>  (9) 
{"is_sidechain": [false], "free_energy": -6.11, "intermolecular_energy": -7.538, "internal_energy": -0.311}

$$$$
