1y6r_ligand
     RDKit          3D

 38 40  0  0  0  0  0  0  0  0999 V2000
   45.7690   79.7410   23.6890 C   0  0  0  0  0  0  0  0  0  0  0  0
   46.0350   80.3520   25.3750 S   0  0  0  0  0  0  0  0  0  0  0  0
   47.1700   79.0470   25.9660 C   0  0  0  0  0  0  0  0  0  0  0  0
   46.5670   78.3200   27.1730 C   0  0  1  0  0  0  0  0  0  0  0  0
   46.7690   79.0830   28.4580 N   0  0  0  0  0  0  0  0  0  0  0  0
   45.5240   78.9480   29.3030 C   0  0  1  0  0  0  0  0  0  0  0  0
   44.8240   80.2450   29.5510 C   0  0  0  0  0  0  0  0  0  0  0  0
   45.0780   81.4670   28.9490 C   0  0  0  0  0  0  0  0  0  0  0  0
   44.1950   82.3960   29.4530 N   0  0  0  0  0  0  0  0  0  0  0  0
   43.3780   81.8000   30.3800 C   0  0  0  0  0  0  0  0  0  0  0  0
   42.3310   82.2730   31.1510 C   0  0  0  0  0  0  0  0  0  0  0  0
   41.9020   83.5860   31.1530 N   0  0  0  0  0  0  0  0  0  0  0  0
   41.6970   81.3890   31.9370 N   0  0  0  0  0  0  0  0  0  0  0  0
   42.1070   80.1090   31.9370 C   0  0  0  0  0  0  0  0  0  0  0  0
   43.1180   79.5610   31.2310 N   0  0  0  0  0  0  0  0  0  0  0  0
   43.7400   80.4680   30.4440 C   0  0  0  0  0  0  0  0  0  0  0  0
   44.6530   77.9240   28.5360 C   0  0  2  0  0  0  0  0  0  0  0  0
   45.0200   76.5760   28.8830 O   0  0  0  0  0  0  0  0  0  0  0  0
   45.0480   78.1530   27.0780 C   0  0  2  0  0  0  0  0  0  0  0  0
   44.6820   77.0520   26.2590 O   0  0  0  0  0  0  0  0  0  0  0  0
   45.3302   78.7331   23.7292 H   0  0  0  0  0  0  0  0  0  0  0  0
   45.0842   80.4181   23.1574 H   0  0  0  0  0  0  0  0  0  0  0  0
   46.7312   79.7011   23.1574 H   0  0  0  0  0  0  0  0  0  0  0  0
   47.3427   78.3230   25.1561 H   0  0  0  0  0  0  0  0  0  0  0  0
   48.1206   79.5110   26.2677 H   0  0  0  0  0  0  0  0  0  0  0  0
   47.0847   77.3494   27.1702 H   0  0  0  0  0  0  0  0  0  0  0  0
   47.6130   78.7510   28.9410 H   0  0  0  0  0  0  0  0  0  0  0  0
   46.9450   80.0810   28.2380 H   0  0  0  0  0  0  0  0  0  0  0  0
   45.7613   78.6091   30.3222 H   0  0  0  0  0  0  0  0  0  0  0  0
   45.8547   81.6623   28.1950 H   0  0  0  0  0  0  0  0  0  0  0  0
   44.1280   83.3660   29.1690 H   0  0  0  0  0  0  0  0  0  0  0  0
   41.9990   83.9930   30.2270 H   0  0  0  0  0  0  0  0  0  0  0  0
   41.0180   83.7740   31.6020 H   0  0  0  0  0  0  0  0  0  0  0  0
   41.5500   79.4240   32.5931 H   0  0  0  0  0  0  0  0  0  0  0  0
   43.5817   78.0484   28.7527 H   0  0  0  0  0  0  0  0  0  0  0  0
   45.1400   76.5310   29.8530 H   0  0  0  0  0  0  0  0  0  0  0  0
   44.5457   79.0145   26.6138 H   0  0  0  0  0  0  0  0  0  0  0  0
   44.8730   77.2930   25.3280 H   0  0  0  0  0  0  0  0  0  0  0  0
  1  2  1  0
  2  3  1  0
  3  4  1  0
  4  5  1  0
  5  6  1  0
  6  7  1  0
  7  8  2  0
  8  9  1  0
  9 10  1  0
 10 11  2  0
 11 12  1  0
 11 13  1  0
 13 14  2  0
 14 15  1  0
 15 16  2  0
  6 17  1  0
 17 18  1  0
 17 19  1  0
 19 20  1  0
 19  4  1  0
 16  7  1  0
 16 10  1  0
  1 21  1  0
  1 22  1  0
  1 23  1  0
  3 24  1  0
  3 25  1  0
  4 26  1  1
  5 27  1  0
  5 28  1  0
  6 29  1  1
  8 30  1  0
  9 31  1  0
 12 32  1  0
 12 33  1  0
 14 34  1  0
 17 35  1  6
 18 36  1  0
 19 37  1  6
 20 38  1  0
M  CHG  1   5   1
M  END
>  <meeko>  (1) 
{"is_sidechain": [false], "free_energy": -6.287, "intermolecular_energy": -7.941, "internal_energy": -0.577}

$$$$
1y6r_ligand
     RDKit          3D

 38 40  0  0  0  0  0  0  0  0999 V2000
   41.3670   79.2570   31.9030 C   0  0  0  0  0  0  0  0  0  0  0  0
   42.0520   80.9360   31.9000 S   0  0  0  0  0  0  0  0  0  0  0  0
   43.2270   80.7510   30.5110 C   0  0  0  0  0  0  0  0  0  0  0  0
   43.0680   81.9100   29.5200 C   0  0  1  0  0  0  0  0  0  0  0  0
   41.6280   82.3300   29.3590 N   0  0  0  0  0  0  0  0  0  0  0  0
   41.5720   83.8340   29.2400 C   0  0  1  0  0  0  0  0  0  0  0  0
   40.8300   84.4960   30.3560 C   0  0  0  0  0  0  0  0  0  0  0  0
   41.3550   84.9930   31.5380 C   0  0  0  0  0  0  0  0  0  0  0  0
   40.3280   85.5330   32.2800 N   0  0  0  0  0  0  0  0  0  0  0  0
   39.1440   85.3880   31.6050 C   0  0  0  0  0  0  0  0  0  0  0  0
   37.8440   85.7650   31.8940 C   0  0  0  0  0  0  0  0  0  0  0  0
   37.4630   86.3920   33.0640 N   0  0  0  0  0  0  0  0  0  0  0  0
   36.9080   85.5080   30.9680 N   0  0  0  0  0  0  0  0  0  0  0  0
   37.2730   84.9020   29.8250 C   0  0  0  0  0  0  0  0  0  0  0  0
   38.5050   84.4890   29.4620 N   0  0  0  0  0  0  0  0  0  0  0  0
   39.4340   84.7620   30.4070 C   0  0  0  0  0  0  0  0  0  0  0  0
   43.0560   84.2640   29.1580 C   0  0  2  0  0  0  0  0  0  0  0  0
   43.5390   84.1880   27.8040 O   0  0  0  0  0  0  0  0  0  0  0  0
   43.7770   83.1900   29.9710 C   0  0  2  0  0  0  0  0  0  0  0  0
   45.1670   83.1600   29.6800 O   0  0  0  0  0  0  0  0  0  0  0  0
   41.2291   78.9191   32.9407 H   0  0  0  0  0  0  0  0  0  0  0  0
   40.3966   79.2560   31.3851 H   0  0  0  0  0  0  0  0  0  0  0  0
   42.0598   78.5774   31.3851 H   0  0  0  0  0  0  0  0  0  0  0  0
   44.2547   80.7477   30.9033 H   0  0  0  0  0  0  0  0  0  0  0  0
   43.0187   79.8046   29.9904 H   0  0  0  0  0  0  0  0  0  0  0  0
   43.5000   81.5107   28.5906 H   0  0  0  0  0  0  0  0  0  0  0  0
   41.2060   81.8530   28.5530 H   0  0  0  0  0  0  0  0  0  0  0  0
   41.0870   82.0150   30.1870 H   0  0  0  0  0  0  0  0  0  0  0  0
   40.9995   84.1494   28.3553 H   0  0  0  0  0  0  0  0  0  0  0  0
   42.4140   84.9616   31.8340 H   0  0  0  0  0  0  0  0  0  0  0  0
   40.4250   85.9990   33.1760 H   0  0  0  0  0  0  0  0  0  0  0  0
   38.1320   87.1150   33.3150 H   0  0  0  0  0  0  0  0  0  0  0  0
   36.4970   86.6750   33.1340 H   0  0  0  0  0  0  0  0  0  0  0  0
   36.4689   84.7207   29.0966 H   0  0  0  0  0  0  0  0  0  0  0  0
   43.2072   85.2943   29.5123 H   0  0  0  0  0  0  0  0  0  0  0  0
   44.4730   84.4770   27.7950 H   0  0  0  0  0  0  0  0  0  0  0  0
   43.7310   83.3524   31.0580 H   0  0  0  0  0  0  0  0  0  0  0  0
   45.2710   83.2000   28.7060 H   0  0  0  0  0  0  0  0  0  0  0  0
  1  2  1  0
  2  3  1  0
  3  4  1  0
  4  5  1  0
  5  6  1  0
  6  7  1  0
  7  8  2  0
  8  9  1  0
  9 10  1  0
 10 11  2  0
 11 12  1  0
 11 13  1  0
 13 14  2  0
 14 15  1  0
 15 16  2  0
  6 17  1  0
 17 18  1  0
 17 19  1  0
 19 20  1  0
 19  4  1  0
 16  7  1  0
 16 10  1  0
  1 21  1  0
  1 22  1  0
  1 23  1  0
  3 24  1  0
  3 25  1  0
  4 26  1  6
  5 27  1  0
  5 28  1  0
  6 29  1  6
  8 30  1  0
  9 31  1  0
 12 32  1  0
 12 33  1  0
 14 34  1  0
 17 35  1  1
 18 36  1  0
 19 37  1  1
 20 38  1  0
M  CHG  1   5   1
M  END
>  <meeko>  (2) 
{"is_sidechain": [false], "free_energy": -6.279, "intermolecular_energy": -8.121, "internal_energy": -0.386}

$$$$
1y6r_ligand
     RDKit          3D

 38 40  0  0  0  0  0  0  0  0999 V2000
   43.8350   71.8010   21.6930 C   0  0  0  0  0  0  0  0  0  0  0  0
   43.8320   72.9390   20.2810 S   0  0  0  0  0  0  0  0  0  0  0  0
   44.6980   74.3470   21.0600 C   0  0  0  0  0  0  0  0  0  0  0  0
   44.4240   74.3750   22.5680 C   0  0  1  0  0  0  0  0  0  0  0  0
   45.6020   74.8980   23.3530 N   0  0  0  0  0  0  0  0  0  0  0  0
   45.0880   75.7580   24.4830 C   0  0  1  0  0  0  0  0  0  0  0  0
   45.5080   77.1880   24.3860 C   0  0  0  0  0  0  0  0  0  0  0  0
   46.0700   77.8290   23.2930 C   0  0  0  0  0  0  0  0  0  0  0  0
   46.2900   79.1480   23.6240 N   0  0  0  0  0  0  0  0  0  0  0  0
   45.8900   79.3730   24.9160 C   0  0  0  0  0  0  0  0  0  0  0  0
   45.8780   80.5040   25.7130 C   0  0  0  0  0  0  0  0  0  0  0  0
   46.3570   81.7360   25.3140 N   0  0  0  0  0  0  0  0  0  0  0  0
   45.3580   80.3850   26.9440 N   0  0  0  0  0  0  0  0  0  0  0  0
   44.8860   79.1890   27.3370 C   0  0  0  0  0  0  0  0  0  0  0  0
   44.8660   78.0350   26.6390 N   0  0  0  0  0  0  0  0  0  0  0  0
   45.3900   78.1780   25.4000 C   0  0  0  0  0  0  0  0  0  0  0  0
   43.5520   75.5700   24.4350 C   0  0  2  0  0  0  0  0  0  0  0  0
   43.1550   74.3950   25.1650 O   0  0  0  0  0  0  0  0  0  0  0  0
   43.2780   75.3130   22.9540 C   0  0  2  0  0  0  0  0  0  0  0  0
   42.0060   74.7130   22.7560 O   0  0  0  0  0  0  0  0  0  0  0  0
   43.8335   72.3784   22.6293 H   0  0  0  0  0  0  0  0  0  0  0  0
   42.9385   71.1648   21.6531 H   0  0  0  0  0  0  0  0  0  0  0  0
   44.7348   71.1695   21.6531 H   0  0  0  0  0  0  0  0  0  0  0  0
   45.7801   74.2458   20.8901 H   0  0  0  0  0  0  0  0  0  0  0  0
   44.3310   75.2828   20.6133 H   0  0  0  0  0  0  0  0  0  0  0  0
   44.1895   73.3264   22.8035 H   0  0  0  0  0  0  0  0  0  0  0  0
   46.1850   74.1190   23.6810 H   0  0  0  0  0  0  0  0  0  0  0  0
   46.2080   75.4580   22.7240 H   0  0  0  0  0  0  0  0  0  0  0  0
   45.5127   75.4525   25.4506 H   0  0  0  0  0  0  0  0  0  0  0  0
   46.3015   77.3627   22.3240 H   0  0  0  0  0  0  0  0  0  0  0  0
   46.6610   79.8600   23.0060 H   0  0  0  0  0  0  0  0  0  0  0  0
   47.3000   81.8820   25.6630 H   0  0  0  0  0  0  0  0  0  0  0  0
   46.2290   81.9810   24.3430 H   0  0  0  0  0  0  0  0  0  0  0  0
   44.4645   79.1464   28.3521 H   0  0  0  0  0  0  0  0  0  0  0  0
   43.0171   76.4299   24.8644 H   0  0  0  0  0  0  0  0  0  0  0  0
   43.3760   73.6100   24.6250 H   0  0  0  0  0  0  0  0  0  0  0  0
   43.2437   76.2280   22.3444 H   0  0  0  0  0  0  0  0  0  0  0  0
   42.0540   74.1710   21.9400 H   0  0  0  0  0  0  0  0  0  0  0  0
  1  2  1  0
  2  3  1  0
  3  4  1  0
  4  5  1  0
  5  6  1  0
  6  7  1  0
  7  8  2  0
  8  9  1  0
  9 10  1  0
 10 11  2  0
 11 12  1  0
 11 13  1  0
 13 14  2  0
 14 15  1  0
 15 16  2  0
  6 17  1  0
 17 18  1  0
 17 19  1  0
 19 20  1  0
 19  4  1  0
 16  7  1  0
 16 10  1  0
  1 21  1  0
  1 22  1  0
  1 23  1  0
  3 24  1  0
  3 25  1  0
  4 26  1  1
  5 27  1  0
  5 28  1  0
  6 29  1  1
  8 30  1  0
  9 31  1  0
 12 32  1  0
 12 33  1  0
 14 34  1  0
 17 35  1  1
 18 36  1  0
 19 37  1  6
 20 38  1  0
M  CHG  1   5   1
M  END
>  <meeko>  (3) 
{"is_sidechain": [false], "free_energy": -6.222, "intermolecular_energy": -7.951, "internal_energy": -0.484}

$$$$
1y6r_ligand
     RDKit          3D

 38 40  0  0  0  0  0  0  0  0999 V2000
   46.1810   78.4340   24.0530 C   0  0  0  0  0  0  0  0  0  0  0  0
   44.5950   77.6450   24.4430 S   0  0  0  0  0  0  0  0  0  0  0  0
   44.0670   78.7450   25.8040 C   0  0  0  0  0  0  0  0  0  0  0  0
   45.2480   79.0490   26.7330 C   0  0  1  0  0  0  0  0  0  0  0  0
   45.2540   80.4850   27.1980 N   0  0  0  0  0  0  0  0  0  0  0  0
   45.6900   80.5250   28.6430 C   0  0  1  0  0  0  0  0  0  0  0  0
   44.6390   81.0420   29.5710 C   0  0  0  0  0  0  0  0  0  0  0  0
   44.1800   80.4500   30.7370 C   0  0  0  0  0  0  0  0  0  0  0  0
   43.2200   81.2660   31.2940 N   0  0  0  0  0  0  0  0  0  0  0  0
   43.0410   82.3730   30.5050 C   0  0  0  0  0  0  0  0  0  0  0  0
   42.2260   83.4860   30.6190 C   0  0  0  0  0  0  0  0  0  0  0  0
   41.3200   83.6810   31.6430 N   0  0  0  0  0  0  0  0  0  0  0  0
   42.3390   84.4310   29.6720 N   0  0  0  0  0  0  0  0  0  0  0  0
   43.2220   84.2490   28.6750 C   0  0  0  0  0  0  0  0  0  0  0  0
   44.0450   83.1980   28.4760 N   0  0  0  0  0  0  0  0  0  0  0  0
   43.9180   82.2610   29.4430 C   0  0  0  0  0  0  0  0  0  0  0  0
   46.1110   79.0690   28.9540 C   0  0  2  0  0  0  0  0  0  0  0  0
   47.4770   78.8350   28.5620 O   0  0  0  0  0  0  0  0  0  0  0  0
   45.2150   78.2410   28.0330 C   0  0  2  0  0  0  0  0  0  0  0  0
   45.7200   76.9260   27.8580 O   0  0  0  0  0  0  0  0  0  0  0  0
   46.7013   78.6928   24.9870 H   0  0  0  0  0  0  0  0  0  0  0  0
   46.8018   77.7397   23.4677 H   0  0  0  0  0  0  0  0  0  0  0  0
   46.0017   79.3480   23.4677 H   0  0  0  0  0  0  0  0  0  0  0  0
   43.6858   79.6866   25.3821 H   0  0  0  0  0  0  0  0  0  0  0  0
   43.2772   78.2435   26.3826 H   0  0  0  0  0  0  0  0  0  0  0  0
   46.1256   78.7981   26.1191 H   0  0  0  0  0  0  0  0  0  0  0  0
   45.8530   81.0540   26.5870 H   0  0  0  0  0  0  0  0  0  0  0  0
   44.2990   80.8780   27.1000 H   0  0  0  0  0  0  0  0  0  0  0  0
   46.5144   81.2367   28.7976 H   0  0  0  0  0  0  0  0  0  0  0  0
   44.5244   79.4898   31.1486 H   0  0  0  0  0  0  0  0  0  0  0  0
   42.7360   81.1010   32.1690 H   0  0  0  0  0  0  0  0  0  0  0  0
   40.9800   82.7890   31.9910 H   0  0  0  0  0  0  0  0  0  0  0  0
   41.5830   84.3380   32.3620 H   0  0  0  0  0  0  0  0  0  0  0  0
   43.2811   85.0558   27.9297 H   0  0  0  0  0  0  0  0  0  0  0  0
   46.0212   78.8332   30.0247 H   0  0  0  0  0  0  0  0  0  0  0  0
   47.7910   79.6170   28.0670 H   0  0  0  0  0  0  0  0  0  0  0  0
   44.1978   78.0900   28.4235 H   0  0  0  0  0  0  0  0  0  0  0  0
   45.1460   76.3140   28.3650 H   0  0  0  0  0  0  0  0  0  0  0  0
  1  2  1  0
  2  3  1  0
  3  4  1  0
  4  5  1  0
  5  6  1  0
  6  7  1  0
  7  8  2  0
  8  9  1  0
  9 10  1  0
 10 11  2  0
 11 12  1  0
 11 13  1  0
 13 14  2  0
 14 15  1  0
 15 16  2  0
  6 17  1  0
 17 18  1  0
 17 19  1  0
 19 20  1  0
 19  4  1  0
 16  7  1  0
 16 10  1  0
  1 21  1  0
  1 22  1  0
  1 23  1  0
  3 24  1  0
  3 25  1  0
  4 26  1  6
  5 27  1  0
  5 28  1  0
  6 29  1  6
  8 30  1  0
  9 31  1  0
 12 32  1  0
 12 33  1  0
 14 34  1  0
 17 35  1  1
 18 36  1  0
 19 37  1  1
 20 38  1  0
M  CHG  1   5   1
M  END
>  <meeko>  (4) 
{"is_sidechain": [false], "free_energy": -6.208, "intermolecular_energy": -7.774, "internal_energy": -0.643}

$$$$
1y6r_ligand
     RDKit          3D

 38 40  0  0  0  0  0  0  0  0999 V2000
   40.6280   88.3780   32.6680 C   0  0  0  0  0  0  0  0  0  0  0  0
   39.3710   87.4790   31.7190 S   0  0  0  0  0  0  0  0  0  0  0  0
   40.0510   85.7910   31.8910 C   0  0  0  0  0  0  0  0  0  0  0  0
   40.6520   85.3200   30.5620 C   0  0  1  0  0  0  0  0  0  0  0  0
   42.0160   84.7010   30.7400 N   0  0  0  0  0  0  0  0  0  0  0  0
   42.1380   83.5190   29.8070 C   0  0  1  0  0  0  0  0  0  0  0  0
   42.3080   82.2130   30.5140 C   0  0  0  0  0  0  0  0  0  0  0  0
   42.0300   81.9320   31.8420 C   0  0  0  0  0  0  0  0  0  0  0  0
   42.3150   80.6050   32.0780 N   0  0  0  0  0  0  0  0  0  0  0  0
   42.7830   80.0220   30.9280 C   0  0  0  0  0  0  0  0  0  0  0  0
   43.1860   78.7330   30.6250 C   0  0  0  0  0  0  0  0  0  0  0  0
   43.2300   77.7010   31.5410 N   0  0  0  0  0  0  0  0  0  0  0  0
   43.5470   78.4840   29.3570 N   0  0  0  0  0  0  0  0  0  0  0  0
   43.5020   79.4840   28.4600 C   0  0  0  0  0  0  0  0  0  0  0  0
   43.1360   80.7660   28.6640 N   0  0  0  0  0  0  0  0  0  0  0  0
   42.7720   80.9950   29.9460 C   0  0  0  0  0  0  0  0  0  0  0  0
   40.8540   83.5810   28.9460 C   0  0  2  0  0  0  0  0  0  0  0  0
   41.0300   84.4670   27.8250 O   0  0  0  0  0  0  0  0  0  0  0  0
   39.8320   84.2170   29.8870 C   0  0  2  0  0  0  0  0  0  0  0  0
   38.7200   84.7390   29.1740 O   0  0  0  0  0  0  0  0  0  0  0  0
   40.4407   88.2441   33.7436 H   0  0  0  0  0  0  0  0  0  0  0  0
   41.6253   87.9871   32.4180 H   0  0  0  0  0  0  0  0  0  0  0  0
   40.5804   89.4482   32.4180 H   0  0  0  0  0  0  0  0  0  0  0  0
   40.8346   85.7927   32.6630 H   0  0  0  0  0  0  0  0  0  0  0  0
   39.2393   85.1065   32.1784 H   0  0  0  0  0  0  0  0  0  0  0  0
   40.6780   86.2374   29.9556 H   0  0  0  0  0  0  0  0  0  0  0  0
   42.7490   85.4030   30.5870 H   0  0  0  0  0  0  0  0  0  0  0  0
   42.1240   84.3920   31.7250 H   0  0  0  0  0  0  0  0  0  0  0  0
   43.0505   83.5777   29.1955 H   0  0  0  0  0  0  0  0  0  0  0  0
   41.6462   82.6483   32.5834 H   0  0  0  0  0  0  0  0  0  0  0  0
   42.1750   80.1150   32.9540 H   0  0  0  0  0  0  0  0  0  0  0  0
   44.1180   77.2090   31.4810 H   0  0  0  0  0  0  0  0  0  0  0  0
   42.9340   77.9150   32.4820 H   0  0  0  0  0  0  0  0  0  0  0  0
   43.8003   79.2250   27.4334 H   0  0  0  0  0  0  0  0  0  0  0  0
   40.5717   82.5929   28.5537 H   0  0  0  0  0  0  0  0  0  0  0  0
   40.8060   85.3740   28.1140 H   0  0  0  0  0  0  0  0  0  0  0  0
   39.3873   83.5085   30.6013 H   0  0  0  0  0  0  0  0  0  0  0  0
   37.9240   84.2410   29.4540 H   0  0  0  0  0  0  0  0  0  0  0  0
  1  2  1  0
  2  3  1  0
  3  4  1  0
  4  5  1  0
  5  6  1  0
  6  7  1  0
  7  8  2  0
  8  9  1  0
  9 10  1  0
 10 11  2  0
 11 12  1  0
 11 13  1  0
 13 14  2  0
 14 15  1  0
 15 16  2  0
  6 17  1  0
 17 18  1  0
 17 19  1  0
 19 20  1  0
 19  4  1  0
 16  7  1  0
 16 10  1  0
  1 21  1  0
  1 22  1  0
  1 23  1  0
  3 24  1  0
  3 25  1  0
  4 26  1  6
  5 27  1  0
  5 28  1  0
  6 29  1  6
  8 30  1  0
  9 31  1  0
 12 32  1  0
 12 33  1  0
 14 34  1  0
 17 35  1  6
 18 36  1  0
 19 37  1  1
 20 38  1  0
M  CHG  1   5   1
M  END
>  <meeko>  (5) 
{"is_sidechain": [false], "free_energy": -6.145, "intermolecular_energy": -7.914, "internal_energy": -0.424}

$$$$
1y6r_ligand
     RDKit          3D

 38 40  0  0  0  0  0  0  0  0999 V2000
   46.9450   78.9760   26.1730 C   0  0  0  0  0  0  0  0  0  0  0  0
   46.0990   80.4190   25.4730 S   0  0  0  0  0  0  0  0  0  0  0  0
   45.3910   81.0990   27.0160 C   0  0  0  0  0  0  0  0  0  0  0  0
   45.1460   79.9760   28.0310 C   0  0  1  0  0  0  0  0  0  0  0  0
   45.3030   80.4500   29.4550 N   0  0  0  0  0  0  0  0  0  0  0  0
   44.2470   79.7850   30.3060 C   0  0  1  0  0  0  0  0  0  0  0  0
   43.2760   80.7440   30.9130 C   0  0  0  0  0  0  0  0  0  0  0  0
   42.4440   80.5240   32.0000 C   0  0  0  0  0  0  0  0  0  0  0  0
   41.7220   81.6730   32.2380 N   0  0  0  0  0  0  0  0  0  0  0  0
   42.0640   82.6320   31.3190 C   0  0  0  0  0  0  0  0  0  0  0  0
   41.6550   83.9400   31.1290 C   0  0  0  0  0  0  0  0  0  0  0  0
   40.6940   84.5690   31.8960 N   0  0  0  0  0  0  0  0  0  0  0  0
   42.2430   84.6320   30.1410 N   0  0  0  0  0  0  0  0  0  0  0  0
   43.1830   84.0260   29.3940 C   0  0  0  0  0  0  0  0  0  0  0  0
   43.6350   82.7590   29.4960 N   0  0  0  0  0  0  0  0  0  0  0  0
   43.0330   82.0820   30.5000 C   0  0  0  0  0  0  0  0  0  0  0  0
   43.5800   78.7640   29.3540 C   0  0  2  0  0  0  0  0  0  0  0  0
   44.3180   77.5280   29.3260 O   0  0  0  0  0  0  0  0  0  0  0  0
   43.7200   79.4210   27.9820 C   0  0  2  0  0  0  0  0  0  0  0  0
   43.5500   78.4800   26.9320 O   0  0  0  0  0  0  0  0  0  0  0  0
   46.9136   79.0296   27.2712 H   0  0  0  0  0  0  0  0  0  0  0  0
   46.4425   78.0573   25.8362 H   0  0  0  0  0  0  0  0  0  0  0  0
   47.9921   78.9658   25.8362 H   0  0  0  0  0  0  0  0  0  0  0  0
   46.0923   81.8295   27.4457 H   0  0  0  0  0  0  0  0  0  0  0  0
   44.4326   81.5867   26.7846 H   0  0  0  0  0  0  0  0  0  0  0  0
   45.8894   79.2144   27.7529 H   0  0  0  0  0  0  0  0  0  0  0  0
   46.2560   80.2640   29.7890 H   0  0  0  0  0  0  0  0  0  0  0  0
   45.1900   81.4810   29.4850 H   0  0  0  0  0  0  0  0  0  0  0  0
   44.6850   79.3008   31.1913 H   0  0  0  0  0  0  0  0  0  0  0  0
   42.3724   79.5893   32.5756 H   0  0  0  0  0  0  0  0  0  0  0  0
   41.0600   81.8120   32.9930 H   0  0  0  0  0  0  0  0  0  0  0  0
   39.9810   83.9070   32.1870 H   0  0  0  0  0  0  0  0  0  0  0  0
   41.0250   85.1770   32.6310 H   0  0  0  0  0  0  0  0  0  0  0  0
   43.6393   84.6387   28.6026 H   0  0  0  0  0  0  0  0  0  0  0  0
   42.5476   78.5331   29.6554 H   0  0  0  0  0  0  0  0  0  0  0  0
   45.2670   77.7410   29.2260 H   0  0  0  0  0  0  0  0  0  0  0  0
   42.9606   80.1910   27.7808 H   0  0  0  0  0  0  0  0  0  0  0  0
   43.1800   77.6600   27.3210 H   0  0  0  0  0  0  0  0  0  0  0  0
  1  2  1  0
  2  3  1  0
  3  4  1  0
  4  5  1  0
  5  6  1  0
  6  7  1  0
  7  8  2  0
  8  9  1  0
  9 10  1  0
 10 11  2  0
 11 12  1  0
 11 13  1  0
 13 14  2  0
 14 15  1  0
 15 16  2  0
  6 17  1  0
 17 18  1  0
 17 19  1  0
 19 20  1  0
 19  4  1  0
 16  7  1  0
 16 10  1  0
  1 21  1  0
  1 22  1  0
  1 23  1  0
  3 24  1  0
  3 25  1  0
  4 26  1  6
  5 27  1  0
  5 28  1  0
  6 29  1  1
  8 30  1  0
  9 31  1  0
 12 32  1  0
 12 33  1  0
 14 34  1  0
 17 35  1  1
 18 36  1  0
 19 37  1  6
 20 38  1  0
M  CHG  1   5   1
M  END
>  <meeko>  (6) 
{"is_sidechain": [false], "free_energy": -6.051, "intermolecular_energy": -7.594, "internal_energy": -0.625}

$$$$
1y6r_ligand
     RDKit          3D

 38 40  0  0  0  0  0  0  0  0999 V2000
   36.8210   87.7950   32.0520 C   0  0  0  0  0  0  0  0  0  0  0  0
   37.6670   88.8740   30.8650 S   0  0  0  0  0  0  0  0  0  0  0  0
   39.0350   87.7540   30.4010 C   0  0  0  0  0  0  0  0  0  0  0  0
   39.1170   86.5770   31.3800 C   0  0  1  0  0  0  0  0  0  0  0  0
   39.2390   85.2510   30.6710 N   0  0  0  0  0  0  0  0  0  0  0  0
   40.1940   84.3730   31.4440 C   0  0  1  0  0  0  0  0  0  0  0  0
   41.4280   84.0140   30.6830 C   0  0  0  0  0  0  0  0  0  0  0  0
   41.9730   84.6830   29.5980 C   0  0  0  0  0  0  0  0  0  0  0  0
   43.1190   84.0270   29.2090 N   0  0  0  0  0  0  0  0  0  0  0  0
   43.3240   82.9370   30.0160 C   0  0  0  0  0  0  0  0  0  0  0  0
   44.3170   81.9740   30.0620 C   0  0  0  0  0  0  0  0  0  0  0  0
   45.3760   81.9130   29.1780 N   0  0  0  0  0  0  0  0  0  0  0  0
   44.2380   81.0540   31.0360 N   0  0  0  0  0  0  0  0  0  0  0  0
   43.2120   81.1110   31.9020 C   0  0  0  0  0  0  0  0  0  0  0  0
   42.1970   82.0000   31.9290 N   0  0  0  0  0  0  0  0  0  0  0  0
   42.2980   82.9200   30.9430 C   0  0  0  0  0  0  0  0  0  0  0  0
   40.4870   85.1760   32.7350 C   0  0  2  0  0  0  0  0  0  0  0  0
   39.4770   84.9340   33.7310 O   0  0  0  0  0  0  0  0  0  0  0  0
   40.3540   86.6290   32.2800 C   0  0  2  0  0  0  0  0  0  0  0  0
   40.1760   87.5060   33.3830 O   0  0  0  0  0  0  0  0  0  0  0  0
   37.0688   88.1110   33.0761 H   0  0  0  0  0  0  0  0  0  0  0  0
   35.7337   87.8639   31.8999 H   0  0  0  0  0  0  0  0  0  0  0  0
   37.1473   86.7556   31.8999 H   0  0  0  0  0  0  0  0  0  0  0  0
   38.8600   87.3693   29.3854 H   0  0  0  0  0  0  0  0  0  0  0  0
   39.9815   88.3134   30.4352 H   0  0  0  0  0  0  0  0  0  0  0  0
   38.1862   86.6631   31.9599 H   0  0  0  0  0  0  0  0  0  0  0  0
   38.3130   84.8230   30.5540 H   0  0  0  0  0  0  0  0  0  0  0  0
   39.5980   85.4110   29.7100 H   0  0  0  0  0  0  0  0  0  0  0  0
   39.7549   83.3876   31.6590 H   0  0  0  0  0  0  0  0  0  0  0  0
   41.5590   85.5867   29.1268 H   0  0  0  0  0  0  0  0  0  0  0  0
   43.7430   84.3120   28.4620 H   0  0  0  0  0  0  0  0  0  0  0  0
   46.1080   81.3080   29.5410 H   0  0  0  0  0  0  0  0  0  0  0  0
   45.1490   81.7570   28.2070 H   0  0  0  0  0  0  0  0  0  0  0  0
   43.1977   80.3383   32.6848 H   0  0  0  0  0  0  0  0  0  0  0  0
   41.4614   84.9131   33.1727 H   0  0  0  0  0  0  0  0  0  0  0  0
   39.7750   85.3330   34.5720 H   0  0  0  0  0  0  0  0  0  0  0  0
   41.2467   87.0163   31.7671 H   0  0  0  0  0  0  0  0  0  0  0  0
   39.6040   88.2450   33.0890 H   0  0  0  0  0  0  0  0  0  0  0  0
  1  2  1  0
  2  3  1  0
  3  4  1  0
  4  5  1  0
  5  6  1  0
  6  7  1  0
  7  8  2  0
  8  9  1  0
  9 10  1  0
 10 11  2  0
 11 12  1  0
 11 13  1  0
 13 14  2  0
 14 15  1  0
 15 16  2  0
  6 17  1  0
 17 18  1  0
 17 19  1  0
 19 20  1  0
 19  4  1  0
 16  7  1  0
 16 10  1  0
  1 21  1  0
  1 22  1  0
  1 23  1  0
  3 24  1  0
  3 25  1  0
  4 26  1  1
  5 27  1  0
  5 28  1  0
  6 29  1  1
  8 30  1  0
  9 31  1  0
 12 32  1  0
 12 33  1  0
 14 34  1  0
 17 35  1  1
 18 36  1  0
 19 37  1  6
 20 38  1  0
M  CHG  1   5   1
M  END
>  <meeko>  (7) 
{"is_sidechain": [false], "free_energy": -5.83, "intermolecular_energy": -7.422, "internal_energy": -0.519}

$$$$
1y6r_ligand
     RDKit          3D

 38 40  0  0  0  0  0  0  0  0999 V2000
   45.8060   80.0310   23.8630 C   0  0  0  0  0  0  0  0  0  0  0  0
   46.1930   79.3980   25.5180 S   0  0  0  0  0  0  0  0  0  0  0  0
   44.8910   80.2710   26.4580 C   0  0  0  0  0  0  0  0  0  0  0  0
   45.4590   80.8240   27.7700 C   0  0  1  0  0  0  0  0  0  0  0  0
   45.1110   82.2780   27.9760 N   0  0  0  0  0  0  0  0  0  0  0  0
   44.8070   82.5010   29.4380 C   0  0  1  0  0  0  0  0  0  0  0  0
   43.4000   82.9300   29.6990 C   0  0  0  0  0  0  0  0  0  0  0  0
   42.5580   82.4870   30.7070 C   0  0  0  0  0  0  0  0  0  0  0  0
   41.3550   83.1480   30.5950 N   0  0  0  0  0  0  0  0  0  0  0  0
   41.3970   84.0070   29.5260 C   0  0  0  0  0  0  0  0  0  0  0  0
   40.4800   84.8980   28.9990 C   0  0  0  0  0  0  0  0  0  0  0  0
   39.2010   85.0720   29.4900 N   0  0  0  0  0  0  0  0  0  0  0  0
   40.8720   85.6390   27.9520 N   0  0  0  0  0  0  0  0  0  0  0  0
   42.1170   85.4770   27.4720 C   0  0  0  0  0  0  0  0  0  0  0  0
   43.0720   84.6300   27.9090 N   0  0  0  0  0  0  0  0  0  0  0  0
   42.6580   83.8970   28.9680 C   0  0  0  0  0  0  0  0  0  0  0  0
   45.1680   81.1550   30.1110 C   0  0  2  0  0  0  0  0  0  0  0  0
   46.5710   81.0970   30.4250 O   0  0  0  0  0  0  0  0  0  0  0  0
   44.8930   80.1300   29.0120 C   0  0  2  0  0  0  0  0  0  0  0  0
   45.5420   78.8950   29.2760 O   0  0  0  0  0  0  0  0  0  0  0  0
   45.2341   80.9664   23.9527 H   0  0  0  0  0  0  0  0  0  0  0  0
   46.7409   80.2238   23.3163 H   0  0  0  0  0  0  0  0  0  0  0  0
   45.2083   79.2868   23.3163 H   0  0  0  0  0  0  0  0  0  0  0  0
   44.5025   81.1028   25.8521 H   0  0  0  0  0  0  0  0  0  0  0  0
   44.0823   79.5624   26.6899 H   0  0  0  0  0  0  0  0  0  0  0  0
   46.5415   80.6574   27.6677 H   0  0  0  0  0  0  0  0  0  0  0  0
   45.8710   82.8780   27.6320 H   0  0  0  0  0  0  0  0  0  0  0  0
   44.2820   82.5140   27.3980 H   0  0  0  0  0  0  0  0  0  0  0  0
   45.3889   83.3389   29.8496 H   0  0  0  0  0  0  0  0  0  0  0  0
   42.8086   81.7339   31.4686 H   0  0  0  0  0  0  0  0  0  0  0  0
   40.5630   83.0490   31.2200 H   0  0  0  0  0  0  0  0  0  0  0  0
   38.9880   86.0610   29.5880 H   0  0  0  0  0  0  0  0  0  0  0  0
   38.4690   84.5290   29.0550 H   0  0  0  0  0  0  0  0  0  0  0  0
   42.3910   86.1134   26.6176 H   0  0  0  0  0  0  0  0  0  0  0  0
   44.6078   80.9969   31.0444 H   0  0  0  0  0  0  0  0  0  0  0  0
   46.7250   80.3190   30.9970 H   0  0  0  0  0  0  0  0  0  0  0  0
   43.8309   79.8616   28.9127 H   0  0  0  0  0  0  0  0  0  0  0  0
   46.3270   78.8370   28.6910 H   0  0  0  0  0  0  0  0  0  0  0  0
  1  2  1  0
  2  3  1  0
  3  4  1  0
  4  5  1  0
  5  6  1  0
  6  7  1  0
  7  8  2  0
  8  9  1  0
  9 10  1  0
 10 11  2  0
 11 12  1  0
 11 13  1  0
 13 14  2  0
 14 15  1  0
 15 16  2  0
  6 17  1  0
 17 18  1  0
 17 19  1  0
 19 20  1  0
 19  4  1  0
 16  7  1  0
 16 10  1  0
  1 21  1  0
  1 22  1  0
  1 23  1  0
  3 24  1  0
  3 25  1  0
  4 26  1  6
  5 27  1  0
  5 28  1  0
  6 29  1  1
  8 30  1  0
  9 31  1  0
 12 32  1  0
 12 33  1  0
 14 34  1  0
 17 35  1  1
 18 36  1  0
 19 37  1  6
 20 38  1  0
M  CHG  1   5   1
M  END
>  <meeko>  (8) 
{"is_sidechain": [false], "free_energy": -5.74, "intermolecular_energy": -7.205, "internal_energy": -0.621}

$$$$
1y6r_ligand
     RDKit          3D

 38 40  0  0  0  0  0  0  0  0999 V2000
   42.5940   72.5450   20.1890 C   0  0  0  0  0  0  0  0  0  0  0  0
   42.2570   71.5030   21.6340 S   0  0  0  0  0  0  0  0  0  0  0  0
   42.8730   72.6290   22.9360 C   0  0  0  0  0  0  0  0  0  0  0  0
   43.7400   73.7330   22.3200 C   0  0  1  0  0  0  0  0  0  0  0  0
   43.4140   75.0950   22.8820 N   0  0  0  0  0  0  0  0  0  0  0  0
   44.6990   75.8710   23.0470 C   0  0  1  0  0  0  0  0  0  0  0  0
   45.0110   76.2170   24.4670 C   0  0  0  0  0  0  0  0  0  0  0  0
   44.9600   75.3780   25.5690 C   0  0  0  0  0  0  0  0  0  0  0  0
   45.3380   76.0940   26.6830 N   0  0  0  0  0  0  0  0  0  0  0  0
   45.6260   77.3860   26.3260 C   0  0  0  0  0  0  0  0  0  0  0  0
   46.0610   78.4860   27.0450 C   0  0  0  0  0  0  0  0  0  0  0  0
   46.2680   78.4850   28.4100 N   0  0  0  0  0  0  0  0  0  0  0  0
   46.3000   79.6140   26.3590 N   0  0  0  0  0  0  0  0  0  0  0  0
   46.1040   79.6200   25.0290 C   0  0  0  0  0  0  0  0  0  0  0  0
   45.6740   78.6070   24.2490 N   0  0  0  0  0  0  0  0  0  0  0  0
   45.4440   77.4790   24.9580 C   0  0  0  0  0  0  0  0  0  0  0  0
   45.7730   74.9720   22.3900 C   0  0  2  0  0  0  0  0  0  0  0  0
   45.8340   75.1990   20.9700 O   0  0  0  0  0  0  0  0  0  0  0  0
   45.2320   73.5610   22.6140 C   0  0  2  0  0  0  0  0  0  0  0  0
   45.8440   72.6230   21.7400 O   0  0  0  0  0  0  0  0  0  0  0  0
   42.9165   73.5421   20.5232 H   0  0  0  0  0  0  0  0  0  0  0  0
   43.3895   72.0861   19.5836 H   0  0  0  0  0  0  0  0  0  0  0  0
   41.6804   72.6389   19.5836 H   0  0  0  0  0  0  0  0  0  0  0  0
   42.0174   73.0866   23.4543 H   0  0  0  0  0  0  0  0  0  0  0  0
   43.4815   72.0525   23.6483 H   0  0  0  0  0  0  0  0  0  0  0  0
   43.5248   73.6551   21.2441 H   0  0  0  0  0  0  0  0  0  0  0  0
   42.7360   75.5760   22.2790 H   0  0  0  0  0  0  0  0  0  0  0  0
   42.9440   74.9810   23.8000 H   0  0  0  0  0  0  0  0  0  0  0  0
   44.6393   76.8604   22.5700 H   0  0  0  0  0  0  0  0  0  0  0  0
   44.6667   74.3179   25.5560 H   0  0  0  0  0  0  0  0  0  0  0  0
   45.4260   75.7250   27.6230 H   0  0  0  0  0  0  0  0  0  0  0  0
   46.6020   79.3930   28.7200 H   0  0  0  0  0  0  0  0  0  0  0  0
   45.5320   78.0930   28.9800 H   0  0  0  0  0  0  0  0  0  0  0  0
   46.3209   80.5673   24.5136 H   0  0  0  0  0  0  0  0  0  0  0  0
   46.7754   75.1562   22.8038 H   0  0  0  0  0  0  0  0  0  0  0  0
   45.5730   74.3730   20.5170 H   0  0  0  0  0  0  0  0  0  0  0  0
   45.4324   73.1646   23.6203 H   0  0  0  0  0  0  0  0  0  0  0  0
   45.4080   71.7560   21.8780 H   0  0  0  0  0  0  0  0  0  0  0  0
  1  2  1  0
  2  3  1  0
  3  4  1  0
  4  5  1  0
  5  6  1  0
  6  7  1  0
  7  8  2  0
  8  9  1  0
  9 10  1  0
 10 11  2  0
 11 12  1  0
 11 13  1  0
 13 14  2  0
 14 15  1  0
 15 16  2  0
  6 17  1  0
 17 18  1  0
 17 19  1  0
 19 20  1  0
 19  4  1  0
 16  7  1  0
 16 10  1  0
  1 21  1  0
  1 22  1  0
  1 23  1  0
  3 24  1  0
  3 25  1  0
  4 26  1  6
  5 27  1  0
  5 28  1  0
  6 29  1  6
  8 30  1  0
  9 31  1  0
 12 32  1  0
 12 33  1  0
 14 34  1  0
 17 35  1  1
 18 36  1  0
 19 37  1  1
 20 38  1  0
M  CHG  1   5   1
M  END
>  <meeko>  (9) 
{"is_sidechain": [false], "free_energy": -5.699, "intermolecular_energy": -7.367, "internal_energy": -0.409}

$$$$
