1yc1_ligand
     RDKit          3D

 42 45  0  0  0  0  0  0  0  0999 V2000
    2.0590   30.1310   -1.1860 C   0  0  0  0  0  0  0  0  0  0  0  0
    1.3020   31.1800   -0.3860 C   0  0  0  0  0  0  0  0  0  0  0  0
    0.1210   31.7270   -1.1460 C   0  0  0  0  0  0  0  0  0  0  0  0
    0.3320   32.2250   -2.4450 C   0  0  0  0  0  0  0  0  0  0  0  0
   -0.7200   32.7510   -3.2160 C   0  0  0  0  0  0  0  0  0  0  0  0
   -0.4110   33.2750   -4.5450 C   0  0  0  0  0  0  0  0  0  0  0  0
   -0.9890   32.7330   -5.6320 N   0  0  0  0  0  0  0  0  0  0  0  0
   -0.4950   33.4620   -6.6480 N   0  0  0  0  0  0  0  0  0  0  0  0
    0.3710   34.4350   -6.2640 C   0  0  0  0  0  0  0  0  0  0  0  0
    1.0160   35.3230   -7.3490 C   0  0  0  0  0  0  0  0  0  0  0  0
    0.1850   36.0690   -7.9520 O   0  0  0  0  0  0  0  0  0  0  0  0
    2.2610   35.2510   -7.5340 O   0  0  0  0  0  0  0  0  0  0  0  0
    0.4770   34.3520   -4.8940 C   0  0  0  0  0  0  0  0  0  0  0  0
    1.3170   35.1690   -4.0330 C   0  0  0  0  0  0  0  0  0  0  0  0
    0.7700   36.2470   -3.3050 C   0  0  0  0  0  0  0  0  0  0  0  0
    1.5590   37.0040   -2.4310 C   0  0  0  0  0  0  0  0  0  0  0  0
    2.8840   36.6550   -2.3030 C   0  0  0  0  0  0  0  0  0  0  0  0
    3.4260   35.6060   -3.0080 C   0  0  0  0  0  0  0  0  0  0  0  0
    2.6740   34.8450   -3.8770 C   0  0  0  0  0  0  0  0  0  0  0  0
    4.7490   35.4290   -2.7390 O   0  0  0  0  0  0  0  0  0  0  0  0
    4.9770   36.5010   -1.8020 C   0  0  0  0  0  0  0  0  0  0  0  0
    3.7960   37.2700   -1.5020 O   0  0  0  0  0  0  0  0  0  0  0  0
   -2.0120   32.7510   -2.6780 C   0  0  0  0  0  0  0  0  0  0  0  0
   -3.1180   33.1930   -3.3520 O   0  0  0  0  0  0  0  0  0  0  0  0
   -2.2400   32.2580   -1.3940 C   0  0  0  0  0  0  0  0  0  0  0  0
   -1.1840   31.7500   -0.6390 C   0  0  0  0  0  0  0  0  0  0  0  0
   -1.5090   31.2780    0.6020 O   0  0  0  0  0  0  0  0  0  0  0  0
    2.5607   29.4358   -0.4968 H   0  0  0  0  0  0  0  0  0  0  0  0
    1.3536   29.5737   -1.8199 H   0  0  0  0  0  0  0  0  0  0  0  0
    2.8102   30.6249   -1.8199 H   0  0  0  0  0  0  0  0  0  0  0  0
    0.9425   30.7231    0.5478 H   0  0  0  0  0  0  0  0  0  0  0  0
    1.9903   32.0136   -0.1824 H   0  0  0  0  0  0  0  0  0  0  0  0
    1.3469   32.2023   -2.8687 H   0  0  0  0  0  0  0  0  0  0  0  0
   -0.7650   33.2680   -7.6080 H   0  0  0  0  0  0  0  0  0  0  0  0
   -0.2944   36.4967   -3.4264 H   0  0  0  0  0  0  0  0  0  0  0  0
    1.1351   37.8477   -1.8667 H   0  0  0  0  0  0  0  0  0  0  0  0
    3.1239   34.0085   -4.4319 H   0  0  0  0  0  0  0  0  0  0  0  0
    5.3566   36.0680   -0.8648 H   0  0  0  0  0  0  0  0  0  0  0  0
    5.6976   37.1883   -2.2694 H   0  0  0  0  0  0  0  0  0  0  0  0
   -3.0180   34.1480   -3.5210 H   0  0  0  0  0  0  0  0  0  0  0  0
   -3.2570   32.2699   -0.9751 H   0  0  0  0  0  0  0  0  0  0  0  0
   -2.3640   31.6450    0.8680 H   0  0  0  0  0  0  0  0  0  0  0  0
  1  2  1  0
  2  3  1  0
  3  4  2  0
  4  5  1  0
  5  6  1  0
  6  7  2  0
  7  8  1  0
  8  9  1  0
  9 10  1  0
 10 11  2  0
 10 12  1  0
  9 13  2  0
 13 14  1  0
 14 15  2  0
 15 16  1  0
 16 17  2  0
 17 18  1  0
 18 19  2  0
 18 20  1  0
 20 21  1  0
 21 22  1  0
  5 23  2  0
 23 24  1  0
 23 25  1  0
 25 26  2  0
 26 27  1  0
 26  3  1  0
 13  6  1  0
 19 14  1  0
 22 17  1  0
  1 28  1  0
  1 29  1  0
  1 30  1  0
  2 31  1  0
  2 32  1  0
  4 33  1  0
  8 34  1  0
 15 35  1  0
 16 36  1  0
 19 37  1  0
 21 38  1  0
 21 39  1  0
 24 40  1  0
 25 41  1  0
 27 42  1  0
M  CHG  1  12  -1
M  END
>  <meeko>  (1) 
{"is_sidechain": [false], "free_energy": -9.803, "intermolecular_energy": -12.668, "internal_energy": -1.562}

$$$$
1yc1_ligand
     RDKit          3D

 42 45  0  0  0  0  0  0  0  0999 V2000
    6.5380   36.7600   -2.9250 C   0  0  0  0  0  0  0  0  0  0  0  0
    5.5970   35.9510   -2.0460 C   0  0  0  0  0  0  0  0  0  0  0  0
    4.1660   36.4090   -2.1790 C   0  0  0  0  0  0  0  0  0  0  0  0
    3.3630   35.8180   -3.1720 C   0  0  0  0  0  0  0  0  0  0  0  0
    2.0200   36.1920   -3.3560 C   0  0  0  0  0  0  0  0  0  0  0  0
    1.2630   35.5510   -4.4290 C   0  0  0  0  0  0  0  0  0  0  0  0
    1.2700   36.0790   -5.6660 N   0  0  0  0  0  0  0  0  0  0  0  0
    0.5000   35.2340   -6.3740 N   0  0  0  0  0  0  0  0  0  0  0  0
   -0.0010   34.1990   -5.6500 C   0  0  0  0  0  0  0  0  0  0  0  0
   -0.9160   33.1760   -6.3550 C   0  0  0  0  0  0  0  0  0  0  0  0
   -0.6860   31.9750   -6.0150 O   0  0  0  0  0  0  0  0  0  0  0  0
   -1.7870   33.5940   -7.1650 O   0  0  0  0  0  0  0  0  0  0  0  0
    0.4550   34.3620   -4.3610 C   0  0  0  0  0  0  0  0  0  0  0  0
    0.1530   33.5170   -3.2170 C   0  0  0  0  0  0  0  0  0  0  0  0
    1.1850   32.8640   -2.5110 C   0  0  0  0  0  0  0  0  0  0  0  0
    0.9100   32.0940   -1.3740 C   0  0  0  0  0  0  0  0  0  0  0  0
   -0.4010   32.0040   -0.9670 C   0  0  0  0  0  0  0  0  0  0  0  0
   -1.4140   32.6380   -1.6480 C   0  0  0  0  0  0  0  0  0  0  0  0
   -1.1730   33.4000   -2.7710 C   0  0  0  0  0  0  0  0  0  0  0  0
   -2.6340   32.4210   -1.0830 O   0  0  0  0  0  0  0  0  0  0  0  0
   -2.2700   31.5610    0.0160 C   0  0  0  0  0  0  0  0  0  0  0  0
   -0.8540   31.3080    0.1110 O   0  0  0  0  0  0  0  0  0  0  0  0
    1.4700   37.1600   -2.5090 C   0  0  0  0  0  0  0  0  0  0  0  0
    0.1640   37.5690   -2.5640 O   0  0  0  0  0  0  0  0  0  0  0  0
    2.2500   37.7530   -1.5170 C   0  0  0  0  0  0  0  0  0  0  0  0
    3.5830   37.3780   -1.3540 C   0  0  0  0  0  0  0  0  0  0  0  0
    4.2620   38.0060   -0.3470 O   0  0  0  0  0  0  0  0  0  0  0  0
    7.2194   37.3459   -2.2906 H   0  0  0  0  0  0  0  0  0  0  0  0
    7.1231   36.0786   -3.5601 H   0  0  0  0  0  0  0  0  0  0  0  0
    5.9521   37.4407   -3.5601 H   0  0  0  0  0  0  0  0  0  0  0  0
    5.6598   34.8925   -2.3386 H   0  0  0  0  0  0  0  0  0  0  0  0
    5.9034   36.0932   -0.9992 H   0  0  0  0  0  0  0  0  0  0  0  0
    3.7971   35.0433   -3.8212 H   0  0  0  0  0  0  0  0  0  0  0  0
    0.3250   35.3910   -7.3620 H   0  0  0  0  0  0  0  0  0  0  0  0
    2.2238   32.9613   -2.8596 H   0  0  0  0  0  0  0  0  0  0  0  0
    1.7133   31.5797   -0.8261 H   0  0  0  0  0  0  0  0  0  0  0  0
   -1.9954   33.9016   -3.3021 H   0  0  0  0  0  0  0  0  0  0  0  0
   -2.6015   32.0346    0.9518 H   0  0  0  0  0  0  0  0  0  0  0  0
   -2.7582   30.5911   -0.1601 H   0  0  0  0  0  0  0  0  0  0  0  0
   -0.4100   36.7850   -2.4930 H   0  0  0  0  0  0  0  0  0  0  0  0
    1.8121   38.5194   -0.8606 H   0  0  0  0  0  0  0  0  0  0  0  0
    4.8700   38.6540   -0.7300 H   0  0  0  0  0  0  0  0  0  0  0  0
  1  2  1  0
  2  3  1  0
  3  4  2  0
  4  5  1  0
  5  6  1  0
  6  7  2  0
  7  8  1  0
  8  9  1  0
  9 10  1  0
 10 11  2  0
 10 12  1  0
  9 13  2  0
 13 14  1  0
 14 15  2  0
 15 16  1  0
 16 17  2  0
 17 18  1  0
 18 19  2  0
 18 20  1  0
 20 21  1  0
 21 22  1  0
  5 23  2  0
 23 24  1  0
 23 25  1  0
 25 26  2  0
 26 27  1  0
 26  3  1  0
 13  6  1  0
 19 14  1  0
 22 17  1  0
  1 28  1  0
  1 29  1  0
  1 30  1  0
  2 31  1  0
  2 32  1  0
  4 33  1  0
  8 34  1  0
 15 35  1  0
 16 36  1  0
 19 37  1  0
 21 38  1  0
 21 39  1  0
 24 40  1  0
 25 41  1  0
 27 42  1  0
M  CHG  1  12  -1
M  END
>  <meeko>  (2) 
{"is_sidechain": [false], "free_energy": -7.905, "intermolecular_energy": -10.513, "internal_energy": -1.265}

$$$$
1yc1_ligand
     RDKit          3D

 42 45  0  0  0  0  0  0  0  0999 V2000
    5.1910   34.5170   -0.4970 C   0  0  0  0  0  0  0  0  0  0  0  0
    5.0380   35.7970    0.3100 C   0  0  0  0  0  0  0  0  0  0  0  0
    4.0270   36.7330   -0.3030 C   0  0  0  0  0  0  0  0  0  0  0  0
    3.6610   36.5380   -1.6470 C   0  0  0  0  0  0  0  0  0  0  0  0
    2.7250   37.3700   -2.2870 C   0  0  0  0  0  0  0  0  0  0  0  0
    2.4220   37.1180   -3.6950 C   0  0  0  0  0  0  0  0  0  0  0  0
    2.7680   38.0210   -4.6290 N   0  0  0  0  0  0  0  0  0  0  0  0
    2.3570   37.4580   -5.7790 N   0  0  0  0  0  0  0  0  0  0  0  0
    1.7630   36.2460   -5.6230 C   0  0  0  0  0  0  0  0  0  0  0  0
    1.2340   35.5140   -6.8740 C   0  0  0  0  0  0  0  0  0  0  0  0
    2.1480   35.1830   -7.6900 O   0  0  0  0  0  0  0  0  0  0  0  0
   -0.0040   35.3020   -6.9780 O   0  0  0  0  0  0  0  0  0  0  0  0
    1.7640   35.9760   -4.2730 C   0  0  0  0  0  0  0  0  0  0  0  0
    1.2030   34.8060   -3.6180 C   0  0  0  0  0  0  0  0  0  0  0  0
    2.0420   33.8520   -3.0050 C   0  0  0  0  0  0  0  0  0  0  0  0
    1.5090   32.7510   -2.3230 C   0  0  0  0  0  0  0  0  0  0  0  0
    0.1390   32.6380   -2.2670 C   0  0  0  0  0  0  0  0  0  0  0  0
   -0.6870   33.5630   -2.8610 C   0  0  0  0  0  0  0  0  0  0  0  0
   -0.1910   34.6550   -3.5410 C   0  0  0  0  0  0  0  0  0  0  0  0
   -2.0050   33.2660   -2.6910 O   0  0  0  0  0  0  0  0  0  0  0  0
   -1.9080   32.0390   -1.9410 C   0  0  0  0  0  0  0  0  0  0  0  0
   -0.5530   31.6430   -1.6490 O   0  0  0  0  0  0  0  0  0  0  0  0
    2.1270   38.3990   -1.5510 C   0  0  0  0  0  0  0  0  0  0  0  0
    1.1710   39.2400   -2.0540 O   0  0  0  0  0  0  0  0  0  0  0  0
    2.4750   38.6040   -0.2170 C   0  0  0  0  0  0  0  0  0  0  0  0
    3.4130   37.7770    0.4000 C   0  0  0  0  0  0  0  0  0  0  0  0
    3.6780   38.0490    1.7130 O   0  0  0  0  0  0  0  0  0  0  0  0
    5.2932   33.6620    0.1875 H   0  0  0  0  0  0  0  0  0  0  0  0
    4.3034   34.3750   -1.1311 H   0  0  0  0  0  0  0  0  0  0  0  0
    6.0870   34.5882   -1.1311 H   0  0  0  0  0  0  0  0  0  0  0  0
    4.7112   35.5383    1.3280 H   0  0  0  0  0  0  0  0  0  0  0  0
    6.0114   36.3091    0.3231 H   0  0  0  0  0  0  0  0  0  0  0  0
    4.1189   35.7130   -2.2124 H   0  0  0  0  0  0  0  0  0  0  0  0
    2.4920   37.9310   -6.6680 H   0  0  0  0  0  0  0  0  0  0  0  0
    3.1335   33.9749   -3.0636 H   0  0  0  0  0  0  0  0  0  0  0  0
    2.1622   32.0035   -1.8492 H   0  0  0  0  0  0  0  0  0  0  0  0
   -0.8668   35.3859   -4.0091 H   0  0  0  0  0  0  0  0  0  0  0  0
   -2.4439   32.1705   -0.9894 H   0  0  0  0  0  0  0  0  0  0  0  0
   -2.3470   31.2461   -2.5643 H   0  0  0  0  0  0  0  0  0  0  0  0
    1.3340   40.1370   -1.7090 H   0  0  0  0  0  0  0  0  0  0  0  0
    2.0077   39.4216    0.3515 H   0  0  0  0  0  0  0  0  0  0  0  0
    3.5550   38.9950    1.8730 H   0  0  0  0  0  0  0  0  0  0  0  0
  1  2  1  0
  2  3  1  0
  3  4  2  0
  4  5  1  0
  5  6  1  0
  6  7  2  0
  7  8  1  0
  8  9  1  0
  9 10  1  0
 10 11  2  0
 10 12  1  0
  9 13  2  0
 13 14  1  0
 14 15  2  0
 15 16  1  0
 16 17  2  0
 17 18  1  0
 18 19  2  0
 18 20  1  0
 20 21  1  0
 21 22  1  0
  5 23  2  0
 23 24  1  0
 23 25  1  0
 25 26  2  0
 26 27  1  0
 26  3  1  0
 13  6  1  0
 19 14  1  0
 22 17  1  0
  1 28  1  0
  1 29  1  0
  1 30  1  0
  2 31  1  0
  2 32  1  0
  4 33  1  0
  8 34  1  0
 15 35  1  0
 16 36  1  0
 19 37  1  0
 21 38  1  0
 21 39  1  0
 24 40  1  0
 25 41  1  0
 27 42  1  0
M  CHG  1  12  -1
M  END
>  <meeko>  (3) 
{"is_sidechain": [false], "free_energy": -7.894, "intermolecular_energy": -10.242, "internal_energy": -1.522}

$$$$
1yc1_ligand
     RDKit          3D

 42 45  0  0  0  0  0  0  0  0999 V2000
    1.8790   30.2590   -1.6430 C   0  0  0  0  0  0  0  0  0  0  0  0
    1.7470   31.6620   -1.0720 C   0  0  0  0  0  0  0  0  0  0  0  0
    1.0160   32.5880   -2.0110 C   0  0  0  0  0  0  0  0  0  0  0  0
    1.7640   33.5360   -2.7350 C   0  0  0  0  0  0  0  0  0  0  0  0
    1.1530   34.4320   -3.6300 C   0  0  0  0  0  0  0  0  0  0  0  0
    1.9970   35.4050   -4.3210 C   0  0  0  0  0  0  0  0  0  0  0  0
    1.8520   35.6010   -5.6430 N   0  0  0  0  0  0  0  0  0  0  0  0
    2.7590   36.5540   -5.9220 N   0  0  0  0  0  0  0  0  0  0  0  0
    3.4770   36.9690   -4.8470 C   0  0  0  0  0  0  0  0  0  0  0  0
    4.5620   38.0470   -5.0520 C   0  0  0  0  0  0  0  0  0  0  0  0
    5.0140   38.0900   -6.2370 O   0  0  0  0  0  0  0  0  0  0  0  0
    4.8900   38.7740   -4.0760 O   0  0  0  0  0  0  0  0  0  0  0  0
    3.0310   36.2390   -3.7680 C   0  0  0  0  0  0  0  0  0  0  0  0
    3.5270   36.3090   -2.4030 C   0  0  0  0  0  0  0  0  0  0  0  0
    2.9470   37.1940   -1.4700 C   0  0  0  0  0  0  0  0  0  0  0  0
    3.3790   37.2280   -0.1390 C   0  0  0  0  0  0  0  0  0  0  0  0
    4.3860   36.3640    0.2270 C   0  0  0  0  0  0  0  0  0  0  0  0
    4.9580   35.4980   -0.6750 C   0  0  0  0  0  0  0  0  0  0  0  0
    4.5530   35.4440   -1.9920 C   0  0  0  0  0  0  0  0  0  0  0  0
    5.9340   34.7330   -0.1130 O   0  0  0  0  0  0  0  0  0  0  0  0
    5.9210   35.2350    1.2380 C   0  0  0  0  0  0  0  0  0  0  0  0
    4.9290   36.2550    1.4700 O   0  0  0  0  0  0  0  0  0  0  0  0
   -0.2320   34.3550   -3.8180 C   0  0  0  0  0  0  0  0  0  0  0  0
   -0.9270   35.1430   -4.6960 O   0  0  0  0  0  0  0  0  0  0  0  0
   -0.9870   33.4200   -3.1120 C   0  0  0  0  0  0  0  0  0  0  0  0
   -0.3680   32.5450   -2.2210 C   0  0  0  0  0  0  0  0  0  0  0  0
   -1.1900   31.6560   -1.5860 O   0  0  0  0  0  0  0  0  0  0  0  0
    1.9473   29.5329   -0.8195 H   0  0  0  0  0  0  0  0  0  0  0  0
    0.9984   30.0304   -2.2613 H   0  0  0  0  0  0  0  0  0  0  0  0
    2.7868   30.1987   -2.2613 H   0  0  0  0  0  0  0  0  0  0  0  0
    1.1929   31.6085   -0.1232 H   0  0  0  0  0  0  0  0  0  0  0  0
    2.7598   32.0632   -0.9195 H   0  0  0  0  0  0  0  0  0  0  0  0
    2.8545   33.5768   -2.5969 H   0  0  0  0  0  0  0  0  0  0  0  0
    2.8720   36.9040   -6.8690 H   0  0  0  0  0  0  0  0  0  0  0  0
    2.1413   37.8691   -1.7941 H   0  0  0  0  0  0  0  0  0  0  0  0
    2.9299   37.9203    0.5883 H   0  0  0  0  0  0  0  0  0  0  0  0
    5.0204   34.7435   -2.6997 H   0  0  0  0  0  0  0  0  0  0  0  0
    5.7199   34.3944    1.9184 H   0  0  0  0  0  0  0  0  0  0  0  0
    6.9032   35.6964    1.4179 H   0  0  0  0  0  0  0  0  0  0  0  0
   -0.8580   34.7510   -5.5860 H   0  0  0  0  0  0  0  0  0  0  0  0
   -2.0761   33.3724   -3.2586 H   0  0  0  0  0  0  0  0  0  0  0  0
   -1.0010   30.7630   -1.9070 H   0  0  0  0  0  0  0  0  0  0  0  0
  1  2  1  0
  2  3  1  0
  3  4  2  0
  4  5  1  0
  5  6  1  0
  6  7  2  0
  7  8  1  0
  8  9  1  0
  9 10  1  0
 10 11  2  0
 10 12  1  0
  9 13  2  0
 13 14  1  0
 14 15  2  0
 15 16  1  0
 16 17  2  0
 17 18  1  0
 18 19  2  0
 18 20  1  0
 20 21  1  0
 21 22  1  0
  5 23  2  0
 23 24  1  0
 23 25  1  0
 25 26  2  0
 26 27  1  0
 26  3  1  0
 13  6  1  0
 19 14  1  0
 22 17  1  0
  1 28  1  0
  1 29  1  0
  1 30  1  0
  2 31  1  0
  2 32  1  0
  4 33  1  0
  8 34  1  0
 15 35  1  0
 16 36  1  0
 19 37  1  0
 21 38  1  0
 21 39  1  0
 24 40  1  0
 25 41  1  0
 27 42  1  0
M  CHG  1  12  -1
M  END
>  <meeko>  (4) 
{"is_sidechain": [false], "free_energy": -7.803, "intermolecular_energy": -10.389, "internal_energy": -1.257}

$$$$
1yc1_ligand
     RDKit          3D

 42 45  0  0  0  0  0  0  0  0999 V2000
   -3.2430   30.2650   -0.4470 C   0  0  0  0  0  0  0  0  0  0  0  0
   -2.5950   31.5850   -0.0570 C   0  0  0  0  0  0  0  0  0  0  0  0
   -1.2800   31.7980   -0.7630 C   0  0  0  0  0  0  0  0  0  0  0  0
   -1.2940   32.3710   -2.0490 C   0  0  0  0  0  0  0  0  0  0  0  0
   -0.1090   32.6010   -2.7690 C   0  0  0  0  0  0  0  0  0  0  0  0
   -0.2120   33.1740   -4.1100 C   0  0  0  0  0  0  0  0  0  0  0  0
   -0.7410   32.4490   -5.1110 N   0  0  0  0  0  0  0  0  0  0  0  0
   -0.6920   33.2830   -6.1640 N   0  0  0  0  0  0  0  0  0  0  0  0
   -0.1530   34.4990   -5.8860 C   0  0  0  0  0  0  0  0  0  0  0  0
   -0.0270   35.5320   -7.0250 C   0  0  0  0  0  0  0  0  0  0  0  0
   -0.7260   36.5750   -6.8400 O   0  0  0  0  0  0  0  0  0  0  0  0
    0.7330   35.2770   -7.9980 O   0  0  0  0  0  0  0  0  0  0  0  0
    0.1930   34.4810   -4.5530 C   0  0  0  0  0  0  0  0  0  0  0  0
    0.8380   35.5490   -3.8070 C   0  0  0  0  0  0  0  0  0  0  0  0
    0.0700   36.5200   -3.1300 C   0  0  0  0  0  0  0  0  0  0  0  0
    0.6790   37.5190   -2.3620 C   0  0  0  0  0  0  0  0  0  0  0  0
    2.0530   37.5150   -2.2860 C   0  0  0  0  0  0  0  0  0  0  0  0
    2.8110   36.5740   -2.9410 C   0  0  0  0  0  0  0  0  0  0  0  0
    2.2370   35.5800   -3.7060 C   0  0  0  0  0  0  0  0  0  0  0  0
    4.1460   36.7480   -2.7380 O   0  0  0  0  0  0  0  0  0  0  0  0
    4.1360   37.9200   -1.8980 C   0  0  0  0  0  0  0  0  0  0  0  0
    2.8140   38.4020   -1.5880 O   0  0  0  0  0  0  0  0  0  0  0  0
    1.1140   32.2730   -2.1730 C   0  0  0  0  0  0  0  0  0  0  0  0
    2.3320   32.4940   -2.7590 O   0  0  0  0  0  0  0  0  0  0  0  0
    1.1470   31.7080   -0.8990 C   0  0  0  0  0  0  0  0  0  0  0  0
   -0.0380   31.4760   -0.2020 C   0  0  0  0  0  0  0  0  0  0  0  0
    0.0980   30.9310    1.0440 O   0  0  0  0  0  0  0  0  0  0  0  0
   -3.5163   29.7082    0.4614 H   0  0  0  0  0  0  0  0  0  0  0  0
   -4.1468   30.4620   -1.0422 H   0  0  0  0  0  0  0  0  0  0  0  0
   -2.5344   29.6704   -1.0422 H   0  0  0  0  0  0  0  0  0  0  0  0
   -3.2769   32.4070   -0.3203 H   0  0  0  0  0  0  0  0  0  0  0  0
   -2.4001   31.5615    1.0253 H   0  0  0  0  0  0  0  0  0  0  0  0
   -2.2578   32.6459   -2.5022 H   0  0  0  0  0  0  0  0  0  0  0  0
   -1.0320   32.9920   -7.0760 H   0  0  0  0  0  0  0  0  0  0  0  0
   -1.0269   36.4913   -3.2072 H   0  0  0  0  0  0  0  0  0  0  0  0
    0.0812   38.2795   -1.8383 H   0  0  0  0  0  0  0  0  0  0  0  0
    2.8583   34.8331   -4.2220 H   0  0  0  0  0  0  0  0  0  0  0  0
    4.6458   37.6749   -0.9546 H   0  0  0  0  0  0  0  0  0  0  0  0
    4.6455   38.7189   -2.4567 H   0  0  0  0  0  0  0  0  0  0  0  0
    2.6520   33.3730   -2.4860 H   0  0  0  0  0  0  0  0  0  0  0  0
    2.1120   31.4441   -0.4417 H   0  0  0  0  0  0  0  0  0  0  0  0
    1.0030   30.6070    1.1530 H   0  0  0  0  0  0  0  0  0  0  0  0
  1  2  1  0
  2  3  1  0
  3  4  2  0
  4  5  1  0
  5  6  1  0
  6  7  2  0
  7  8  1  0
  8  9  1  0
  9 10  1  0
 10 11  2  0
 10 12  1  0
  9 13  2  0
 13 14  1  0
 14 15  2  0
 15 16  1  0
 16 17  2  0
 17 18  1  0
 18 19  2  0
 18 20  1  0
 20 21  1  0
 21 22  1  0
  5 23  2  0
 23 24  1  0
 23 25  1  0
 25 26  2  0
 26 27  1  0
 26  3  1  0
 13  6  1  0
 19 14  1  0
 22 17  1  0
  1 28  1  0
  1 29  1  0
  1 30  1  0
  2 31  1  0
  2 32  1  0
  4 33  1  0
  8 34  1  0
 15 35  1  0
 16 36  1  0
 19 37  1  0
 21 38  1  0
 21 39  1  0
 24 40  1  0
 25 41  1  0
 27 42  1  0
M  CHG  1  12  -1
M  END
>  <meeko>  (5) 
{"is_sidechain": [false], "free_energy": -7.752, "intermolecular_energy": -10.295, "internal_energy": -1.284}

$$$$
1yc1_ligand
     RDKit          3D

 42 45  0  0  0  0  0  0  0  0999 V2000
   -0.2440   36.0970   -6.9530 C   0  0  0  0  0  0  0  0  0  0  0  0
   -0.4560   36.8250   -5.6350 C   0  0  0  0  0  0  0  0  0  0  0  0
    0.4420   36.2950   -4.5460 C   0  0  0  0  0  0  0  0  0  0  0  0
    1.7190   36.8680   -4.3930 C   0  0  0  0  0  0  0  0  0  0  0  0
    2.6120   36.4270   -3.4000 C   0  0  0  0  0  0  0  0  0  0  0  0
    3.9310   37.0550   -3.3260 C   0  0  0  0  0  0  0  0  0  0  0  0
    4.8970   36.6910   -4.1870 N   0  0  0  0  0  0  0  0  0  0  0  0
    5.9370   37.4700   -3.8410 N   0  0  0  0  0  0  0  0  0  0  0  0
    5.6830   38.3060   -2.8010 C   0  0  0  0  0  0  0  0  0  0  0  0
    6.8110   39.2340   -2.3040 C   0  0  0  0  0  0  0  0  0  0  0  0
    7.9590   38.6940   -2.3320 O   0  0  0  0  0  0  0  0  0  0  0  0
    6.5200   40.4050   -1.9380 O   0  0  0  0  0  0  0  0  0  0  0  0
    4.3840   38.0690   -2.4120 C   0  0  0  0  0  0  0  0  0  0  0  0
    3.6740   38.7020   -1.3120 C   0  0  0  0  0  0  0  0  0  0  0  0
    2.8780   39.8460   -1.5320 C   0  0  0  0  0  0  0  0  0  0  0  0
    2.1460   40.4300   -0.4920 C   0  0  0  0  0  0  0  0  0  0  0  0
    2.2270   39.8440    0.7510 C   0  0  0  0  0  0  0  0  0  0  0  0
    3.0000   38.7300    0.9760 C   0  0  0  0  0  0  0  0  0  0  0  0
    3.7330   38.1350   -0.0290 C   0  0  0  0  0  0  0  0  0  0  0  0
    2.9430   38.3110    2.2700 O   0  0  0  0  0  0  0  0  0  0  0  0
    2.0630   39.3040    2.8330 C   0  0  0  0  0  0  0  0  0  0  0  0
    1.5860   40.2680    1.8740 O   0  0  0  0  0  0  0  0  0  0  0  0
    2.2030   35.4110   -2.5300 C   0  0  0  0  0  0  0  0  0  0  0  0
    2.9670   34.9350   -1.4990 O   0  0  0  0  0  0  0  0  0  0  0  0
    0.9400   34.8350   -2.6650 C   0  0  0  0  0  0  0  0  0  0  0  0
    0.0690   35.2760   -3.6610 C   0  0  0  0  0  0  0  0  0  0  0  0
   -1.1500   34.6600   -3.7050 O   0  0  0  0  0  0  0  0  0  0  0  0
    0.0585   35.0584   -6.7537 H   0  0  0  0  0  0  0  0  0  0  0  0
   -1.1809   36.1019   -7.5294 H   0  0  0  0  0  0  0  0  0  0  0  0
    0.5438   36.6041   -7.5294 H   0  0  0  0  0  0  0  0  0  0  0  0
   -0.2433   37.8942   -5.7817 H   0  0  0  0  0  0  0  0  0  0  0  0
   -1.4987   36.6658   -5.3229 H   0  0  0  0  0  0  0  0  0  0  0  0
    2.0260   37.6812   -5.0672 H   0  0  0  0  0  0  0  0  0  0  0  0
    6.8230   37.4060   -4.3340 H   0  0  0  0  0  0  0  0  0  0  0  0
    2.8320   40.2867   -2.5388 H   0  0  0  0  0  0  0  0  0  0  0  0
    1.5286   41.3244   -0.6616 H   0  0  0  0  0  0  0  0  0  0  0  0
    4.3455   37.2429    0.1686 H   0  0  0  0  0  0  0  0  0  0  0  0
    1.1941   38.7900    3.2698 H   0  0  0  0  0  0  0  0  0  0  0  0
    2.6444   39.8592    3.5838 H   0  0  0  0  0  0  0  0  0  0  0  0
    2.6640   35.3490   -0.6700 H   0  0  0  0  0  0  0  0  0  0  0  0
    0.6296   34.0296   -1.9831 H   0  0  0  0  0  0  0  0  0  0  0  0
   -1.0310   33.7090   -3.5720 H   0  0  0  0  0  0  0  0  0  0  0  0
  1  2  1  0
  2  3  1  0
  3  4  2  0
  4  5  1  0
  5  6  1  0
  6  7  2  0
  7  8  1  0
  8  9  1  0
  9 10  1  0
 10 11  2  0
 10 12  1  0
  9 13  2  0
 13 14  1  0
 14 15  2  0
 15 16  1  0
 16 17  2  0
 17 18  1  0
 18 19  2  0
 18 20  1  0
 20 21  1  0
 21 22  1  0
  5 23  2  0
 23 24  1  0
 23 25  1  0
 25 26  2  0
 26 27  1  0
 26  3  1  0
 13  6  1  0
 19 14  1  0
 22 17  1  0
  1 28  1  0
  1 29  1  0
  1 30  1  0
  2 31  1  0
  2 32  1  0
  4 33  1  0
  8 34  1  0
 15 35  1  0
 16 36  1  0
 19 37  1  0
 21 38  1  0
 21 39  1  0
 24 40  1  0
 25 41  1  0
 27 42  1  0
M  CHG  1  12  -1
M  END
>  <meeko>  (6) 
{"is_sidechain": [false], "free_energy": -7.734, "intermolecular_energy": -10.125, "internal_energy": -1.431}

$$$$
1yc1_ligand
     RDKit          3D

 42 45  0  0  0  0  0  0  0  0999 V2000
    0.1180   32.5190   -2.3350 C   0  0  0  0  0  0  0  0  0  0  0  0
   -0.9900   33.3730   -2.9310 C   0  0  0  0  0  0  0  0  0  0  0  0
   -0.5030   34.1980   -4.0950 C   0  0  0  0  0  0  0  0  0  0  0  0
   -0.0990   35.5250   -3.8540 C   0  0  0  0  0  0  0  0  0  0  0  0
    0.3670   36.3550   -4.8880 C   0  0  0  0  0  0  0  0  0  0  0  0
    0.7400   37.7300   -4.5590 C   0  0  0  0  0  0  0  0  0  0  0  0
    0.0610   38.7580   -5.0960 N   0  0  0  0  0  0  0  0  0  0  0  0
    0.6570   39.8410   -4.5670 N   0  0  0  0  0  0  0  0  0  0  0  0
    1.6840   39.5540   -3.7250 C   0  0  0  0  0  0  0  0  0  0  0  0
    2.4550   40.7210   -3.0730 C   0  0  0  0  0  0  0  0  0  0  0  0
    2.1710   40.8920   -1.8480 O   0  0  0  0  0  0  0  0  0  0  0  0
    3.2770   41.3730   -3.7720 O   0  0  0  0  0  0  0  0  0  0  0  0
    1.7950   38.1820   -3.6910 C   0  0  0  0  0  0  0  0  0  0  0  0
    2.7780   37.4060   -2.9520 C   0  0  0  0  0  0  0  0  0  0  0  0
    3.8500   36.7790   -3.6200 C   0  0  0  0  0  0  0  0  0  0  0  0
    4.8330   36.0760   -2.9130 C   0  0  0  0  0  0  0  0  0  0  0  0
    4.7180   36.0260   -1.5420 C   0  0  0  0  0  0  0  0  0  0  0  0
    3.6760   36.6340   -0.8810 C   0  0  0  0  0  0  0  0  0  0  0  0
    2.6930   37.3300   -1.5530 C   0  0  0  0  0  0  0  0  0  0  0  0
    3.7470   36.4640    0.4680 O   0  0  0  0  0  0  0  0  0  0  0  0
    4.9400   35.6610    0.5730 C   0  0  0  0  0  0  0  0  0  0  0  0
    5.5750   35.3960   -0.6940 O   0  0  0  0  0  0  0  0  0  0  0  0
    0.4530   35.8330   -6.1840 C   0  0  0  0  0  0  0  0  0  0  0  0
    0.9340   36.5310   -7.2580 O   0  0  0  0  0  0  0  0  0  0  0  0
    0.0600   34.5190   -6.4400 C   0  0  0  0  0  0  0  0  0  0  0  0
   -0.4100   33.7120   -5.4050 C   0  0  0  0  0  0  0  0  0  0  0  0
   -0.7580   32.4360   -5.7520 O   0  0  0  0  0  0  0  0  0  0  0  0
    0.0632   32.5612   -1.2372 H   0  0  0  0  0  0  0  0  0  0  0  0
   -0.0021   31.4776   -2.6683 H   0  0  0  0  0  0  0  0  0  0  0  0
    1.0944   32.9004   -2.6683 H   0  0  0  0  0  0  0  0  0  0  0  0
   -1.7995   32.7135   -3.2771 H   0  0  0  0  0  0  0  0  0  0  0  0
   -1.3447   34.0624   -2.1507 H   0  0  0  0  0  0  0  0  0  0  0  0
   -0.1494   35.9226   -2.8296 H   0  0  0  0  0  0  0  0  0  0  0  0
    0.3420   40.7770   -4.8040 H   0  0  0  0  0  0  0  0  0  0  0  0
    3.9151   36.8434   -4.7162 H   0  0  0  0  0  0  0  0  0  0  0  0
    5.6664   35.5819   -3.4338 H   0  0  0  0  0  0  0  0  0  0  0  0
    1.8670   37.8112   -1.0088 H   0  0  0  0  0  0  0  0  0  0  0  0
    5.6582   36.1891    1.2174 H   0  0  0  0  0  0  0  0  0  0  0  0
    4.6370   34.6891    0.9896 H   0  0  0  0  0  0  0  0  0  0  0  0
    0.3070   37.2470   -7.4690 H   0  0  0  0  0  0  0  0  0  0  0  0
    0.1213   34.1182   -7.4626 H   0  0  0  0  0  0  0  0  0  0  0  0
   -1.1490   32.4440   -6.6370 H   0  0  0  0  0  0  0  0  0  0  0  0
  1  2  1  0
  2  3  1  0
  3  4  2  0
  4  5  1  0
  5  6  1  0
  6  7  2  0
  7  8  1  0
  8  9  1  0
  9 10  1  0
 10 11  2  0
 10 12  1  0
  9 13  2  0
 13 14  1  0
 14 15  2  0
 15 16  1  0
 16 17  2  0
 17 18  1  0
 18 19  2  0
 18 20  1  0
 20 21  1  0
 21 22  1  0
  5 23  2  0
 23 24  1  0
 23 25  1  0
 25 26  2  0
 26 27  1  0
 26  3  1  0
 13  6  1  0
 19 14  1  0
 22 17  1  0
  1 28  1  0
  1 29  1  0
  1 30  1  0
  2 31  1  0
  2 32  1  0
  4 33  1  0
  8 34  1  0
 15 35  1  0
 16 36  1  0
 19 37  1  0
 21 38  1  0
 21 39  1  0
 24 40  1  0
 25 41  1  0
 27 42  1  0
M  CHG  1  12  -1
M  END
>  <meeko>  (7) 
{"is_sidechain": [false], "free_energy": -7.678, "intermolecular_energy": -9.948, "internal_energy": -1.537}

$$$$
1yc1_ligand
     RDKit          3D

 42 45  0  0  0  0  0  0  0  0999 V2000
    2.0600   40.2390   -0.2510 C   0  0  0  0  0  0  0  0  0  0  0  0
    2.7150   39.2240    0.6730 C   0  0  0  0  0  0  0  0  0  0  0  0
    3.3990   38.1210   -0.0930 C   0  0  0  0  0  0  0  0  0  0  0  0
    3.6110   38.2950   -1.4740 C   0  0  0  0  0  0  0  0  0  0  0  0
    4.2420   37.3110   -2.2550 C   0  0  0  0  0  0  0  0  0  0  0  0
    4.3980   37.5570   -3.6870 C   0  0  0  0  0  0  0  0  0  0  0  0
    5.4530   38.2580   -4.1380 N   0  0  0  0  0  0  0  0  0  0  0  0
    5.2780   38.2680   -5.4710 N   0  0  0  0  0  0  0  0  0  0  0  0
    4.1640   37.6150   -5.8910 C   0  0  0  0  0  0  0  0  0  0  0  0
    3.8510   37.5780   -7.4010 C   0  0  0  0  0  0  0  0  0  0  0  0
    4.1230   38.6640   -8.0000 O   0  0  0  0  0  0  0  0  0  0  0  0
    3.3840   36.5190   -7.9010 O   0  0  0  0  0  0  0  0  0  0  0  0
    3.5370   37.1370   -4.7620 C   0  0  0  0  0  0  0  0  0  0  0  0
    2.2850   36.4010   -4.7050 C   0  0  0  0  0  0  0  0  0  0  0  0
    1.0970   36.9590   -5.2240 C   0  0  0  0  0  0  0  0  0  0  0  0
   -0.1020   36.2360   -5.2260 C   0  0  0  0  0  0  0  0  0  0  0  0
   -0.0770   34.9600   -4.7100 C   0  0  0  0  0  0  0  0  0  0  0  0
    1.0750   34.4070   -4.2030 C   0  0  0  0  0  0  0  0  0  0  0  0
    2.2690   35.0970   -4.1860 C   0  0  0  0  0  0  0  0  0  0  0  0
    0.8840   33.1400   -3.7420 O   0  0  0  0  0  0  0  0  0  0  0  0
   -0.5250   32.9730   -4.0000 C   0  0  0  0  0  0  0  0  0  0  0  0
   -1.1390   34.1130   -4.6330 O   0  0  0  0  0  0  0  0  0  0  0  0
    4.6920   36.1420   -1.6300 C   0  0  0  0  0  0  0  0  0  0  0  0
    5.3590   35.1380   -2.2780 O   0  0  0  0  0  0  0  0  0  0  0  0
    4.4940   35.9550   -0.2620 C   0  0  0  0  0  0  0  0  0  0  0  0
    3.8570   36.9350    0.4970 C   0  0  0  0  0  0  0  0  0  0  0  0
    3.7210   36.6660    1.8300 O   0  0  0  0  0  0  0  0  0  0  0  0
    1.5604   41.0131    0.3500 H   0  0  0  0  0  0  0  0  0  0  0  0
    2.8276   40.7060   -0.8856 H   0  0  0  0  0  0  0  0  0  0  0  0
    1.3183   39.7320   -0.8856 H   0  0  0  0  0  0  0  0  0  0  0  0
    3.4613   39.7399    1.2950 H   0  0  0  0  0  0  0  0  0  0  0  0
    1.9268   38.7696    1.2913 H   0  0  0  0  0  0  0  0  0  0  0  0
    3.2740   39.2254   -1.9545 H   0  0  0  0  0  0  0  0  0  0  0  0
    5.9410   38.7400   -6.0800 H   0  0  0  0  0  0  0  0  0  0  0  0
    1.1134   37.9796   -5.6340 H   0  0  0  0  0  0  0  0  0  0  0  0
   -1.0299   36.6716   -5.6252 H   0  0  0  0  0  0  0  0  0  0  0  0
    3.1819   34.6389   -3.7777 H   0  0  0  0  0  0  0  0  0  0  0  0
   -0.6565   32.0995   -4.6556 H   0  0  0  0  0  0  0  0  0  0  0  0
   -1.0166   32.8446   -3.0244 H   0  0  0  0  0  0  0  0  0  0  0  0
    6.1270   35.5230   -2.7390 H   0  0  0  0  0  0  0  0  0  0  0  0
    4.8423   35.0296    0.2200 H   0  0  0  0  0  0  0  0  0  0  0  0
    4.5970   36.6460    2.2410 H   0  0  0  0  0  0  0  0  0  0  0  0
  1  2  1  0
  2  3  1  0
  3  4  2  0
  4  5  1  0
  5  6  1  0
  6  7  2  0
  7  8  1  0
  8  9  1  0
  9 10  1  0
 10 11  2  0
 10 12  1  0
  9 13  2  0
 13 14  1  0
 14 15  2  0
 15 16  1  0
 16 17  2  0
 17 18  1  0
 18 19  2  0
 18 20  1  0
 20 21  1  0
 21 22  1  0
  5 23  2  0
 23 24  1  0
 23 25  1  0
 25 26  2  0
 26 27  1  0
 26  3  1  0
 13  6  1  0
 19 14  1  0
 22 17  1  0
  1 28  1  0
  1 29  1  0
  1 30  1  0
  2 31  1  0
  2 32  1  0
  4 33  1  0
  8 34  1  0
 15 35  1  0
 16 36  1  0
 19 37  1  0
 21 38  1  0
 21 39  1  0
 24 40  1  0
 25 41  1  0
 27 42  1  0
M  CHG  1  12  -1
M  END
>  <meeko>  (8) 
{"is_sidechain": [false], "free_energy": -7.613, "intermolecular_energy": -10.103, "internal_energy": -1.297}

$$$$
1yc1_ligand
     RDKit          3D

 42 45  0  0  0  0  0  0  0  0999 V2000
    0.0900   35.8350   -6.4410 C   0  0  0  0  0  0  0  0  0  0  0  0
   -0.1950   34.3440   -6.3490 C   0  0  0  0  0  0  0  0  0  0  0  0
   -0.0100   33.8190   -4.9470 C   0  0  0  0  0  0  0  0  0  0  0  0
    1.1080   34.2540   -4.2110 C   0  0  0  0  0  0  0  0  0  0  0  0
    1.3480   33.8080   -2.8990 C   0  0  0  0  0  0  0  0  0  0  0  0
    2.5480   34.2850   -2.2140 C   0  0  0  0  0  0  0  0  0  0  0  0
    3.1250   33.5280   -1.2640 N   0  0  0  0  0  0  0  0  0  0  0  0
    4.1850   34.2600   -0.8790 N   0  0  0  0  0  0  0  0  0  0  0  0
    4.3080   35.4460   -1.5300 C   0  0  0  0  0  0  0  0  0  0  0  0
    5.4790   36.3790   -1.1550 C   0  0  0  0  0  0  0  0  0  0  0  0
    6.3900   35.8030   -0.4860 O   0  0  0  0  0  0  0  0  0  0  0  0
    5.4460   37.5800   -1.5360 O   0  0  0  0  0  0  0  0  0  0  0  0
    3.2520   35.5240   -2.4100 C   0  0  0  0  0  0  0  0  0  0  0  0
    2.9420   36.6300   -3.3020 C   0  0  0  0  0  0  0  0  0  0  0  0
    3.5480   36.7210   -4.5740 C   0  0  0  0  0  0  0  0  0  0  0  0
    3.2140   37.7500   -5.4620 C   0  0  0  0  0  0  0  0  0  0  0  0
    2.2690   38.6630   -5.0540 C   0  0  0  0  0  0  0  0  0  0  0  0
    1.6730   38.5830   -3.8170 C   0  0  0  0  0  0  0  0  0  0  0  0
    1.9850   37.5820   -2.9210 C   0  0  0  0  0  0  0  0  0  0  0  0
    0.7710   39.5820   -3.6100 O   0  0  0  0  0  0  0  0  0  0  0  0
    0.8880   40.3080   -4.8490 C   0  0  0  0  0  0  0  0  0  0  0  0
    1.8200   39.7220   -5.7800 O   0  0  0  0  0  0  0  0  0  0  0  0
    0.4320   32.9310   -2.3090 C   0  0  0  0  0  0  0  0  0  0  0  0
    0.5360   32.4690   -1.0250 O   0  0  0  0  0  0  0  0  0  0  0  0
   -0.6840   32.4930   -3.0230 C   0  0  0  0  0  0  0  0  0  0  0  0
   -0.9010   32.9350   -4.3270 C   0  0  0  0  0  0  0  0  0  0  0  0
   -2.0280   32.4610   -4.9390 O   0  0  0  0  0  0  0  0  0  0  0  0
    0.1705   36.2561   -5.4280 H   0  0  0  0  0  0  0  0  0  0  0  0
    1.0350   35.9951   -6.9808 H   0  0  0  0  0  0  0  0  0  0  0  0
   -0.7293   36.3323   -6.9808 H   0  0  0  0  0  0  0  0  0  0  0  0
   -1.2333   34.1608   -6.6627 H   0  0  0  0  0  0  0  0  0  0  0  0
    0.5168   33.8208   -7.0045 H   0  0  0  0  0  0  0  0  0  0  0  0
    1.8122   34.9610   -4.6739 H   0  0  0  0  0  0  0  0  0  0  0  0
    4.8150   33.9250   -0.1550 H   0  0  0  0  0  0  0  0  0  0  0  0
    4.2951   35.9707   -4.8721 H   0  0  0  0  0  0  0  0  0  0  0  0
    3.6900   37.8261   -6.4508 H   0  0  0  0  0  0  0  0  0  0  0  0
    1.4975   37.5317   -1.9362 H   0  0  0  0  0  0  0  0  0  0  0  0
   -0.1028   40.3430   -5.3255 H   0  0  0  0  0  0  0  0  0  0  0  0
    1.2702   41.3088   -4.5995 H   0  0  0  0  0  0  0  0  0  0  0  0
    0.6380   33.2320   -0.4270 H   0  0  0  0  0  0  0  0  0  0  0  0
   -1.3951   31.7963   -2.5551 H   0  0  0  0  0  0  0  0  0  0  0  0
   -2.1360   32.9040   -5.7930 H   0  0  0  0  0  0  0  0  0  0  0  0
  1  2  1  0
  2  3  1  0
  3  4  2  0
  4  5  1  0
  5  6  1  0
  6  7  2  0
  7  8  1  0
  8  9  1  0
  9 10  1  0
 10 11  2  0
 10 12  1  0
  9 13  2  0
 13 14  1  0
 14 15  2  0
 15 16  1  0
 16 17  2  0
 17 18  1  0
 18 19  2  0
 18 20  1  0
 20 21  1  0
 21 22  1  0
  5 23  2  0
 23 24  1  0
 23 25  1  0
 25 26  2  0
 26 27  1  0
 26  3  1  0
 13  6  1  0
 19 14  1  0
 22 17  1  0
  1 28  1  0
  1 29  1  0
  1 30  1  0
  2 31  1  0
  2 32  1  0
  4 33  1  0
  8 34  1  0
 15 35  1  0
 16 36  1  0
 19 37  1  0
 21 38  1  0
 21 39  1  0
 24 40  1  0
 25 41  1  0
 27 42  1  0
M  CHG  1  12  -1
M  END
>  <meeko>  (9) 
{"is_sidechain": [false], "free_energy": -7.598, "intermolecular_energy": -9.975, "internal_energy": -1.406}

$$$$
