2brb_ligand
     RDKit          3D

 42 45  0  0  0  0  0  0  0  0999 V2000
   11.5830   -1.6480   13.6210 O   0  0  0  0  0  0  0  0  0  0  0  0
   12.1820   -2.8930   13.9800 C   0  0  0  0  0  0  0  0  0  0  0  0
   13.5690   -3.0240   13.3470 C   0  0  0  0  0  0  0  0  0  0  0  0
   13.4950   -3.2250   11.9080 N   0  0  0  0  0  0  0  0  0  0  0  0
   13.8500   -2.1610   11.0860 C   0  0  0  0  0  0  0  0  0  0  0  0
   12.9460   -1.1840   10.8270 N   0  0  0  0  0  0  0  0  0  0  0  0
   13.3120   -0.1300   10.0720 C   0  0  0  0  0  0  0  0  0  0  0  0
   14.4990    0.1010    9.5090 N   0  0  0  0  0  0  0  0  0  0  0  0
   15.3630   -0.8850    9.7750 C   0  0  0  0  0  0  0  0  0  0  0  0
   16.6440   -0.8710    9.3250 O   0  0  0  0  0  0  0  0  0  0  0  0
   17.2620   -2.0100    9.7640 C   0  0  0  0  0  0  0  0  0  0  0  0
   18.6620   -2.1380    9.3550 C   0  0  0  0  0  0  0  0  0  0  0  0
   19.5110   -3.0990    9.9210 C   0  0  0  0  0  0  0  0  0  0  0  0
   20.8480   -3.2010    9.5230 C   0  0  0  0  0  0  0  0  0  0  0  0
   21.3540   -2.3460    8.5480 C   0  0  0  0  0  0  0  0  0  0  0  0
   20.5250   -1.3910    7.9680 C   0  0  0  0  0  0  0  0  0  0  0  0
   19.1900   -1.2890    8.3680 C   0  0  0  0  0  0  0  0  0  0  0  0
   16.3570   -2.7650   10.4990 C   0  0  0  0  0  0  0  0  0  0  0  0
   16.6620   -4.0340   11.1260 C   0  0  0  0  0  0  0  0  0  0  0  0
   16.9850   -4.0770   12.4890 C   0  0  0  0  0  0  0  0  0  0  0  0
   17.2960   -5.2950   13.0940 C   0  0  0  0  0  0  0  0  0  0  0  0
   17.2880   -6.4700   12.3420 C   0  0  0  0  0  0  0  0  0  0  0  0
   16.9680   -6.4300   10.9850 C   0  0  0  0  0  0  0  0  0  0  0  0
   16.6570   -5.2130   10.3750 C   0  0  0  0  0  0  0  0  0  0  0  0
   15.1310   -2.0280   10.5230 C   0  0  0  0  0  0  0  0  0  0  0  0
   10.6720   -1.8470   13.3440 H   0  0  0  0  0  0  0  0  0  0  0  0
   12.2774   -2.9463   15.0746 H   0  0  0  0  0  0  0  0  0  0  0  0
   11.5456   -3.7121   13.6139 H   0  0  0  0  0  0  0  0  0  0  0  0
   14.1394   -2.1052   13.5483 H   0  0  0  0  0  0  0  0  0  0  0  0
   14.0618   -3.9031   13.7878 H   0  0  0  0  0  0  0  0  0  0  0  0
   12.6940   -3.7520   11.5820 H   0  0  0  0  0  0  0  0  0  0  0  0
   12.5383    0.6325    9.8988 H   0  0  0  0  0  0  0  0  0  0  0  0
   19.1203   -3.7826   10.6891 H   0  0  0  0  0  0  0  0  0  0  0  0
   21.5009   -3.9584    9.9814 H   0  0  0  0  0  0  0  0  0  0  0  0
   22.4062   -2.4252    8.2370 H   0  0  0  0  0  0  0  0  0  0  0  0
   20.9205   -0.7162    7.1945 H   0  0  0  0  0  0  0  0  0  0  0  0
   18.5420   -0.5317    7.9026 H   0  0  0  0  0  0  0  0  0  0  0  0
   16.9933   -3.1504   13.0818 H   0  0  0  0  0  0  0  0  0  0  0  0
   17.5476   -5.3289   14.1643 H   0  0  0  0  0  0  0  0  0  0  0  0
   17.5345   -7.4296   12.8200 H   0  0  0  0  0  0  0  0  0  0  0  0
   16.9606   -7.3582   10.3947 H   0  0  0  0  0  0  0  0  0  0  0  0
   16.4082   -5.1821    9.3040 H   0  0  0  0  0  0  0  0  0  0  0  0
  1  2  1  0
  2  3  1  0
  3  4  1  0
  4  5  1  0
  5  6  2  0
  6  7  1  0
  7  8  2  0
  8  9  1  0
  9 10  1  0
 10 11  1  0
 11 12  1  0
 12 13  2  0
 13 14  1  0
 14 15  2  0
 15 16  1  0
 16 17  2  0
 11 18  2  0
 18 19  1  0
 19 20  2  0
 20 21  1  0
 21 22  2  0
 22 23  1  0
 23 24  2  0
 18 25  1  0
 25  5  1  0
 25  9  2  0
 17 12  1  0
 24 19  1  0
  1 26  1  0
  2 27  1  0
  2 28  1  0
  3 29  1  0
  3 30  1  0
  4 31  1  0
  7 32  1  0
 13 33  1  0
 14 34  1  0
 15 35  1  0
 16 36  1  0
 17 37  1  0
 20 38  1  0
 21 39  1  0
 22 40  1  0
 23 41  1  0
 24 42  1  0
M  END
>  <meeko>  (1) 
{"is_sidechain": [false], "free_energy": -7.859, "intermolecular_energy": -10.386, "internal_energy": -1.404}

$$$$
2brb_ligand
     RDKit          3D

 42 45  0  0  0  0  0  0  0  0999 V2000
   20.1100   -3.9860    9.5790 O   0  0  0  0  0  0  0  0  0  0  0  0
   20.6280   -4.1560   10.8980 C   0  0  0  0  0  0  0  0  0  0  0  0
   19.7140   -5.0670   11.7210 C   0  0  0  0  0  0  0  0  0  0  0  0
   18.5630   -5.5220   10.9550 N   0  0  0  0  0  0  0  0  0  0  0  0
   17.4420   -5.9460   11.6600 C   0  0  0  0  0  0  0  0  0  0  0  0
   17.4210   -7.1890   12.2010 N   0  0  0  0  0  0  0  0  0  0  0  0
   16.3540   -7.5760   12.9250 C   0  0  0  0  0  0  0  0  0  0  0  0
   15.2520   -6.8740   13.2000 N   0  0  0  0  0  0  0  0  0  0  0  0
   15.3010   -5.6580   12.6440 C   0  0  0  0  0  0  0  0  0  0  0  0
   14.3020   -4.7490   12.7920 O   0  0  0  0  0  0  0  0  0  0  0  0
   14.6520   -3.6170   12.1100 C   0  0  0  0  0  0  0  0  0  0  0  0
   13.6660   -2.5370   12.1790 C   0  0  0  0  0  0  0  0  0  0  0  0
   13.6550   -1.4880   11.2500 C   0  0  0  0  0  0  0  0  0  0  0  0
   12.7090   -0.4610   11.3370 C   0  0  0  0  0  0  0  0  0  0  0  0
   11.7560   -0.4720   12.3520 C   0  0  0  0  0  0  0  0  0  0  0  0
   11.7450   -1.5100   13.2780 C   0  0  0  0  0  0  0  0  0  0  0  0
   12.6920   -2.5340   13.1920 C   0  0  0  0  0  0  0  0  0  0  0  0
   15.8890   -3.8100   11.5090 C   0  0  0  0  0  0  0  0  0  0  0  0
   16.5790   -2.8210   10.7080 C   0  0  0  0  0  0  0  0  0  0  0  0
   17.6440   -2.0980   11.2610 C   0  0  0  0  0  0  0  0  0  0  0  0
   18.3010   -1.1310   10.4990 C   0  0  0  0  0  0  0  0  0  0  0  0
   17.8970   -0.8830    9.1870 C   0  0  0  0  0  0  0  0  0  0  0  0
   16.8350   -1.6010    8.6340 C   0  0  0  0  0  0  0  0  0  0  0  0
   16.1750   -2.5680    9.3940 C   0  0  0  0  0  0  0  0  0  0  0  0
   16.3200   -5.1260   11.8700 C   0  0  0  0  0  0  0  0  0  0  0  0
   20.6640   -4.5290    8.9910 H   0  0  0  0  0  0  0  0  0  0  0  0
   21.6294   -4.6072   10.8380 H   0  0  0  0  0  0  0  0  0  0  0  0
   20.6832   -3.1724   11.3874 H   0  0  0  0  0  0  0  0  0  0  0  0
   20.2904   -5.9441   12.0503 H   0  0  0  0  0  0  0  0  0  0  0  0
   19.3428   -4.4887   12.5800 H   0  0  0  0  0  0  0  0  0  0  0  0
   18.7780   -6.0820   10.1390 H   0  0  0  0  0  0  0  0  0  0  0  0
   16.3950   -8.5938   13.3403 H   0  0  0  0  0  0  0  0  0  0  0  0
   14.4004   -1.4718   10.4412 H   0  0  0  0  0  0  0  0  0  0  0  0
   12.7181    0.3571   10.6018 H   0  0  0  0  0  0  0  0  0  0  0  0
   11.0143    0.3374   12.4214 H   0  0  0  0  0  0  0  0  0  0  0  0
   10.9905   -1.5248   14.0783 H   0  0  0  0  0  0  0  0  0  0  0  0
   12.6748   -3.3506   13.9288 H   0  0  0  0  0  0  0  0  0  0  0  0
   17.9623   -2.2926   12.2958 H   0  0  0  0  0  0  0  0  0  0  0  0
   19.1378   -0.5641   10.9331 H   0  0  0  0  0  0  0  0  0  0  0  0
   18.4159   -0.1207    8.5873 H   0  0  0  0  0  0  0  0  0  0  0  0
   16.5183   -1.4046    7.5991 H   0  0  0  0  0  0  0  0  0  0  0  0
   15.3365   -3.1313    8.9586 H   0  0  0  0  0  0  0  0  0  0  0  0
  1  2  1  0
  2  3  1  0
  3  4  1  0
  4  5  1  0
  5  6  2  0
  6  7  1  0
  7  8  2  0
  8  9  1  0
  9 10  1  0
 10 11  1  0
 11 12  1  0
 12 13  2  0
 13 14  1  0
 14 15  2  0
 15 16  1  0
 16 17  2  0
 11 18  2  0
 18 19  1  0
 19 20  2  0
 20 21  1  0
 21 22  2  0
 22 23  1  0
 23 24  2  0
 18 25  1  0
 25  5  1  0
 25  9  2  0
 17 12  1  0
 24 19  1  0
  1 26  1  0
  2 27  1  0
  2 28  1  0
  3 29  1  0
  3 30  1  0
  4 31  1  0
  7 32  1  0
 13 33  1  0
 14 34  1  0
 15 35  1  0
 16 36  1  0
 17 37  1  0
 20 38  1  0
 21 39  1  0
 22 40  1  0
 23 41  1  0
 24 42  1  0
M  END
>  <meeko>  (2) 
{"is_sidechain": [false], "free_energy": -7.755, "intermolecular_energy": -10.493, "internal_energy": -1.159}

$$$$
2brb_ligand
     RDKit          3D

 42 45  0  0  0  0  0  0  0  0999 V2000
   12.4980   -0.3220   12.1680 O   0  0  0  0  0  0  0  0  0  0  0  0
   12.5060   -1.6940   12.5580 C   0  0  0  0  0  0  0  0  0  0  0  0
   13.9030   -2.2950   12.3820 C   0  0  0  0  0  0  0  0  0  0  0  0
   14.1960   -2.5970   10.9890 N   0  0  0  0  0  0  0  0  0  0  0  0
   15.0010   -1.7060   10.2870 C   0  0  0  0  0  0  0  0  0  0  0  0
   14.4590   -0.5730    9.7760 N   0  0  0  0  0  0  0  0  0  0  0  0
   15.2530    0.3110    9.1420 C   0  0  0  0  0  0  0  0  0  0  0  0
   16.5690    0.2250    8.9310 N   0  0  0  0  0  0  0  0  0  0  0  0
   17.0690   -0.9070    9.4390 C   0  0  0  0  0  0  0  0  0  0  0  0
   18.3890   -1.2170    9.3650 O   0  0  0  0  0  0  0  0  0  0  0  0
   18.5770   -2.4280    9.9720 C   0  0  0  0  0  0  0  0  0  0  0  0
   19.9630   -2.8980    9.9720 C   0  0  0  0  0  0  0  0  0  0  0  0
   20.6240   -3.2460    8.7850 C   0  0  0  0  0  0  0  0  0  0  0  0
   21.9470   -3.7000    8.8060 C   0  0  0  0  0  0  0  0  0  0  0  0
   22.6300   -3.8090   10.0140 C   0  0  0  0  0  0  0  0  0  0  0  0
   21.9940   -3.4600   11.2020 C   0  0  0  0  0  0  0  0  0  0  0  0
   20.6720   -3.0080   11.1800 C   0  0  0  0  0  0  0  0  0  0  0  0
   17.3550   -2.9020   10.4310 C   0  0  0  0  0  0  0  0  0  0  0  0
   17.1700   -4.1550   11.1320 C   0  0  0  0  0  0  0  0  0  0  0  0
   16.9610   -5.3350   10.4060 C   0  0  0  0  0  0  0  0  0  0  0  0
   16.7660   -6.5420   11.0770 C   0  0  0  0  0  0  0  0  0  0  0  0
   16.7760   -6.5750   12.4720 C   0  0  0  0  0  0  0  0  0  0  0  0
   16.9830   -5.4010   13.1980 C   0  0  0  0  0  0  0  0  0  0  0  0
   17.1780   -4.1910   12.5300 C   0  0  0  0  0  0  0  0  0  0  0  0
   16.3790   -1.9080   10.1040 C   0  0  0  0  0  0  0  0  0  0  0  0
   13.1810   -0.2230   11.4830 H   0  0  0  0  0  0  0  0  0  0  0  0
   12.2094   -1.7715   13.6144 H   0  0  0  0  0  0  0  0  0  0  0  0
   11.7987   -2.2477   11.9231 H   0  0  0  0  0  0  0  0  0  0  0  0
   14.6481   -1.5761   12.7537 H   0  0  0  0  0  0  0  0  0  0  0  0
   13.9410   -3.2370   12.9487 H   0  0  0  0  0  0  0  0  0  0  0  0
   13.4210   -2.9680   10.4520 H   0  0  0  0  0  0  0  0  0  0  0  0
   14.7581    1.2122    8.7509 H   0  0  0  0  0  0  0  0  0  0  0  0
   20.0949   -3.1608    7.8244 H   0  0  0  0  0  0  0  0  0  0  0  0
   22.4488   -3.9715    7.8656 H   0  0  0  0  0  0  0  0  0  0  0  0
   23.6690   -4.1698   10.0298 H   0  0  0  0  0  0  0  0  0  0  0  0
   22.5321   -3.5400   12.1581 H   0  0  0  0  0  0  0  0  0  0  0  0
   20.1783   -2.7338   12.1239 H   0  0  0  0  0  0  0  0  0  0  0  0
   16.9507   -5.3094    9.3063 H   0  0  0  0  0  0  0  0  0  0  0  0
   16.6042   -7.4684   10.5063 H   0  0  0  0  0  0  0  0  0  0  0  0
   16.6206   -7.5273   13.0001 H   0  0  0  0  0  0  0  0  0  0  0  0
   16.9925   -5.4294   14.2976 H   0  0  0  0  0  0  0  0  0  0  0  0
   17.3379   -3.2658   13.1031 H   0  0  0  0  0  0  0  0  0  0  0  0
  1  2  1  0
  2  3  1  0
  3  4  1  0
  4  5  1  0
  5  6  2  0
  6  7  1  0
  7  8  2  0
  8  9  1  0
  9 10  1  0
 10 11  1  0
 11 12  1  0
 12 13  2  0
 13 14  1  0
 14 15  2  0
 15 16  1  0
 16 17  2  0
 11 18  2  0
 18 19  1  0
 19 20  2  0
 20 21  1  0
 21 22  2  0
 22 23  1  0
 23 24  2  0
 18 25  1  0
 25  5  1  0
 25  9  2  0
 17 12  1  0
 24 19  1  0
  1 26  1  0
  2 27  1  0
  2 28  1  0
  3 29  1  0
  3 30  1  0
  4 31  1  0
  7 32  1  0
 13 33  1  0
 14 34  1  0
 15 35  1  0
 16 36  1  0
 17 37  1  0
 20 38  1  0
 21 39  1  0
 22 40  1  0
 23 41  1  0
 24 42  1  0
M  END
>  <meeko>  (3) 
{"is_sidechain": [false], "free_energy": -7.733, "intermolecular_energy": -9.991, "internal_energy": -1.633}

$$$$
2brb_ligand
     RDKit          3D

 42 45  0  0  0  0  0  0  0  0999 V2000
   23.0360   -3.1470   12.4750 O   0  0  0  0  0  0  0  0  0  0  0  0
   22.5670   -4.1480   11.5730 C   0  0  0  0  0  0  0  0  0  0  0  0
   21.0360   -4.1950   11.5700 C   0  0  0  0  0  0  0  0  0  0  0  0
   20.4980   -4.3510   10.2270 N   0  0  0  0  0  0  0  0  0  0  0  0
   20.1110   -3.2020    9.5460 C   0  0  0  0  0  0  0  0  0  0  0  0
   21.0020   -2.5660    8.7450 N   0  0  0  0  0  0  0  0  0  0  0  0
   20.6070   -1.4830    8.0490 C   0  0  0  0  0  0  0  0  0  0  0  0
   19.4000   -0.9130    8.0350 N   0  0  0  0  0  0  0  0  0  0  0  0
   18.5500   -1.5590    8.8420 C   0  0  0  0  0  0  0  0  0  0  0  0
   17.2540   -1.1780    8.9870 O   0  0  0  0  0  0  0  0  0  0  0  0
   16.6560   -2.0330    9.8720 C   0  0  0  0  0  0  0  0  0  0  0  0
   15.2440   -1.7480   10.1320 C   0  0  0  0  0  0  0  0  0  0  0  0
   14.3910   -2.7050   10.7000 C   0  0  0  0  0  0  0  0  0  0  0  0
   13.0430   -2.4160   10.9340 C   0  0  0  0  0  0  0  0  0  0  0  0
   12.5280   -1.1640   10.6070 C   0  0  0  0  0  0  0  0  0  0  0  0
   13.3610   -0.1990   10.0510 C   0  0  0  0  0  0  0  0  0  0  0  0
   14.7070   -0.4890    9.8160 C   0  0  0  0  0  0  0  0  0  0  0  0
   17.5880   -2.9670   10.3040 C   0  0  0  0  0  0  0  0  0  0  0  0
   17.3100   -4.0340   11.2420 C   0  0  0  0  0  0  0  0  0  0  0  0
   17.0220   -5.3210   10.7680 C   0  0  0  0  0  0  0  0  0  0  0  0
   16.7370   -6.3490   11.6670 C   0  0  0  0  0  0  0  0  0  0  0  0
   16.7360   -6.0960   13.0380 C   0  0  0  0  0  0  0  0  0  0  0  0
   17.0220   -4.8160   13.5140 C   0  0  0  0  0  0  0  0  0  0  0  0
   17.3070   -3.7840   12.6170 C   0  0  0  0  0  0  0  0  0  0  0  0
   18.8120   -2.6730    9.6230 C   0  0  0  0  0  0  0  0  0  0  0  0
   23.1840   -2.3440   11.9460 H   0  0  0  0  0  0  0  0  0  0  0  0
   22.9237   -3.9165   10.5585 H   0  0  0  0  0  0  0  0  0  0  0  0
   22.9516   -5.1263   11.8971 H   0  0  0  0  0  0  0  0  0  0  0  0
   20.7056   -5.0445   12.1858 H   0  0  0  0  0  0  0  0  0  0  0  0
   20.6660   -3.2418   11.9756 H   0  0  0  0  0  0  0  0  0  0  0  0
   19.8780   -5.1410   10.0950 H   0  0  0  0  0  0  0  0  0  0  0  0
   21.3718   -1.0107    7.4150 H   0  0  0  0  0  0  0  0  0  0  0  0
   14.7875   -3.6962   10.9650 H   0  0  0  0  0  0  0  0  0  0  0  0
   12.3874   -3.1798   11.3777 H   0  0  0  0  0  0  0  0  0  0  0  0
   11.4665   -0.9393   10.7878 H   0  0  0  0  0  0  0  0  0  0  0  0
   12.9597    0.7930    9.7962 H   0  0  0  0  0  0  0  0  0  0  0  0
   15.3574    0.2814    9.3761 H   0  0  0  0  0  0  0  0  0  0  0  0
   17.0207   -5.5208    9.6863 H   0  0  0  0  0  0  0  0  0  0  0  0
   16.5130   -7.3593   11.2941 H   0  0  0  0  0  0  0  0  0  0  0  0
   16.5093   -6.9070   13.7458 H   0  0  0  0  0  0  0  0  0  0  0  0
   17.0230   -4.6195   14.5963 H   0  0  0  0  0  0  0  0  0  0  0  0
   17.5291   -2.7744   12.9929 H   0  0  0  0  0  0  0  0  0  0  0  0
  1  2  1  0
  2  3  1  0
  3  4  1  0
  4  5  1  0
  5  6  2  0
  6  7  1  0
  7  8  2  0
  8  9  1  0
  9 10  1  0
 10 11  1  0
 11 12  1  0
 12 13  2  0
 13 14  1  0
 14 15  2  0
 15 16  1  0
 16 17  2  0
 11 18  2  0
 18 19  1  0
 19 20  2  0
 20 21  1  0
 21 22  2  0
 22 23  1  0
 23 24  2  0
 18 25  1  0
 25  5  1  0
 25  9  2  0
 17 12  1  0
 24 19  1  0
  1 26  1  0
  2 27  1  0
  2 28  1  0
  3 29  1  0
  3 30  1  0
  4 31  1  0
  7 32  1  0
 13 33  1  0
 14 34  1  0
 15 35  1  0
 16 36  1  0
 17 37  1  0
 20 38  1  0
 21 39  1  0
 22 40  1  0
 23 41  1  0
 24 42  1  0
M  END
>  <meeko>  (4) 
{"is_sidechain": [false], "free_energy": -7.681, "intermolecular_energy": -10.31, "internal_energy": -1.246}

$$$$
2brb_ligand
     RDKit          3D

 42 45  0  0  0  0  0  0  0  0999 V2000
   15.6590   -4.7860   16.2340 O   0  0  0  0  0  0  0  0  0  0  0  0
   14.8040   -5.9210   16.1030 C   0  0  0  0  0  0  0  0  0  0  0  0
   13.6950   -5.6450   15.0840 C   0  0  0  0  0  0  0  0  0  0  0  0
   13.7840   -6.5250   13.9290 N   0  0  0  0  0  0  0  0  0  0  0  0
   15.0250   -6.6690   13.3180 C   0  0  0  0  0  0  0  0  0  0  0  0
   15.7450   -7.8000   13.5230 N   0  0  0  0  0  0  0  0  0  0  0  0
   16.9230   -7.9560   12.8890 C   0  0  0  0  0  0  0  0  0  0  0  0
   17.5170   -7.1100   12.0440 N   0  0  0  0  0  0  0  0  0  0  0  0
   16.7850   -6.0040   11.8710 C   0  0  0  0  0  0  0  0  0  0  0  0
   17.1710   -4.9980   11.0440 O   0  0  0  0  0  0  0  0  0  0  0  0
   16.2160   -4.0200   11.0870 C   0  0  0  0  0  0  0  0  0  0  0  0
   16.4940   -2.8610   10.2380 C   0  0  0  0  0  0  0  0  0  0  0  0
   17.7940   -2.5550    9.8110 C   0  0  0  0  0  0  0  0  0  0  0  0
   18.0420   -1.4390    9.0060 C   0  0  0  0  0  0  0  0  0  0  0  0
   16.9910   -0.6150    8.6100 C   0  0  0  0  0  0  0  0  0  0  0  0
   15.6930   -0.9070    9.0160 C   0  0  0  0  0  0  0  0  0  0  0  0
   15.4470   -2.0210    9.8220 C   0  0  0  0  0  0  0  0  0  0  0  0
   15.2100   -4.4040   11.9640 C   0  0  0  0  0  0  0  0  0  0  0  0
   14.0300   -3.6190   12.2570 C   0  0  0  0  0  0  0  0  0  0  0  0
   12.8120   -3.9340   11.6400 C   0  0  0  0  0  0  0  0  0  0  0  0
   11.6760   -3.1700   11.9060 C   0  0  0  0  0  0  0  0  0  0  0  0
   11.7510   -2.0910   12.7870 C   0  0  0  0  0  0  0  0  0  0  0  0
   12.9630   -1.7740   13.4030 C   0  0  0  0  0  0  0  0  0  0  0  0
   14.1020   -2.5360   13.1380 C   0  0  0  0  0  0  0  0  0  0  0  0
   15.5680   -5.6990   12.4590 C   0  0  0  0  0  0  0  0  0  0  0  0
   15.6130   -4.3040   15.3900 H   0  0  0  0  0  0  0  0  0  0  0  0
   15.3975   -6.7839   15.7667 H   0  0  0  0  0  0  0  0  0  0  0  0
   14.3439   -6.1332   17.0794 H   0  0  0  0  0  0  0  0  0  0  0  0
   12.7201   -5.7956   15.5708 H   0  0  0  0  0  0  0  0  0  0  0  0
   13.8082   -4.6093   14.7312 H   0  0  0  0  0  0  0  0  0  0  0  0
   13.0060   -6.4740   13.2820 H   0  0  0  0  0  0  0  0  0  0  0  0
   17.4608   -8.8939   13.0919 H   0  0  0  0  0  0  0  0  0  0  0  0
   18.6305   -3.2020   10.1136 H   0  0  0  0  0  0  0  0  0  0  0  0
   19.0691   -1.2113    8.6848 H   0  0  0  0  0  0  0  0  0  0  0  0
   17.1869    0.2639    7.9782 H   0  0  0  0  0  0  0  0  0  0  0  0
   14.8601   -0.2605    8.7023 H   0  0  0  0  0  0  0  0  0  0  0  0
   14.4168   -2.2444   10.1363 H   0  0  0  0  0  0  0  0  0  0  0  0
   12.7518   -4.7847   10.9452 H   0  0  0  0  0  0  0  0  0  0  0  0
   10.7205   -3.4183   11.4209 H   0  0  0  0  0  0  0  0  0  0  0  0
   10.8543   -1.4894   12.9965 H   0  0  0  0  0  0  0  0  0  0  0  0
   13.0204   -0.9231   14.0977 H   0  0  0  0  0  0  0  0  0  0  0  0
   15.0568   -2.2842   13.6227 H   0  0  0  0  0  0  0  0  0  0  0  0
  1  2  1  0
  2  3  1  0
  3  4  1  0
  4  5  1  0
  5  6  2  0
  6  7  1  0
  7  8  2  0
  8  9  1  0
  9 10  1  0
 10 11  1  0
 11 12  1  0
 12 13  2  0
 13 14  1  0
 14 15  2  0
 15 16  1  0
 16 17  2  0
 11 18  2  0
 18 19  1  0
 19 20  2  0
 20 21  1  0
 21 22  2  0
 22 23  1  0
 23 24  2  0
 18 25  1  0
 25  5  1  0
 25  9  2  0
 17 12  1  0
 24 19  1  0
  1 26  1  0
  2 27  1  0
  2 28  1  0
  3 29  1  0
  3 30  1  0
  4 31  1  0
  7 32  1  0
 13 33  1  0
 14 34  1  0
 15 35  1  0
 16 36  1  0
 17 37  1  0
 20 38  1  0
 21 39  1  0
 22 40  1  0
 23 41  1  0
 24 42  1  0
M  END
>  <meeko>  (5) 
{"is_sidechain": [false], "free_energy": -7.662, "intermolecular_energy": -10.405, "internal_energy": -1.124}

$$$$
2brb_ligand
     RDKit          3D

 42 45  0  0  0  0  0  0  0  0999 V2000
   19.9630   -5.4480   12.4590 O   0  0  0  0  0  0  0  0  0  0  0  0
   20.9490   -4.9310   11.5660 C   0  0  0  0  0  0  0  0  0  0  0  0
   20.4660   -3.6270   10.9260 C   0  0  0  0  0  0  0  0  0  0  0  0
   19.3460   -3.8450   10.0220 N   0  0  0  0  0  0  0  0  0  0  0  0
   18.6130   -2.7340    9.6190 C   0  0  0  0  0  0  0  0  0  0  0  0
   19.1590   -1.8520    8.7450 N   0  0  0  0  0  0  0  0  0  0  0  0
   18.4260   -0.8060    8.3200 C   0  0  0  0  0  0  0  0  0  0  0  0
   17.1720   -0.4940    8.6540 N   0  0  0  0  0  0  0  0  0  0  0  0
   16.6680   -1.3780    9.5230 C   0  0  0  0  0  0  0  0  0  0  0  0
   15.4000   -1.2850   10.0020 O   0  0  0  0  0  0  0  0  0  0  0  0
   15.1920   -2.3290   10.8610 C   0  0  0  0  0  0  0  0  0  0  0  0
   13.8580   -2.3640   11.4610 C   0  0  0  0  0  0  0  0  0  0  0  0
   13.0710   -3.5250   11.4450 C   0  0  0  0  0  0  0  0  0  0  0  0
   11.7960   -3.5360   12.0180 C   0  0  0  0  0  0  0  0  0  0  0  0
   11.2890   -2.3880   12.6210 C   0  0  0  0  0  0  0  0  0  0  0  0
   12.0570   -1.2290   12.6550 C   0  0  0  0  0  0  0  0  0  0  0  0
   13.3310   -1.2180   12.0810 C   0  0  0  0  0  0  0  0  0  0  0  0
   16.3480   -3.0940   10.9370 C   0  0  0  0  0  0  0  0  0  0  0  0
   16.4940   -4.2860   11.7450 C   0  0  0  0  0  0  0  0  0  0  0  0
   16.5210   -5.5450   11.1310 C   0  0  0  0  0  0  0  0  0  0  0  0
   16.6450   -6.6980   11.9070 C   0  0  0  0  0  0  0  0  0  0  0  0
   16.7410   -6.5980   13.2950 C   0  0  0  0  0  0  0  0  0  0  0  0
   16.7130   -5.3450   13.9100 C   0  0  0  0  0  0  0  0  0  0  0  0
   16.5890   -4.1900   13.1360 C   0  0  0  0  0  0  0  0  0  0  0  0
   17.3000   -2.4900   10.0550 C   0  0  0  0  0  0  0  0  0  0  0  0
   20.3560   -5.4290   13.3480 H   0  0  0  0  0  0  0  0  0  0  0  0
   21.8767   -4.7375   12.1246 H   0  0  0  0  0  0  0  0  0  0  0  0
   21.1301   -5.6700   10.7716 H   0  0  0  0  0  0  0  0  0  0  0  0
   20.1506   -2.9363   11.7219 H   0  0  0  0  0  0  0  0  0  0  0  0
   21.2978   -3.2072   10.3412 H   0  0  0  0  0  0  0  0  0  0  0  0
   18.7850   -4.6660   10.2140 H   0  0  0  0  0  0  0  0  0  0  0  0
   18.9207   -0.1256    7.6112 H   0  0  0  0  0  0  0  0  0  0  0  0
   13.4625   -4.4393   10.9751 H   0  0  0  0  0  0  0  0  0  0  0  0
   11.1913   -4.4545   11.9924 H   0  0  0  0  0  0  0  0  0  0  0  0
   10.2844   -2.3977   13.0690 H   0  0  0  0  0  0  0  0  0  0  0  0
   11.6616   -0.3210   13.1337 H   0  0  0  0  0  0  0  0  0  0  0  0
   13.9315   -0.2970   12.1150 H   0  0  0  0  0  0  0  0  0  0  0  0
   16.4444   -5.6246   10.0366 H   0  0  0  0  0  0  0  0  0  0  0  0
   16.6671   -7.6861   11.4241 H   0  0  0  0  0  0  0  0  0  0  0  0
   16.8389   -7.5076   13.9058 H   0  0  0  0  0  0  0  0  0  0  0  0
   16.7887   -5.2679   15.0047 H   0  0  0  0  0  0  0  0  0  0  0  0
   16.5660   -3.2032   13.6214 H   0  0  0  0  0  0  0  0  0  0  0  0
  1  2  1  0
  2  3  1  0
  3  4  1  0
  4  5  1  0
  5  6  2  0
  6  7  1  0
  7  8  2  0
  8  9  1  0
  9 10  1  0
 10 11  1  0
 11 12  1  0
 12 13  2  0
 13 14  1  0
 14 15  2  0
 15 16  1  0
 16 17  2  0
 11 18  2  0
 18 19  1  0
 19 20  2  0
 20 21  1  0
 21 22  2  0
 22 23  1  0
 23 24  2  0
 18 25  1  0
 25  5  1  0
 25  9  2  0
 17 12  1  0
 24 19  1  0
  1 26  1  0
  2 27  1  0
  2 28  1  0
  3 29  1  0
  3 30  1  0
  4 31  1  0
  7 32  1  0
 13 33  1  0
 14 34  1  0
 15 35  1  0
 16 36  1  0
 17 37  1  0
 20 38  1  0
 21 39  1  0
 22 40  1  0
 23 41  1  0
 24 42  1  0
M  END
>  <meeko>  (6) 
{"is_sidechain": [false], "free_energy": -7.643, "intermolecular_energy": -10.054, "internal_energy": -1.45}

$$$$
2brb_ligand
     RDKit          3D

 42 45  0  0  0  0  0  0  0  0999 V2000
   19.9970   -6.3600   11.4550 O   0  0  0  0  0  0  0  0  0  0  0  0
   19.6830   -7.4020   12.3790 C   0  0  0  0  0  0  0  0  0  0  0  0
   18.1850   -7.4110   12.6910 C   0  0  0  0  0  0  0  0  0  0  0  0
   17.8520   -6.5220   13.7940 N   0  0  0  0  0  0  0  0  0  0  0  0
   16.5130   -6.4070   14.1520 C   0  0  0  0  0  0  0  0  0  0  0  0
   15.9810   -7.2770   15.0460 N   0  0  0  0  0  0  0  0  0  0  0  0
   14.6980   -7.1290   15.4270 C   0  0  0  0  0  0  0  0  0  0  0  0
   13.8270   -6.2000   15.0280 N   0  0  0  0  0  0  0  0  0  0  0  0
   14.3810   -5.3650   14.1420 C   0  0  0  0  0  0  0  0  0  0  0  0
   13.6990   -4.3230   13.6000 O   0  0  0  0  0  0  0  0  0  0  0  0
   14.5360   -3.6670   12.7390 C   0  0  0  0  0  0  0  0  0  0  0  0
   13.9370   -2.5100   12.0730 C   0  0  0  0  0  0  0  0  0  0  0  0
   14.2220   -2.1990   10.7360 C   0  0  0  0  0  0  0  0  0  0  0  0
   13.6460   -1.0840   10.1190 C   0  0  0  0  0  0  0  0  0  0  0  0
   12.7710   -0.2660   10.8290 C   0  0  0  0  0  0  0  0  0  0  0  0
   12.4690   -0.5630   12.1540 C   0  0  0  0  0  0  0  0  0  0  0  0
   13.0470   -1.6760   12.7700 C   0  0  0  0  0  0  0  0  0  0  0  0
   15.7690   -4.3070   12.7270 C   0  0  0  0  0  0  0  0  0  0  0  0
   16.9060   -3.8870   11.9350 C   0  0  0  0  0  0  0  0  0  0  0  0
   16.9750   -4.2310   10.5790 C   0  0  0  0  0  0  0  0  0  0  0  0
   18.0770   -3.8430    9.8160 C   0  0  0  0  0  0  0  0  0  0  0  0
   19.1100   -3.1140   10.4040 C   0  0  0  0  0  0  0  0  0  0  0  0
   19.0450   -2.7700   11.7550 C   0  0  0  0  0  0  0  0  0  0  0  0
   17.9440   -3.1580   12.5210 C   0  0  0  0  0  0  0  0  0  0  0  0
   15.6760   -5.3970   13.6500 C   0  0  0  0  0  0  0  0  0  0  0  0
   20.9300   -6.4810   11.2060 H   0  0  0  0  0  0  0  0  0  0  0  0
   19.9672   -8.3706   11.9420 H   0  0  0  0  0  0  0  0  0  0  0  0
   20.2388   -7.2282   13.3122 H   0  0  0  0  0  0  0  0  0  0  0  0
   17.6339   -7.0877   11.7956 H   0  0  0  0  0  0  0  0  0  0  0  0
   17.9051   -8.4339   12.9830 H   0  0  0  0  0  0  0  0  0  0  0  0
   18.3670   -5.6510   13.8220 H   0  0  0  0  0  0  0  0  0  0  0  0
   14.3223   -7.8627   16.1554 H   0  0  0  0  0  0  0  0  0  0  0  0
   14.9083   -2.8410   10.1643 H   0  0  0  0  0  0  0  0  0  0  0  0
   13.8847   -0.8527    9.0704 H   0  0  0  0  0  0  0  0  0  0  0  0
   12.3201    0.6122   10.3437 H   0  0  0  0  0  0  0  0  0  0  0  0
   11.7750    0.0785   12.7169 H   0  0  0  0  0  0  0  0  0  0  0  0
   12.8011   -1.9029   13.8179 H   0  0  0  0  0  0  0  0  0  0  0  0
   16.1605   -4.8070   10.1156 H   0  0  0  0  0  0  0  0  0  0  0  0
   18.1308   -4.1122    8.7508 H   0  0  0  0  0  0  0  0  0  0  0  0
   19.9784   -2.8093    9.8015 H   0  0  0  0  0  0  0  0  0  0  0  0
   19.8606   -2.1936   12.2160 H   0  0  0  0  0  0  0  0  0  0  0  0
   17.8937   -2.8896   13.5866 H   0  0  0  0  0  0  0  0  0  0  0  0
  1  2  1  0
  2  3  1  0
  3  4  1  0
  4  5  1  0
  5  6  2  0
  6  7  1  0
  7  8  2  0
  8  9  1  0
  9 10  1  0
 10 11  1  0
 11 12  1  0
 12 13  2  0
 13 14  1  0
 14 15  2  0
 15 16  1  0
 16 17  2  0
 11 18  2  0
 18 19  1  0
 19 20  2  0
 20 21  1  0
 21 22  2  0
 22 23  1  0
 23 24  2  0
 18 25  1  0
 25  5  1  0
 25  9  2  0
 17 12  1  0
 24 19  1  0
  1 26  1  0
  2 27  1  0
  2 28  1  0
  3 29  1  0
  3 30  1  0
  4 31  1  0
  7 32  1  0
 13 33  1  0
 14 34  1  0
 15 35  1  0
 16 36  1  0
 17 37  1  0
 20 38  1  0
 21 39  1  0
 22 40  1  0
 23 41  1  0
 24 42  1  0
M  END
>  <meeko>  (7) 
{"is_sidechain": [false], "free_energy": -7.418, "intermolecular_energy": -9.883, "internal_energy": -1.324}

$$$$
2brb_ligand
     RDKit          3D

 42 45  0  0  0  0  0  0  0  0999 V2000
   14.9590   -7.1920   14.7290 O   0  0  0  0  0  0  0  0  0  0  0  0
   14.7520   -6.3410   15.8560 C   0  0  0  0  0  0  0  0  0  0  0  0
   14.1250   -5.0140   15.4200 C   0  0  0  0  0  0  0  0  0  0  0  0
   13.4050   -5.1380   14.1620 N   0  0  0  0  0  0  0  0  0  0  0  0
   12.9950   -3.9680   13.5320 C   0  0  0  0  0  0  0  0  0  0  0  0
   11.7950   -3.4220   13.8470 N   0  0  0  0  0  0  0  0  0  0  0  0
   11.4250   -2.2620   13.2710 C   0  0  0  0  0  0  0  0  0  0  0  0
   12.1080   -1.5340   12.3840 N   0  0  0  0  0  0  0  0  0  0  0  0
   13.2810   -2.1060   12.0880 C   0  0  0  0  0  0  0  0  0  0  0  0
   14.1630   -1.5470   11.2190 O   0  0  0  0  0  0  0  0  0  0  0  0
   15.2550   -2.3680   11.1340 C   0  0  0  0  0  0  0  0  0  0  0  0
   16.3010   -1.8930   10.2290 C   0  0  0  0  0  0  0  0  0  0  0  0
   16.0390   -0.9450    9.2300 C   0  0  0  0  0  0  0  0  0  0  0  0
   17.0510   -0.5100    8.3690 C   0  0  0  0  0  0  0  0  0  0  0  0
   18.3430   -1.0120    8.4970 C   0  0  0  0  0  0  0  0  0  0  0  0
   18.6260   -1.9470    9.4870 C   0  0  0  0  0  0  0  0  0  0  0  0
   17.6130   -2.3830   10.3460 C   0  0  0  0  0  0  0  0  0  0  0  0
   15.0600   -3.4710   11.9550 C   0  0  0  0  0  0  0  0  0  0  0  0
   16.0110   -4.5490   12.1240 C   0  0  0  0  0  0  0  0  0  0  0  0
   16.8740   -4.5500   13.2280 C   0  0  0  0  0  0  0  0  0  0  0  0
   17.8040   -5.5780   13.3860 C   0  0  0  0  0  0  0  0  0  0  0  0
   17.8770   -6.6040   12.4440 C   0  0  0  0  0  0  0  0  0  0  0  0
   17.0200   -6.6050   11.3430 C   0  0  0  0  0  0  0  0  0  0  0  0
   16.0890   -5.5780   11.1810 C   0  0  0  0  0  0  0  0  0  0  0  0
   13.7890   -3.2930   12.5890 C   0  0  0  0  0  0  0  0  0  0  0  0
   14.0850   -7.3400   14.3290 H   0  0  0  0  0  0  0  0  0  0  0  0
   14.0801   -6.8416   16.5687 H   0  0  0  0  0  0  0  0  0  0  0  0
   15.7236   -6.1361   16.3294 H   0  0  0  0  0  0  0  0  0  0  0  0
   13.4238   -4.6798   16.1989 H   0  0  0  0  0  0  0  0  0  0  0  0
   14.9369   -4.2860   15.2761 H   0  0  0  0  0  0  0  0  0  0  0  0
   12.7290   -5.8910   14.1200 H   0  0  0  0  0  0  0  0  0  0  0  0
   10.4420   -1.8668   13.5668 H   0  0  0  0  0  0  0  0  0  0  0  0
   15.0229   -0.5377    9.1220 H   0  0  0  0  0  0  0  0  0  0  0  0
   16.8256    0.2312    7.5881 H   0  0  0  0  0  0  0  0  0  0  0  0
   19.1376   -0.6703    7.8174 H   0  0  0  0  0  0  0  0  0  0  0  0
   19.6466   -2.3433    9.5940 H   0  0  0  0  0  0  0  0  0  0  0  0
   17.8467   -3.1220   11.1266 H   0  0  0  0  0  0  0  0  0  0  0  0
   16.8182   -3.7401   13.9703 H   0  0  0  0  0  0  0  0  0  0  0  0
   18.4799   -5.5793   14.2538 H   0  0  0  0  0  0  0  0  0  0  0  0
   18.6112   -7.4135   12.5693 H   0  0  0  0  0  0  0  0  0  0  0  0
   17.0782   -7.4159   10.6020 H   0  0  0  0  0  0  0  0  0  0  0  0
   15.4162   -5.5782   10.3108 H   0  0  0  0  0  0  0  0  0  0  0  0
  1  2  1  0
  2  3  1  0
  3  4  1  0
  4  5  1  0
  5  6  2  0
  6  7  1  0
  7  8  2  0
  8  9  1  0
  9 10  1  0
 10 11  1  0
 11 12  1  0
 12 13  2  0
 13 14  1  0
 14 15  2  0
 15 16  1  0
 16 17  2  0
 11 18  2  0
 18 19  1  0
 19 20  2  0
 20 21  1  0
 21 22  2  0
 22 23  1  0
 23 24  2  0
 18 25  1  0
 25  5  1  0
 25  9  2  0
 17 12  1  0
 24 19  1  0
  1 26  1  0
  2 27  1  0
  2 28  1  0
  3 29  1  0
  3 30  1  0
  4 31  1  0
  7 32  1  0
 13 33  1  0
 14 34  1  0
 15 35  1  0
 16 36  1  0
 17 37  1  0
 20 38  1  0
 21 39  1  0
 22 40  1  0
 23 41  1  0
 24 42  1  0
M  END
>  <meeko>  (8) 
{"is_sidechain": [false], "free_energy": -7.268, "intermolecular_energy": -9.648, "internal_energy": -1.361}

$$$$
2brb_ligand
     RDKit          3D

 42 45  0  0  0  0  0  0  0  0999 V2000
   18.5640   -6.9090   14.2680 O   0  0  0  0  0  0  0  0  0  0  0  0
   19.1420   -7.7100   13.2380 C   0  0  0  0  0  0  0  0  0  0  0  0
   19.6680   -6.8280   12.1020 C   0  0  0  0  0  0  0  0  0  0  0  0
   19.7060   -5.4220   12.4770 N   0  0  0  0  0  0  0  0  0  0  0  0
   19.7160   -4.4790   11.4540 C   0  0  0  0  0  0  0  0  0  0  0  0
   20.8520   -4.2770   10.7400 N   0  0  0  0  0  0  0  0  0  0  0  0
   20.8420   -3.4000    9.7190 C   0  0  0  0  0  0  0  0  0  0  0  0
   19.8200   -2.6580    9.2860 N   0  0  0  0  0  0  0  0  0  0  0  0
   18.7200   -2.8740   10.0170 C   0  0  0  0  0  0  0  0  0  0  0  0
   17.5430   -2.2470    9.7630 O   0  0  0  0  0  0  0  0  0  0  0  0
   16.6230   -2.6800   10.6780 C   0  0  0  0  0  0  0  0  0  0  0  0
   15.2930   -2.0870   10.5280 C   0  0  0  0  0  0  0  0  0  0  0  0
   14.1380   -2.7450   10.9750 C   0  0  0  0  0  0  0  0  0  0  0  0
   12.8750   -2.1660   10.8170 C   0  0  0  0  0  0  0  0  0  0  0  0
   12.7480   -0.9170   10.2140 C   0  0  0  0  0  0  0  0  0  0  0  0
   13.8830   -0.2450    9.7720 C   0  0  0  0  0  0  0  0  0  0  0  0
   15.1440   -0.8250    9.9290 C   0  0  0  0  0  0  0  0  0  0  0  0
   17.2270   -3.5900   11.5350 C   0  0  0  0  0  0  0  0  0  0  0  0
   16.5550   -4.2630   12.6270 C   0  0  0  0  0  0  0  0  0  0  0  0
   16.5770   -3.7010   13.9100 C   0  0  0  0  0  0  0  0  0  0  0  0
   15.9450   -4.3540   14.9690 C   0  0  0  0  0  0  0  0  0  0  0  0
   15.2920   -5.5670   14.7510 C   0  0  0  0  0  0  0  0  0  0  0  0
   15.2690   -6.1290   13.4740 C   0  0  0  0  0  0  0  0  0  0  0  0
   15.9010   -5.4790   12.4120 C   0  0  0  0  0  0  0  0  0  0  0  0
   18.5820   -3.7320   11.0970 C   0  0  0  0  0  0  0  0  0  0  0  0
   18.5490   -7.4580   15.0710 H   0  0  0  0  0  0  0  0  0  0  0  0
   19.9745   -8.2937   13.6579 H   0  0  0  0  0  0  0  0  0  0  0  0
   18.3703   -8.3833   12.8366 H   0  0  0  0  0  0  0  0  0  0  0  0
   20.6858   -7.1538   11.8414 H   0  0  0  0  0  0  0  0  0  0  0  0
   18.9854   -6.9333   11.2458 H   0  0  0  0  0  0  0  0  0  0  0  0
   20.3100   -5.1950   13.2570 H   0  0  0  0  0  0  0  0  0  0  0  0
   21.7908   -3.2801    9.1755 H   0  0  0  0  0  0  0  0  0  0  0  0
   14.2268   -3.7300   11.4565 H   0  0  0  0  0  0  0  0  0  0  0  0
   11.9794   -2.6984   11.1699 H   0  0  0  0  0  0  0  0  0  0  0  0
   11.7538   -0.4635   10.0877 H   0  0  0  0  0  0  0  0  0  0  0  0
   13.7874    0.7434    9.2987 H   0  0  0  0  0  0  0  0  0  0  0  0
   16.0353   -0.2845    9.5777 H   0  0  0  0  0  0  0  0  0  0  0  0
   17.0926   -2.7448   14.0827 H   0  0  0  0  0  0  0  0  0  0  0  0
   15.9618   -3.9119   15.9761 H   0  0  0  0  0  0  0  0  0  0  0  0
   14.7946   -6.0812   15.5866 H   0  0  0  0  0  0  0  0  0  0  0  0
   14.7524   -7.0851   13.3038 H   0  0  0  0  0  0  0  0  0  0  0  0
   15.8840   -5.9241   11.4062 H   0  0  0  0  0  0  0  0  0  0  0  0
  1  2  1  0
  2  3  1  0
  3  4  1  0
  4  5  1  0
  5  6  2  0
  6  7  1  0
  7  8  2  0
  8  9  1  0
  9 10  1  0
 10 11  1  0
 11 12  1  0
 12 13  2  0
 13 14  1  0
 14 15  2  0
 15 16  1  0
 16 17  2  0
 11 18  2  0
 18 19  1  0
 19 20  2  0
 20 21  1  0
 21 22  2  0
 22 23  1  0
 23 24  2  0
 18 25  1  0
 25  5  1  0
 25  9  2  0
 17 12  1  0
 24 19  1  0
  1 26  1  0
  2 27  1  0
  2 28  1  0
  3 29  1  0
  3 30  1  0
  4 31  1  0
  7 32  1  0
 13 33  1  0
 14 34  1  0
 15 35  1  0
 16 36  1  0
 17 37  1  0
 20 38  1  0
 21 39  1  0
 22 40  1  0
 23 41  1  0
 24 42  1  0
M  END
>  <meeko>  (9) 
{"is_sidechain": [false], "free_energy": -7.071, "intermolecular_energy": -9.32, "internal_energy": -1.428}

$$$$
