3twp_ligand
     RDKit          3D

 15 15  0  0  0  0  0  0  0  0999 V2000
   69.7830   81.2560   23.8750 O   0  0  0  0  0  0  0  0  0  0  0  0
   69.7820   81.9190   24.9660 C   0  0  0  0  0  0  0  0  0  0  0  0
   69.5380   83.1590   25.0900 O   0  0  0  0  0  0  0  0  0  0  0  0
   70.1080   81.1300   26.2110 C   0  0  0  0  0  0  0  0  0  0  0  0
   71.1260   81.5520   27.0830 C   0  0  0  0  0  0  0  0  0  0  0  0
   71.4300   80.8260   28.2390 C   0  0  0  0  0  0  0  0  0  0  0  0
   70.7230   79.6650   28.5400 C   0  0  0  0  0  0  0  0  0  0  0  0
   69.7090   79.2290   27.6880 C   0  0  0  0  0  0  0  0  0  0  0  0
   69.4080   79.9570   26.5380 C   0  0  0  0  0  0  0  0  0  0  0  0
   68.4000   79.4730   25.7430 O   0  0  0  0  0  0  0  0  0  0  0  0
   71.6920   82.4667   26.8530 H   0  0  0  0  0  0  0  0  0  0  0  0
   72.2287   81.1727   28.9113 H   0  0  0  0  0  0  0  0  0  0  0  0
   70.9639   79.0929   29.4481 H   0  0  0  0  0  0  0  0  0  0  0  0
   69.1478   78.3125   27.9228 H   0  0  0  0  0  0  0  0  0  0  0  0
   67.9230   78.8080   26.3130 H   0  0  0  0  0  0  0  0  0  0  0  0
  1  2  2  0
  2  3  1  0
  2  4  1  0
  4  5  2  0
  5  6  1  0
  6  7  2  0
  7  8  1  0
  8  9  2  0
  9 10  1  0
  9  4  1  0
  5 11  1  0
  6 12  1  0
  7 13  1  0
  8 14  1  0
 10 15  1  0
M  CHG  1   3  -1
M  END
>  <meeko>  (1) 
{"is_sidechain": [false], "free_energy": -5.352, "intermolecular_energy": -5.821, "internal_energy": -0.259}

$$$$
3twp_ligand
     RDKit          3D

 15 15  0  0  0  0  0  0  0  0999 V2000
   70.2240   83.7070   25.2420 O   0  0  0  0  0  0  0  0  0  0  0  0
   71.1610   83.0000   25.7430 C   0  0  0  0  0  0  0  0  0  0  0  0
   72.4020   83.2650   25.7090 O   0  0  0  0  0  0  0  0  0  0  0  0
   70.7250   81.7300   26.4340 C   0  0  0  0  0  0  0  0  0  0  0  0
   69.6870   80.9440   25.9030 C   0  0  0  0  0  0  0  0  0  0  0  0
   69.2790   79.7670   26.5380 C   0  0  0  0  0  0  0  0  0  0  0  0
   69.9020   79.3570   27.7150 C   0  0  0  0  0  0  0  0  0  0  0  0
   70.9320   80.1230   28.2580 C   0  0  0  0  0  0  0  0  0  0  0  0
   71.3360   81.2950   27.6200 C   0  0  0  0  0  0  0  0  0  0  0  0
   72.3560   82.0000   28.2080 O   0  0  0  0  0  0  0  0  0  0  0  0
   69.1887   81.2597   24.9745 H   0  0  0  0  0  0  0  0  0  0  0  0
   68.4655   79.1642   26.1080 H   0  0  0  0  0  0  0  0  0  0  0  0
   69.5816   78.4308   28.2145 H   0  0  0  0  0  0  0  0  0  0  0  0
   71.4251   79.8036   29.1879 H   0  0  0  0  0  0  0  0  0  0  0  0
   72.2080   82.9460   27.9280 H   0  0  0  0  0  0  0  0  0  0  0  0
  1  2  2  0
  2  3  1  0
  2  4  1  0
  4  5  2  0
  5  6  1  0
  6  7  2  0
  7  8  1  0
  8  9  2  0
  9 10  1  0
  9  4  1  0
  5 11  1  0
  6 12  1  0
  7 13  1  0
  8 14  1  0
 10 15  1  0
M  CHG  1   3  -1
M  END
>  <meeko>  (2) 
{"is_sidechain": [false], "free_energy": -5.278, "intermolecular_energy": -5.757, "internal_energy": -0.243}

$$$$
3twp_ligand
     RDKit          3D

 15 15  0  0  0  0  0  0  0  0999 V2000
   72.8230   83.2660   26.7910 O   0  0  0  0  0  0  0  0  0  0  0  0
   72.2290   82.6520   27.7390 C   0  0  0  0  0  0  0  0  0  0  0  0
   72.4230   82.8230   28.9820 O   0  0  0  0  0  0  0  0  0  0  0  0
   71.2050   81.6270   27.3140 C   0  0  0  0  0  0  0  0  0  0  0  0
   70.4890   81.7820   26.1140 C   0  0  0  0  0  0  0  0  0  0  0  0
   69.5400   80.8360   25.7150 C   0  0  0  0  0  0  0  0  0  0  0  0
   69.2900   79.7200   26.5100 C   0  0  0  0  0  0  0  0  0  0  0  0
   69.9890   79.5470   27.7040 C   0  0  0  0  0  0  0  0  0  0  0  0
   70.9360   80.4930   28.0970 C   0  0  0  0  0  0  0  0  0  0  0  0
   71.5870   80.2620   29.2820 O   0  0  0  0  0  0  0  0  0  0  0  0
   70.6782   82.6605   25.4797 H   0  0  0  0  0  0  0  0  0  0  0  0
   68.9902   80.9732   24.7722 H   0  0  0  0  0  0  0  0  0  0  0  0
   68.5425   78.9764   26.1965 H   0  0  0  0  0  0  0  0  0  0  0  0
   69.7942   78.6669   28.3344 H   0  0  0  0  0  0  0  0  0  0  0  0
   72.5560   80.3450   29.0620 H   0  0  0  0  0  0  0  0  0  0  0  0
  1  2  2  0
  2  3  1  0
  2  4  1  0
  4  5  2  0
  5  6  1  0
  6  7  2  0
  7  8  1  0
  8  9  2  0
  9 10  1  0
  9  4  1  0
  5 11  1  0
  6 12  1  0
  7 13  1  0
  8 14  1  0
 10 15  1  0
M  CHG  1   3  -1
M  END
>  <meeko>  (3) 
{"is_sidechain": [false], "free_energy": -5.129, "intermolecular_energy": -5.619, "internal_energy": -0.218}

$$$$
3twp_ligand
     RDKit          3D

 15 15  0  0  0  0  0  0  0  0999 V2000
   72.4320   83.0390   28.8720 O   0  0  0  0  0  0  0  0  0  0  0  0
   72.1560   82.6650   27.6830 C   0  0  0  0  0  0  0  0  0  0  0  0
   72.5690   83.2050   26.6110 O   0  0  0  0  0  0  0  0  0  0  0  0
   71.2490   81.4630   27.5700 C   0  0  0  0  0  0  0  0  0  0  0  0
   71.2810   80.4450   28.5390 C   0  0  0  0  0  0  0  0  0  0  0  0
   70.4420   79.3310   28.4400 C   0  0  0  0  0  0  0  0  0  0  0  0
   69.5580   79.2150   27.3690 C   0  0  0  0  0  0  0  0  0  0  0  0
   69.5120   80.2140   26.3980 C   0  0  0  0  0  0  0  0  0  0  0  0
   70.3490   81.3230   26.5020 C   0  0  0  0  0  0  0  0  0  0  0  0
   70.2510   82.2680   25.5120 O   0  0  0  0  0  0  0  0  0  0  0  0
   71.9763   80.5261   29.3875 H   0  0  0  0  0  0  0  0  0  0  0  0
   70.4797   78.5450   29.2086 H   0  0  0  0  0  0  0  0  0  0  0  0
   68.8987   78.3380   27.2901 H   0  0  0  0  0  0  0  0  0  0  0  0
   68.8158   80.1269   25.5508 H   0  0  0  0  0  0  0  0  0  0  0  0
   71.1650   82.6610   25.4410 H   0  0  0  0  0  0  0  0  0  0  0  0
  1  2  2  0
  2  3  1  0
  2  4  1  0
  4  5  2  0
  5  6  1  0
  6  7  2  0
  7  8  1  0
  8  9  2  0
  9 10  1  0
  9  4  1  0
  5 11  1  0
  6 12  1  0
  7 13  1  0
  8 14  1  0
 10 15  1  0
M  CHG  1   3  -1
M  END
>  <meeko>  (4) 
{"is_sidechain": [false], "free_energy": -5.076, "intermolecular_energy": -5.556, "internal_energy": -0.224}

$$$$
3twp_ligand
     RDKit          3D

 15 15  0  0  0  0  0  0  0  0999 V2000
   70.0320   83.7540   25.1610 O   0  0  0  0  0  0  0  0  0  0  0  0
   69.9880   82.5060   24.8970 C   0  0  0  0  0  0  0  0  0  0  0  0
   69.7700   81.9870   23.7590 O   0  0  0  0  0  0  0  0  0  0  0  0
   70.2190   81.5810   26.0680 C   0  0  0  0  0  0  0  0  0  0  0  0
   69.4550   80.4110   26.2190 C   0  0  0  0  0  0  0  0  0  0  0  0
   69.6650   79.5500   27.3000 C   0  0  0  0  0  0  0  0  0  0  0  0
   70.6420   79.8450   28.2490 C   0  0  0  0  0  0  0  0  0  0  0  0
   71.4100   81.0010   28.1160 C   0  0  0  0  0  0  0  0  0  0  0  0
   71.1980   81.8560   27.0350 C   0  0  0  0  0  0  0  0  0  0  0  0
   71.9880   82.9750   26.9660 O   0  0  0  0  0  0  0  0  0  0  0  0
   68.6808   80.1694   25.4759 H   0  0  0  0  0  0  0  0  0  0  0  0
   69.0582   78.6382   27.4018 H   0  0  0  0  0  0  0  0  0  0  0  0
   70.8067   79.1680   29.1002 H   0  0  0  0  0  0  0  0  0  0  0  0
   72.1821   81.2383   28.8627 H   0  0  0  0  0  0  0  0  0  0  0  0
   72.8740   82.6440   26.6490 H   0  0  0  0  0  0  0  0  0  0  0  0
  1  2  2  0
  2  3  1  0
  2  4  1  0
  4  5  2  0
  5  6  1  0
  6  7  2  0
  7  8  1  0
  8  9  2  0
  9 10  1  0
  9  4  1  0
  5 11  1  0
  6 12  1  0
  7 13  1  0
  8 14  1  0
 10 15  1  0
M  CHG  1   3  -1
M  END
>  <meeko>  (5) 
{"is_sidechain": [false], "free_energy": -5.023, "intermolecular_energy": -5.485, "internal_energy": -0.237}

$$$$
3twp_ligand
     RDKit          3D

 15 15  0  0  0  0  0  0  0  0999 V2000
   71.2710   80.3180   30.0510 O   0  0  0  0  0  0  0  0  0  0  0  0
   70.6470   79.6000   29.2010 C   0  0  0  0  0  0  0  0  0  0  0  0
   70.1840   78.4340   29.3980 O   0  0  0  0  0  0  0  0  0  0  0  0
   70.4570   80.2190   27.8360 C   0  0  0  0  0  0  0  0  0  0  0  0
   69.4480   79.7570   26.9730 C   0  0  0  0  0  0  0  0  0  0  0  0
   69.2660   80.3270   25.7090 C   0  0  0  0  0  0  0  0  0  0  0  0
   70.0910   81.3680   25.2880 C   0  0  0  0  0  0  0  0  0  0  0  0
   71.0960   81.8400   26.1290 C   0  0  0  0  0  0  0  0  0  0  0  0
   71.2730   81.2690   27.3890 C   0  0  0  0  0  0  0  0  0  0  0  0
   72.2810   81.7820   28.1660 O   0  0  0  0  0  0  0  0  0  0  0  0
   68.7922   78.9353   27.2966 H   0  0  0  0  0  0  0  0  0  0  0  0
   68.4711   79.9533   25.0468 H   0  0  0  0  0  0  0  0  0  0  0  0
   69.9489   81.8161   24.2935 H   0  0  0  0  0  0  0  0  0  0  0  0
   71.7490   82.6618   25.7999 H   0  0  0  0  0  0  0  0  0  0  0  0
   71.8210   82.1500   28.9710 H   0  0  0  0  0  0  0  0  0  0  0  0
  1  2  2  0
  2  3  1  0
  2  4  1  0
  4  5  2  0
  5  6  1  0
  6  7  2  0
  7  8  1  0
  8  9  2  0
  9 10  1  0
  9  4  1  0
  5 11  1  0
  6 12  1  0
  7 13  1  0
  8 14  1  0
 10 15  1  0
M  CHG  1   3  -1
M  END
>  <meeko>  (6) 
{"is_sidechain": [false], "free_energy": -4.971, "intermolecular_energy": -5.595, "internal_energy": -0.071}

$$$$
3twp_ligand
     RDKit          3D

 15 15  0  0  0  0  0  0  0  0999 V2000
   71.2910   80.4110   29.9030 O   0  0  0  0  0  0  0  0  0  0  0  0
   70.7640   79.8810   28.8680 C   0  0  0  0  0  0  0  0  0  0  0  0
   70.2650   78.7160   28.7940 O   0  0  0  0  0  0  0  0  0  0  0  0
   70.7480   80.7420   27.6280 C   0  0  0  0  0  0  0  0  0  0  0  0
   71.7130   81.7460   27.4390 C   0  0  0  0  0  0  0  0  0  0  0  0
   71.7040   82.5460   26.2920 C   0  0  0  0  0  0  0  0  0  0  0  0
   70.7280   82.3550   25.3160 C   0  0  0  0  0  0  0  0  0  0  0  0
   69.7620   81.3650   25.4850 C   0  0  0  0  0  0  0  0  0  0  0  0
   69.7770   80.5690   26.6300 C   0  0  0  0  0  0  0  0  0  0  0  0
   68.7980   79.6140   26.7330 O   0  0  0  0  0  0  0  0  0  0  0  0
   72.4868   81.9049   28.2045 H   0  0  0  0  0  0  0  0  0  0  0  0
   72.4678   83.3265   26.1602 H   0  0  0  0  0  0  0  0  0  0  0  0
   70.7201   82.9845   24.4139 H   0  0  0  0  0  0  0  0  0  0  0  0
   68.9895   81.2117   24.7171 H   0  0  0  0  0  0  0  0  0  0  0  0
   68.8580   79.0930   25.8840 H   0  0  0  0  0  0  0  0  0  0  0  0
  1  2  2  0
  2  3  1  0
  2  4  1  0
  4  5  2  0
  5  6  1  0
  6  7  2  0
  7  8  1  0
  8  9  2  0
  9 10  1  0
  9  4  1  0
  5 11  1  0
  6 12  1  0
  7 13  1  0
  8 14  1  0
 10 15  1  0
M  CHG  1   3  -1
M  END
>  <meeko>  (7) 
{"is_sidechain": [false], "free_energy": -4.931, "intermolecular_energy": -5.428, "internal_energy": -0.194}

$$$$
3twp_ligand
     RDKit          3D

 15 15  0  0  0  0  0  0  0  0999 V2000
   70.1010   80.3010   23.8430 O   0  0  0  0  0  0  0  0  0  0  0  0
   69.5110   80.1310   24.9620 C   0  0  0  0  0  0  0  0  0  0  0  0
   68.3870   79.5690   25.1400 O   0  0  0  0  0  0  0  0  0  0  0  0
   70.2410   80.6600   26.1740 C   0  0  0  0  0  0  0  0  0  0  0  0
   70.9700   81.8600   26.1050 C   0  0  0  0  0  0  0  0  0  0  0  0
   71.6470   82.3560   27.2230 C   0  0  0  0  0  0  0  0  0  0  0  0
   71.6070   81.6590   28.4290 C   0  0  0  0  0  0  0  0  0  0  0  0
   70.8900   80.4670   28.5180 C   0  0  0  0  0  0  0  0  0  0  0  0
   70.2150   79.9780   27.4000 C   0  0  0  0  0  0  0  0  0  0  0  0
   69.5290   78.8000   27.5560 O   0  0  0  0  0  0  0  0  0  0  0  0
   71.0083   82.4170   25.1572 H   0  0  0  0  0  0  0  0  0  0  0  0
   72.2117   83.2972   27.1507 H   0  0  0  0  0  0  0  0  0  0  0  0
   72.1401   82.0486   29.3088 H   0  0  0  0  0  0  0  0  0  0  0  0
   70.8567   79.9133   29.4679 H   0  0  0  0  0  0  0  0  0  0  0  0
   68.8450   78.9940   28.2550 H   0  0  0  0  0  0  0  0  0  0  0  0
  1  2  2  0
  2  3  1  0
  2  4  1  0
  4  5  2  0
  5  6  1  0
  6  7  2  0
  7  8  1  0
  8  9  2  0
  9 10  1  0
  9  4  1  0
  5 11  1  0
  6 12  1  0
  7 13  1  0
  8 14  1  0
 10 15  1  0
M  CHG  1   3  -1
M  END
>  <meeko>  (8) 
{"is_sidechain": [false], "free_energy": -4.709, "intermolecular_energy": -5.143, "internal_energy": -0.238}

$$$$
3twp_ligand
     RDKit          3D

 15 15  0  0  0  0  0  0  0  0999 V2000
   69.9310   79.0450   27.9580 O   0  0  0  0  0  0  0  0  0  0  0  0
   69.6090   79.9290   27.0970 C   0  0  0  0  0  0  0  0  0  0  0  0
   68.5100   79.9980   26.4670 O   0  0  0  0  0  0  0  0  0  0  0  0
   70.6560   80.9820   26.8180 C   0  0  0  0  0  0  0  0  0  0  0  0
   70.8430   81.4800   25.5170 C   0  0  0  0  0  0  0  0  0  0  0  0
   71.8090   82.4560   25.2520 C   0  0  0  0  0  0  0  0  0  0  0  0
   72.6050   82.9480   26.2850 C   0  0  0  0  0  0  0  0  0  0  0  0
   72.4340   82.4670   27.5820 C   0  0  0  0  0  0  0  0  0  0  0  0
   71.4680   81.4950   27.8400 C   0  0  0  0  0  0  0  0  0  0  0  0
   71.3530   81.0660   29.1380 O   0  0  0  0  0  0  0  0  0  0  0  0
   70.2204   81.0965   24.6952 H   0  0  0  0  0  0  0  0  0  0  0  0
   71.9406   82.8355   24.2280 H   0  0  0  0  0  0  0  0  0  0  0  0
   73.3664   83.7142   26.0771 H   0  0  0  0  0  0  0  0  0  0  0  0
   73.0596   82.8533   28.4002 H   0  0  0  0  0  0  0  0  0  0  0  0
   71.8440   80.1990   29.1660 H   0  0  0  0  0  0  0  0  0  0  0  0
  1  2  2  0
  2  3  1  0
  2  4  1  0
  4  5  2  0
  5  6  1  0
  6  7  2  0
  7  8  1  0
  8  9  2  0
  9 10  1  0
  9  4  1  0
  5 11  1  0
  6 12  1  0
  7 13  1  0
  8 14  1  0
 10 15  1  0
M  CHG  1   3  -1
M  END
>  <meeko>  (9) 
{"is_sidechain": [false], "free_energy": -4.488, "intermolecular_energy": -4.914, "internal_energy": -0.226}

$$$$
