4w9h_ligand
     RDKit          3D

 65 67  0  0  0  0  0  0  0  0999 V2000
    9.6210   56.2870   95.5550 C   0  0  0  0  0  0  0  0  0  0  0  0
   10.8810   55.7480   94.9340 C   0  0  0  0  0  0  0  0  0  0  0  0
   11.8420   56.4640   94.6760 O   0  0  0  0  0  0  0  0  0  0  0  0
   10.8470   54.3950   94.6780 N   0  0  0  0  0  0  0  0  0  0  0  0
   11.9180   53.7680   93.8970 C   0  0  2  0  0  0  0  0  0  0  0  0
   11.3820   53.7100   92.4420 C   0  0  0  0  0  0  0  0  0  0  0  0
   10.2100   53.3810   92.2130 O   0  0  0  0  0  0  0  0  0  0  0  0
   12.2360   54.0170   91.4060 N   0  0  0  0  0  0  0  0  0  0  0  0
   13.5910   54.5360   91.5240 C   0  0  0  0  0  0  0  0  0  0  0  0
   14.0670   54.7450   90.0860 C   0  0  2  0  0  0  0  0  0  0  0  0
   14.9860   55.8160   89.9610 O   0  0  0  0  0  0  0  0  0  0  0  0
   12.7680   55.0770   89.3580 C   0  0  0  0  0  0  0  0  0  0  0  0
   11.7470   54.1610   90.0280 C   0  0  1  0  0  0  0  0  0  0  0  0
   11.6560   52.7800   89.3450 C   0  0  0  0  0  0  0  0  0  0  0  0
   12.2540   51.7860   89.7500 O   0  0  0  0  0  0  0  0  0  0  0  0
   10.8440   52.7680   88.2310 N   0  0  0  0  0  0  0  0  0  0  0  0
   10.5510   51.5590   87.5030 C   0  0  0  0  0  0  0  0  0  0  0  0
   11.3970   51.4440   86.2610 C   0  0  0  0  0  0  0  0  0  0  0  0
   11.5720   50.2020   85.6360 C   0  0  0  0  0  0  0  0  0  0  0  0
   12.3450   50.0920   84.4760 C   0  0  0  0  0  0  0  0  0  0  0  0
   12.9510   51.2200   83.9100 C   0  0  0  0  0  0  0  0  0  0  0  0
   13.7510   51.0930   82.6880 C   0  0  0  0  0  0  0  0  0  0  0  0
   13.1340   50.2210   81.3370 S   0  0  0  0  0  0  0  0  0  0  0  0
   14.5560   50.5830   80.4610 C   0  0  0  0  0  0  0  0  0  0  0  0
   15.4570   51.3010   81.0900 N   0  0  0  0  0  0  0  0  0  0  0  0
   15.0050   51.6020   82.3680 C   0  0  0  0  0  0  0  0  0  0  0  0
   15.8980   52.4160   83.2360 C   0  0  0  0  0  0  0  0  0  0  0  0
   12.7630   52.4630   84.5290 C   0  0  0  0  0  0  0  0  0  0  0  0
   11.9950   52.5750   85.6930 C   0  0  0  0  0  0  0  0  0  0  0  0
   12.3180   52.3700   94.4670 C   0  0  0  0  0  0  0  0  0  0  0  0
   13.3170   52.5310   95.6290 C   0  0  0  0  0  0  0  0  0  0  0  0
   12.9460   51.4440   93.4090 C   0  0  0  0  0  0  0  0  0  0  0  0
   11.0590   51.6730   95.0260 C   0  0  0  0  0  0  0  0  0  0  0  0
    9.7075   56.2500   96.6510 H   0  0  0  0  0  0  0  0  0  0  0  0
    9.4704   57.3283   95.2340 H   0  0  0  0  0  0  0  0  0  0  0  0
    8.7639   55.6768   95.2340 H   0  0  0  0  0  0  0  0  0  0  0  0
    9.9260   53.9880   94.5580 H   0  0  0  0  0  0  0  0  0  0  0  0
   12.8538   54.3444   93.9428 H   0  0  0  0  0  0  0  0  0  0  0  0
   13.5925   55.4891   92.0732 H   0  0  0  0  0  0  0  0  0  0  0  0
   14.2474   53.8493   92.0786 H   0  0  0  0  0  0  0  0  0  0  0  0
   14.6049   53.8694   89.6936 H   0  0  0  0  0  0  0  0  0  0  0  0
   14.8400   56.2340   89.0960 H   0  0  0  0  0  0  0  0  0  0  0  0
   12.4985   56.1346   89.4951 H   0  0  0  0  0  0  0  0  0  0  0  0
   12.8332   54.9267   88.2703 H   0  0  0  0  0  0  0  0  0  0  0  0
   10.7332   54.5834   89.9673 H   0  0  0  0  0  0  0  0  0  0  0  0
   10.2550   53.5850   88.0710 H   0  0  0  0  0  0  0  0  0  0  0  0
   10.7497   50.6936   88.1523 H   0  0  0  0  0  0  0  0  0  0  0  0
    9.4940   51.5861   87.1996 H   0  0  0  0  0  0  0  0  0  0  0  0
   11.0971   49.3058   86.0617 H   0  0  0  0  0  0  0  0  0  0  0  0
   12.4785   49.1080   84.0028 H   0  0  0  0  0  0  0  0  0  0  0  0
   14.7076   50.2342   79.4288 H   0  0  0  0  0  0  0  0  0  0  0  0
   15.6709   52.2090   84.2922 H   0  0  0  0  0  0  0  0  0  0  0  0
   16.9467   52.1567   83.0288 H   0  0  0  0  0  0  0  0  0  0  0  0
   15.7366   53.4842   83.0288 H   0  0  0  0  0  0  0  0  0  0  0  0
   13.2249   53.3617   84.0944 H   0  0  0  0  0  0  0  0  0  0  0  0
   11.8601   53.5592   86.1654 H   0  0  0  0  0  0  0  0  0  0  0  0
   12.7826   52.4449   96.5866 H   0  0  0  0  0  0  0  0  0  0  0  0
   14.0837   51.7448   95.5650 H   0  0  0  0  0  0  0  0  0  0  0  0
   13.7979   53.5182   95.5650 H   0  0  0  0  0  0  0  0  0  0  0  0
   13.4955   50.6338   93.9106 H   0  0  0  0  0  0  0  0  0  0  0  0
   12.1522   51.0143   92.7803 H   0  0  0  0  0  0  0  0  0  0  0  0
   13.6389   52.0225   92.7803 H   0  0  0  0  0  0  0  0  0  0  0  0
   11.0885   51.6893   96.1255 H   0  0  0  0  0  0  0  0  0  0  0  0
   10.1607   52.2023   94.6754 H   0  0  0  0  0  0  0  0  0  0  0  0
   11.0307   50.6308   94.6754 H   0  0  0  0  0  0  0  0  0  0  0  0
  1  2  1  0
  2  3  2  0
  2  4  1  0
  4  5  1  0
  5  6  1  0
  6  7  2  0
  6  8  1  0
  8  9  1  0
  9 10  1  0
 10 11  1  0
 10 12  1  0
 12 13  1  0
 13 14  1  0
 14 15  2  0
 14 16  1  0
 16 17  1  0
 17 18  1  0
 18 19  2  0
 19 20  1  0
 20 21  2  0
 21 22  1  0
 22 23  1  0
 23 24  1  0
 24 25  2  0
 25 26  1  0
 26 27  1  0
 21 28  1  0
 28 29  2  0
  5 30  1  0
 30 31  1  0
 30 32  1  0
 30 33  1  0
 13  8  1  0
 29 18  1  0
 26 22  2  0
  1 34  1  0
  1 35  1  0
  1 36  1  0
  4 37  1  0
  5 38  1  6
  9 39  1  0
  9 40  1  0
 10 41  1  6
 11 42  1  0
 12 43  1  0
 12 44  1  0
 13 45  1  1
 16 46  1  0
 17 47  1  0
 17 48  1  0
 19 49  1  0
 20 50  1  0
 24 51  1  0
 27 52  1  0
 27 53  1  0
 27 54  1  0
 28 55  1  0
 29 56  1  0
 31 57  1  0
 31 58  1  0
 31 59  1  0
 32 60  1  0
 32 61  1  0
 32 62  1  0
 33 63  1  0
 33 64  1  0
 33 65  1  0
M  END
>  <meeko>  (1) 
{"is_sidechain": [false], "free_energy": -8.341, "intermolecular_energy": -12.486, "internal_energy": -1.191}

$$$$
4w9h_ligand
     RDKit          3D

 65 67  0  0  0  0  0  0  0  0999 V2000
    8.2450   51.3110   92.1300 C   0  0  0  0  0  0  0  0  0  0  0  0
    8.9550   52.6340   92.2200 C   0  0  0  0  0  0  0  0  0  0  0  0
    8.6290   53.6010   91.5400 O   0  0  0  0  0  0  0  0  0  0  0  0
    9.9980   52.6520   93.1190 N   0  0  0  0  0  0  0  0  0  0  0  0
   10.9040   53.8030   93.1720 C   0  0  2  0  0  0  0  0  0  0  0  0
   12.2760   53.2670   92.6840 C   0  0  0  0  0  0  0  0  0  0  0  0
   12.9000   52.4310   93.3520 O   0  0  0  0  0  0  0  0  0  0  0  0
   12.7960   53.7460   91.5030 N   0  0  0  0  0  0  0  0  0  0  0  0
   14.1200   54.3210   91.3090 C   0  0  0  0  0  0  0  0  0  0  0  0
   14.1660   54.7330   89.8370 C   0  0  2  0  0  0  0  0  0  0  0  0
   14.9920   55.8610   89.6080 O   0  0  0  0  0  0  0  0  0  0  0  0
   12.7080   55.0790   89.5500 C   0  0  0  0  0  0  0  0  0  0  0  0
   11.9350   54.0320   90.3470 C   0  0  1  0  0  0  0  0  0  0  0  0
   11.6810   52.7430   89.5370 C   0  0  0  0  0  0  0  0  0  0  0  0
   12.2690   51.6860   89.7500 O   0  0  0  0  0  0  0  0  0  0  0  0
   10.7350   52.8930   88.5460 N   0  0  0  0  0  0  0  0  0  0  0  0
   10.2840   51.7880   87.7370 C   0  0  0  0  0  0  0  0  0  0  0  0
   11.1290   51.6300   86.4990 C   0  0  0  0  0  0  0  0  0  0  0  0
   11.4810   50.3540   86.0400 C   0  0  0  0  0  0  0  0  0  0  0  0
   12.2540   50.2010   84.8850 C   0  0  0  0  0  0  0  0  0  0  0  0
   12.6820   51.3180   84.1570 C   0  0  0  0  0  0  0  0  0  0  0  0
   13.4840   51.1450   82.9420 C   0  0  0  0  0  0  0  0  0  0  0  0
   12.8640   50.2290   81.6210 S   0  0  0  0  0  0  0  0  0  0  0  0
   14.2890   50.5530   80.7360 C   0  0  0  0  0  0  0  0  0  0  0  0
   15.1920   51.2890   81.3410 N   0  0  0  0  0  0  0  0  0  0  0  0
   14.7410   51.6370   82.6070 C   0  0  0  0  0  0  0  0  0  0  0  0
   15.6360   52.4760   83.4480 C   0  0  0  0  0  0  0  0  0  0  0  0
   12.3170   52.5930   84.6110 C   0  0  0  0  0  0  0  0  0  0  0  0
   11.5490   52.7490   85.7700 C   0  0  0  0  0  0  0  0  0  0  0  0
   10.9580   54.4430   94.5960 C   0  0  0  0  0  0  0  0  0  0  0  0
   12.0940   55.4800   94.6750 C   0  0  0  0  0  0  0  0  0  0  0  0
   11.1650   53.4060   95.7160 C   0  0  0  0  0  0  0  0  0  0  0  0
    9.6300   55.1820   94.8680 C   0  0  0  0  0  0  0  0  0  0  0  0
    8.0426   50.9338   93.1433 H   0  0  0  0  0  0  0  0  0  0  0  0
    7.2952   51.4405   91.5904 H   0  0  0  0  0  0  0  0  0  0  0  0
    8.8780   50.5911   91.5904 H   0  0  0  0  0  0  0  0  0  0  0  0
   10.4230   51.7540   93.3260 H   0  0  0  0  0  0  0  0  0  0  0  0
   10.5601   54.6277   92.5304 H   0  0  0  0  0  0  0  0  0  0  0  0
   14.2592   55.1971   91.9594 H   0  0  0  0  0  0  0  0  0  0  0  0
   14.9189   53.6084   91.5618 H   0  0  0  0  0  0  0  0  0  0  0  0
   14.5872   53.9446   89.1959 H   0  0  0  0  0  0  0  0  0  0  0  0
   14.5660   56.6310   90.0210 H   0  0  0  0  0  0  0  0  0  0  0  0
   12.4683   56.0948   89.8975 H   0  0  0  0  0  0  0  0  0  0  0  0
   12.4663   55.0679   88.4770 H   0  0  0  0  0  0  0  0  0  0  0  0
   10.9375   54.4015   90.6270 H   0  0  0  0  0  0  0  0  0  0  0  0
   10.1770   53.7470   88.5550 H   0  0  0  0  0  0  0  0  0  0  0  0
   10.3422   50.8634   88.3301 H   0  0  0  0  0  0  0  0  0  0  0  0
    9.2483   51.9881   87.4252 H   0  0  0  0  0  0  0  0  0  0  0  0
   11.1461   49.4643   86.5934 H   0  0  0  0  0  0  0  0  0  0  0  0
   12.5290   49.1919   84.5444 H   0  0  0  0  0  0  0  0  0  0  0  0
   14.4411   50.1669   79.7173 H   0  0  0  0  0  0  0  0  0  0  0  0
   15.4288   52.2818   84.5107 H   0  0  0  0  0  0  0  0  0  0  0  0
   16.6848   52.2281   83.2276 H   0  0  0  0  0  0  0  0  0  0  0  0
   15.4563   53.5386   83.2276 H   0  0  0  0  0  0  0  0  0  0  0  0
   12.6385   53.4822   84.0489 H   0  0  0  0  0  0  0  0  0  0  0  0
   11.2733   53.7579   86.1108 H   0  0  0  0  0  0  0  0  0  0  0  0
   12.3252   55.6910   95.7295 H   0  0  0  0  0  0  0  0  0  0  0  0
   12.9896   55.0815   94.1759 H   0  0  0  0  0  0  0  0  0  0  0  0
   11.7786   56.4081   94.1759 H   0  0  0  0  0  0  0  0  0  0  0  0
   11.0667   53.8986   96.6946 H   0  0  0  0  0  0  0  0  0  0  0  0
   10.4073   52.6136   95.6266 H   0  0  0  0  0  0  0  0  0  0  0  0
   12.1689   52.9652   95.6266 H   0  0  0  0  0  0  0  0  0  0  0  0
    9.4743   55.2687   95.9535 H   0  0  0  0  0  0  0  0  0  0  0  0
    9.6715   56.1867   94.4222 H   0  0  0  0  0  0  0  0  0  0  0  0
    8.7981   54.6171   94.4222 H   0  0  0  0  0  0  0  0  0  0  0  0
  1  2  1  0
  2  3  2  0
  2  4  1  0
  4  5  1  0
  5  6  1  0
  6  7  2  0
  6  8  1  0
  8  9  1  0
  9 10  1  0
 10 11  1  0
 10 12  1  0
 12 13  1  0
 13 14  1  0
 14 15  2  0
 14 16  1  0
 16 17  1  0
 17 18  1  0
 18 19  2  0
 19 20  1  0
 20 21  2  0
 21 22  1  0
 22 23  1  0
 23 24  1  0
 24 25  2  0
 25 26  1  0
 26 27  1  0
 21 28  1  0
 28 29  2  0
  5 30  1  0
 30 31  1  0
 30 32  1  0
 30 33  1  0
 13  8  1  0
 29 18  1  0
 26 22  2  0
  1 34  1  0
  1 35  1  0
  1 36  1  0
  4 37  1  0
  5 38  1  6
  9 39  1  0
  9 40  1  0
 10 41  1  6
 11 42  1  0
 12 43  1  0
 12 44  1  0
 13 45  1  1
 16 46  1  0
 17 47  1  0
 17 48  1  0
 19 49  1  0
 20 50  1  0
 24 51  1  0
 27 52  1  0
 27 53  1  0
 27 54  1  0
 28 55  1  0
 29 56  1  0
 31 57  1  0
 31 58  1  0
 31 59  1  0
 32 60  1  0
 32 61  1  0
 32 62  1  0
 33 63  1  0
 33 64  1  0
 33 65  1  0
M  END
>  <meeko>  (2) 
{"is_sidechain": [false], "free_energy": -7.94, "intermolecular_energy": -11.559, "internal_energy": -1.517}

$$$$
4w9h_ligand
     RDKit          3D

 65 67  0  0  0  0  0  0  0  0999 V2000
   13.2810   49.3660   92.2110 C   0  0  0  0  0  0  0  0  0  0  0  0
   12.3250   50.1250   93.0910 C   0  0  0  0  0  0  0  0  0  0  0  0
   11.4860   49.5620   93.7860 O   0  0  0  0  0  0  0  0  0  0  0  0
   12.4740   51.4930   93.0340 N   0  0  0  0  0  0  0  0  0  0  0  0
   11.4900   52.3680   93.6780 C   0  0  2  0  0  0  0  0  0  0  0  0
   11.1120   53.4210   92.6040 C   0  0  0  0  0  0  0  0  0  0  0  0
   10.0030   53.9720   92.6230 O   0  0  0  0  0  0  0  0  0  0  0  0
   12.0250   53.7230   91.6190 N   0  0  0  0  0  0  0  0  0  0  0  0
   13.3830   54.2100   91.8150 C   0  0  0  0  0  0  0  0  0  0  0  0
   13.9380   54.4300   90.4070 C   0  0  2  0  0  0  0  0  0  0  0  0
   14.8850   55.4820   90.3470 O   0  0  0  0  0  0  0  0  0  0  0  0
   12.6870   54.8000   89.6180 C   0  0  0  0  0  0  0  0  0  0  0  0
   11.6120   53.8980   90.2190 C   0  0  1  0  0  0  0  0  0  0  0  0
   11.5270   52.5290   89.5110 C   0  0  0  0  0  0  0  0  0  0  0  0
   12.2010   51.5560   89.8410 O   0  0  0  0  0  0  0  0  0  0  0  0
   10.6280   52.5040   88.4670 N   0  0  0  0  0  0  0  0  0  0  0  0
   10.3310   51.2980   87.7340 C   0  0  0  0  0  0  0  0  0  0  0  0
   11.1350   51.2130   86.4620 C   0  0  0  0  0  0  0  0  0  0  0  0
   11.5150   52.3800   85.7860 C   0  0  0  0  0  0  0  0  0  0  0  0
   12.2720   52.3090   84.6130 C   0  0  0  0  0  0  0  0  0  0  0  0
   12.6750   51.0710   84.0960 C   0  0  0  0  0  0  0  0  0  0  0  0
   13.4780   51.0090   82.8700 C   0  0  0  0  0  0  0  0  0  0  0  0
   12.9430   50.0620   81.5350 S   0  0  0  0  0  0  0  0  0  0  0  0
   14.3180   50.5520   80.6450 C   0  0  0  0  0  0  0  0  0  0  0  0
   15.1460   51.3650   81.2600 N   0  0  0  0  0  0  0  0  0  0  0  0
   14.6730   51.6360   82.5370 C   0  0  0  0  0  0  0  0  0  0  0  0
   15.4850   52.5460   83.3890 C   0  0  0  0  0  0  0  0  0  0  0  0
   12.3060   49.9070   84.7820 C   0  0  0  0  0  0  0  0  0  0  0  0
   11.5430   49.9760   85.9530 C   0  0  0  0  0  0  0  0  0  0  0  0
   12.0390   52.9960   94.9980 C   0  0  0  0  0  0  0  0  0  0  0  0
   11.2980   52.4170   96.2180 C   0  0  0  0  0  0  0  0  0  0  0  0
   11.9120   54.5310   95.0340 C   0  0  0  0  0  0  0  0  0  0  0  0
   13.5340   52.6370   95.1450 C   0  0  0  0  0  0  0  0  0  0  0  0
   13.9889   48.8040   92.8378 H   0  0  0  0  0  0  0  0  0  0  0  0
   12.7180   48.6662   91.5759 H   0  0  0  0  0  0  0  0  0  0  0  0
   13.8349   50.0730   91.5759 H   0  0  0  0  0  0  0  0  0  0  0  0
   12.8920   51.8600   92.1850 H   0  0  0  0  0  0  0  0  0  0  0  0
   10.5982   51.8138   94.0059 H   0  0  0  0  0  0  0  0  0  0  0  0
   13.3763   55.1545   92.3788 H   0  0  0  0  0  0  0  0  0  0  0  0
   13.9947   53.5004   92.3915 H   0  0  0  0  0  0  0  0  0  0  0  0
   14.4773   53.5489   90.0292 H   0  0  0  0  0  0  0  0  0  0  0  0
   15.6430   55.2320   90.9020 H   0  0  0  0  0  0  0  0  0  0  0  0
   12.4334   55.8613   89.7567 H   0  0  0  0  0  0  0  0  0  0  0  0
   12.8065   54.6627   88.5332 H   0  0  0  0  0  0  0  0  0  0  0  0
   10.6123   54.3442   90.1116 H   0  0  0  0  0  0  0  0  0  0  0  0
    9.9920   53.2960   88.3760 H   0  0  0  0  0  0  0  0  0  0  0  0
   10.5674   50.4287   88.3651 H   0  0  0  0  0  0  0  0  0  0  0  0
    9.2638   51.3097   87.4678 H   0  0  0  0  0  0  0  0  0  0  0  0
   11.2148   53.3613   86.1821 H   0  0  0  0  0  0  0  0  0  0  0  0
   12.5542   53.2349   84.0905 H   0  0  0  0  0  0  0  0  0  0  0  0
   14.4988   50.2062   79.6165 H   0  0  0  0  0  0  0  0  0  0  0  0
   15.2897   52.3271   84.4492 H   0  0  0  0  0  0  0  0  0  0  0  0
   16.5530   52.3939   83.1739 H   0  0  0  0  0  0  0  0  0  0  0  0
   15.2127   53.5898   83.1739 H   0  0  0  0  0  0  0  0  0  0  0  0
   12.6199   48.9262   84.3954 H   0  0  0  0  0  0  0  0  0  0  0  0
   11.2621   49.0505   86.4770 H   0  0  0  0  0  0  0  0  0  0  0  0
   11.7689   52.7849   97.1415 H   0  0  0  0  0  0  0  0  0  0  0  0
   10.2450   52.7340   96.1918 H   0  0  0  0  0  0  0  0  0  0  0  0
   11.3510   51.3186   96.1918 H   0  0  0  0  0  0  0  0  0  0  0  0
   11.8838   54.8722   96.0794 H   0  0  0  0  0  0  0  0  0  0  0  0
   12.7759   54.9824   94.5242 H   0  0  0  0  0  0  0  0  0  0  0  0
   10.9857   54.8343   94.5242 H   0  0  0  0  0  0  0  0  0  0  0  0
   13.7929   52.5748   96.2123 H   0  0  0  0  0  0  0  0  0  0  0  0
   13.7272   51.6669   94.6637 H   0  0  0  0  0  0  0  0  0  0  0  0
   14.1466   53.4136   94.6637 H   0  0  0  0  0  0  0  0  0  0  0  0
  1  2  1  0
  2  3  2  0
  2  4  1  0
  4  5  1  0
  5  6  1  0
  6  7  2  0
  6  8  1  0
  8  9  1  0
  9 10  1  0
 10 11  1  0
 10 12  1  0
 12 13  1  0
 13 14  1  0
 14 15  2  0
 14 16  1  0
 16 17  1  0
 17 18  1  0
 18 19  2  0
 19 20  1  0
 20 21  2  0
 21 22  1  0
 22 23  1  0
 23 24  1  0
 24 25  2  0
 25 26  1  0
 26 27  1  0
 21 28  1  0
 28 29  2  0
  5 30  1  0
 30 31  1  0
 30 32  1  0
 30 33  1  0
 13  8  1  0
 29 18  1  0
 26 22  2  0
  1 34  1  0
  1 35  1  0
  1 36  1  0
  4 37  1  0
  5 38  1  1
  9 39  1  0
  9 40  1  0
 10 41  1  6
 11 42  1  0
 12 43  1  0
 12 44  1  0
 13 45  1  1
 16 46  1  0
 17 47  1  0
 17 48  1  0
 19 49  1  0
 20 50  1  0
 24 51  1  0
 27 52  1  0
 27 53  1  0
 27 54  1  0
 28 55  1  0
 29 56  1  0
 31 57  1  0
 31 58  1  0
 31 59  1  0
 32 60  1  0
 32 61  1  0
 32 62  1  0
 33 63  1  0
 33 64  1  0
 33 65  1  0
M  END
>  <meeko>  (3) 
{"is_sidechain": [false], "free_energy": -7.338, "intermolecular_energy": -11.006, "internal_energy": -1.169}

$$$$
4w9h_ligand
     RDKit          3D

 65 67  0  0  0  0  0  0  0  0999 V2000
   14.1260   51.2260   95.5750 C   0  0  0  0  0  0  0  0  0  0  0  0
   13.4960   51.2230   94.2080 C   0  0  0  0  0  0  0  0  0  0  0  0
   14.0490   50.7280   93.2320 O   0  0  0  0  0  0  0  0  0  0  0  0
   12.2610   51.8310   94.1580 N   0  0  0  0  0  0  0  0  0  0  0  0
   11.6170   52.0810   92.8650 C   0  0  2  0  0  0  0  0  0  0  0  0
   11.8360   53.5910   92.5840 C   0  0  0  0  0  0  0  0  0  0  0  0
   11.3510   54.4500   93.3340 O   0  0  0  0  0  0  0  0  0  0  0  0
   12.5670   53.9630   91.4790 N   0  0  0  0  0  0  0  0  0  0  0  0
   13.9400   54.4490   91.4710 C   0  0  0  0  0  0  0  0  0  0  0  0
   14.2460   54.7610   90.0050 C   0  0  2  0  0  0  0  0  0  0  0  0
   15.1700   55.8240   89.8510 O   0  0  0  0  0  0  0  0  0  0  0  0
   12.8780   55.1690   89.4660 C   0  0  0  0  0  0  0  0  0  0  0  0
   11.9210   54.2210   90.1840 C   0  0  1  0  0  0  0  0  0  0  0  0
   11.7140   52.8980   89.4160 C   0  0  0  0  0  0  0  0  0  0  0  0
   12.2770   51.8490   89.7170 O   0  0  0  0  0  0  0  0  0  0  0  0
   10.8430   53.0090   88.3540 N   0  0  0  0  0  0  0  0  0  0  0  0
   10.4420   51.8710   87.5640 C   0  0  0  0  0  0  0  0  0  0  0  0
   11.3100   51.7150   86.3420 C   0  0  0  0  0  0  0  0  0  0  0  0
   12.0120   52.8130   85.8280 C   0  0  0  0  0  0  0  0  0  0  0  0
   12.8290   52.6720   84.7020 C   0  0  0  0  0  0  0  0  0  0  0  0
   12.9710   51.4290   84.0720 C   0  0  0  0  0  0  0  0  0  0  0  0
   13.8380   51.2910   82.8980 C   0  0  0  0  0  0  0  0  0  0  0  0
   15.3760   52.0670   82.8640 S   0  0  0  0  0  0  0  0  0  0  0  0
   15.6680   51.4050   81.3150 C   0  0  0  0  0  0  0  0  0  0  0  0
   14.7150   50.6510   80.8180 N   0  0  0  0  0  0  0  0  0  0  0  0
   13.6600   50.5770   81.7190 C   0  0  0  0  0  0  0  0  0  0  0  0
   12.4800   49.7600   81.3260 C   0  0  0  0  0  0  0  0  0  0  0  0
   12.2780   50.3300   84.5970 C   0  0  0  0  0  0  0  0  0  0  0  0
   11.4560   50.4700   85.7200 C   0  0  0  0  0  0  0  0  0  0  0  0
   10.1120   51.6620   92.8690 C   0  0  0  0  0  0  0  0  0  0  0  0
    9.2710   52.6760   92.0720 C   0  0  0  0  0  0  0  0  0  0  0  0
    9.5220   51.5470   94.2870 C   0  0  0  0  0  0  0  0  0  0  0  0
    9.9680   50.2890   92.1790 C   0  0  0  0  0  0  0  0  0  0  0  0
   13.3376   51.2222   96.3421 H   0  0  0  0  0  0  0  0  0  0  0  0
   14.7547   50.3308   95.6910 H   0  0  0  0  0  0  0  0  0  0  0  0
   14.7461   52.1271   95.6910 H   0  0  0  0  0  0  0  0  0  0  0  0
   12.0760   52.5220   94.8770 H   0  0  0  0  0  0  0  0  0  0  0  0
   12.0544   51.4704   92.0614 H   0  0  0  0  0  0  0  0  0  0  0  0
   14.0316   55.3565   92.0859 H   0  0  0  0  0  0  0  0  0  0  0  0
   14.6401   53.7108   91.8892 H   0  0  0  0  0  0  0  0  0  0  0  0
   14.7108   53.9099   89.4858 H   0  0  0  0  0  0  0  0  0  0  0  0
   14.7500   56.6350   90.1860 H   0  0  0  0  0  0  0  0  0  0  0  0
   12.6537   56.2172   89.7131 H   0  0  0  0  0  0  0  0  0  0  0  0
   12.8094   55.1016   88.3702 H   0  0  0  0  0  0  0  0  0  0  0  0
   10.9183   54.6636   90.2775 H   0  0  0  0  0  0  0  0  0  0  0  0
   10.2930   53.8650   88.2850 H   0  0  0  0  0  0  0  0  0  0  0  0
   10.5232   50.9624   88.1787 H   0  0  0  0  0  0  0  0  0  0  0  0
    9.4047   52.0280   87.2334 H   0  0  0  0  0  0  0  0  0  0  0  0
   11.9196   53.7951   86.3147 H   0  0  0  0  0  0  0  0  0  0  0  0
   13.3661   53.5468   84.3066 H   0  0  0  0  0  0  0  0  0  0  0  0
   16.6011   51.5997   80.7661 H   0  0  0  0  0  0  0  0  0  0  0  0
   11.9641   49.4028   82.2294 H   0  0  0  0  0  0  0  0  0  0  0  0
   11.7906   50.3751   80.7290 H   0  0  0  0  0  0  0  0  0  0  0  0
   12.8131   48.8982   80.7290 H   0  0  0  0  0  0  0  0  0  0  0  0
   12.3818   49.3444   84.1197 H   0  0  0  0  0  0  0  0  0  0  0  0
   10.9204   49.5951   86.1171 H   0  0  0  0  0  0  0  0  0  0  0  0
    8.7280   53.3307   92.7695 H   0  0  0  0  0  0  0  0  0  0  0  0
    9.9334   53.2842   91.4385 H   0  0  0  0  0  0  0  0  0  0  0  0
    8.5508   52.1375   91.4385 H   0  0  0  0  0  0  0  0  0  0  0  0
   10.3187   51.7023   95.0294 H   0  0  0  0  0  0  0  0  0  0  0  0
    8.7411   52.3098   94.4222 H   0  0  0  0  0  0  0  0  0  0  0  0
    9.0848   50.5467   94.4222 H   0  0  0  0  0  0  0  0  0  0  0  0
    9.8854   49.5017   92.9427 H   0  0  0  0  0  0  0  0  0  0  0  0
    9.0647   50.2871   91.5512 H   0  0  0  0  0  0  0  0  0  0  0  0
   10.8512   50.0997   91.5512 H   0  0  0  0  0  0  0  0  0  0  0  0
  1  2  1  0
  2  3  2  0
  2  4  1  0
  4  5  1  0
  5  6  1  0
  6  7  2  0
  6  8  1  0
  8  9  1  0
  9 10  1  0
 10 11  1  0
 10 12  1  0
 12 13  1  0
 13 14  1  0
 14 15  2  0
 14 16  1  0
 16 17  1  0
 17 18  1  0
 18 19  2  0
 19 20  1  0
 20 21  2  0
 21 22  1  0
 22 23  1  0
 23 24  1  0
 24 25  2  0
 25 26  1  0
 26 27  1  0
 21 28  1  0
 28 29  2  0
  5 30  1  0
 30 31  1  0
 30 32  1  0
 30 33  1  0
 13  8  1  0
 29 18  1  0
 26 22  2  0
  1 34  1  0
  1 35  1  0
  1 36  1  0
  4 37  1  0
  5 38  1  6
  9 39  1  0
  9 40  1  0
 10 41  1  6
 11 42  1  0
 12 43  1  0
 12 44  1  0
 13 45  1  1
 16 46  1  0
 17 47  1  0
 17 48  1  0
 19 49  1  0
 20 50  1  0
 24 51  1  0
 27 52  1  0
 27 53  1  0
 27 54  1  0
 28 55  1  0
 29 56  1  0
 31 57  1  0
 31 58  1  0
 31 59  1  0
 32 60  1  0
 32 61  1  0
 32 62  1  0
 33 63  1  0
 33 64  1  0
 33 65  1  0
M  END
>  <meeko>  (4) 
{"is_sidechain": [false], "free_energy": -7.306, "intermolecular_energy": -11.11, "internal_energy": -1.017}

$$$$
4w9h_ligand
     RDKit          3D

 65 67  0  0  0  0  0  0  0  0999 V2000
   15.7950   51.1090   82.1320 C   0  0  0  0  0  0  0  0  0  0  0  0
   14.5390   51.6830   82.7290 C   0  0  0  0  0  0  0  0  0  0  0  0
   14.5270   52.7540   83.3280 O   0  0  0  0  0  0  0  0  0  0  0  0
   13.4220   50.8980   82.5510 N   0  0  0  0  0  0  0  0  0  0  0  0
   12.1730   51.2260   83.2460 C   0  0  2  0  0  0  0  0  0  0  0  0
   12.2310   50.4450   84.5840 C   0  0  0  0  0  0  0  0  0  0  0  0
   12.8880   49.3990   84.6760 O   0  0  0  0  0  0  0  0  0  0  0  0
   11.5290   50.9250   85.6660 N   0  0  0  0  0  0  0  0  0  0  0  0
   10.7680   50.1370   86.6260 C   0  0  0  0  0  0  0  0  0  0  0  0
   10.1520   51.1570   87.5830 C   0  0  2  0  0  0  0  0  0  0  0  0
    8.9070   50.7340   88.1110 O   0  0  0  0  0  0  0  0  0  0  0  0
    9.9570   52.3730   86.6840 C   0  0  0  0  0  0  0  0  0  0  0  0
   11.1960   52.3510   85.7910 C   0  0  1  0  0  0  0  0  0  0  0  0
   12.3800   53.1260   86.4070 C   0  0  0  0  0  0  0  0  0  0  0  0
   13.3280   53.5460   85.7470 O   0  0  0  0  0  0  0  0  0  0  0  0
   12.2780   53.2960   87.7710 N   0  0  0  0  0  0  0  0  0  0  0  0
   13.2320   54.0710   88.5250 C   0  0  0  0  0  0  0  0  0  0  0  0
   12.9310   54.0300   90.0010 C   0  0  0  0  0  0  0  0  0  0  0  0
   11.7170   53.5050   90.4620 C   0  0  0  0  0  0  0  0  0  0  0  0
   11.4380   53.4520   91.8310 C   0  0  0  0  0  0  0  0  0  0  0  0
   12.3700   53.9110   92.7700 C   0  0  0  0  0  0  0  0  0  0  0  0
   12.0700   53.8410   94.2030 C   0  0  0  0  0  0  0  0  0  0  0  0
   12.1680   52.3350   95.0330 S   0  0  0  0  0  0  0  0  0  0  0  0
   11.7390   53.1180   96.4910 C   0  0  0  0  0  0  0  0  0  0  0  0
   11.5280   54.4110   96.4130 N   0  0  0  0  0  0  0  0  0  0  0  0
   11.7170   54.8380   95.1050 C   0  0  0  0  0  0  0  0  0  0  0  0
   11.5210   56.2860   94.8220 C   0  0  0  0  0  0  0  0  0  0  0  0
   13.5900   54.4230   92.3060 C   0  0  0  0  0  0  0  0  0  0  0  0
   13.8680   54.4820   90.9370 C   0  0  0  0  0  0  0  0  0  0  0  0
   10.9150   50.8880   82.3830 C   0  0  0  0  0  0  0  0  0  0  0  0
    9.8790   52.0230   82.4770 C   0  0  0  0  0  0  0  0  0  0  0  0
   10.2350   49.5700   82.8000 C   0  0  0  0  0  0  0  0  0  0  0  0
   11.3380   50.7600   80.9030 C   0  0  0  0  0  0  0  0  0  0  0  0
   16.4754   50.7981   82.9385 H   0  0  0  0  0  0  0  0  0  0  0  0
   15.5406   50.2378   81.5105 H   0  0  0  0  0  0  0  0  0  0  0  0
   16.2873   51.8715   81.5105 H   0  0  0  0  0  0  0  0  0  0  0  0
   13.5920   49.9080   82.4080 H   0  0  0  0  0  0  0  0  0  0  0  0
   12.0769   52.3058   83.4327 H   0  0  0  0  0  0  0  0  0  0  0  0
    9.9809   49.5625   86.1157 H   0  0  0  0  0  0  0  0  0  0  0  0
   11.4011   49.4084   87.1536 H   0  0  0  0  0  0  0  0  0  0  0  0
   10.7839   51.3334   88.4659 H   0  0  0  0  0  0  0  0  0  0  0  0
    8.3840   50.3640   87.3790 H   0  0  0  0  0  0  0  0  0  0  0  0
    9.0385   52.2780   86.0862 H   0  0  0  0  0  0  0  0  0  0  0  0
    9.8482   53.3118   87.2468 H   0  0  0  0  0  0  0  0  0  0  0  0
   10.9997   52.8388   84.8248 H   0  0  0  0  0  0  0  0  0  0  0  0
   11.3830   53.0720   88.2060 H   0  0  0  0  0  0  0  0  0  0  0  0
   14.2392   53.6633   88.3538 H   0  0  0  0  0  0  0  0  0  0  0  0
   13.1713   55.1165   88.1886 H   0  0  0  0  0  0  0  0  0  0  0  0
   10.9761   53.1309   89.7401 H   0  0  0  0  0  0  0  0  0  0  0  0
   10.4754   53.0451   92.1744 H   0  0  0  0  0  0  0  0  0  0  0  0
   11.6452   52.5696   97.4399 H   0  0  0  0  0  0  0  0  0  0  0  0
   11.4463   56.8381   95.7704 H   0  0  0  0  0  0  0  0  0  0  0  0
   12.3760   56.6655   94.2432 H   0  0  0  0  0  0  0  0  0  0  0  0
   10.5959   56.4245   94.2432 H   0  0  0  0  0  0  0  0  0  0  0  0
   14.3378   54.7828   93.0281 H   0  0  0  0  0  0  0  0  0  0  0  0
   14.8311   54.8870   90.5929 H   0  0  0  0  0  0  0  0  0  0  0  0
    9.6750   52.2465   83.5345 H   0  0  0  0  0  0  0  0  0  0  0  0
   10.2743   52.9222   81.9818 H   0  0  0  0  0  0  0  0  0  0  0  0
    8.9476   51.7112   81.9818 H   0  0  0  0  0  0  0  0  0  0  0  0
   10.2019   49.5058   83.8976 H   0  0  0  0  0  0  0  0  0  0  0  0
    9.2106   49.5434   82.4001 H   0  0  0  0  0  0  0  0  0  0  0  0
   10.8070   48.7198   82.4001 H   0  0  0  0  0  0  0  0  0  0  0  0
   12.3896   50.4418   80.8484 H   0  0  0  0  0  0  0  0  0  0  0  0
   10.7027   50.0139   80.4033 H   0  0  0  0  0  0  0  0  0  0  0  0
   11.2230   51.7332   80.4033 H   0  0  0  0  0  0  0  0  0  0  0  0
  1  2  1  0
  2  3  2  0
  2  4  1  0
  4  5  1  0
  5  6  1  0
  6  7  2  0
  6  8  1  0
  8  9  1  0
  9 10  1  0
 10 11  1  0
 10 12  1  0
 12 13  1  0
 13 14  1  0
 14 15  2  0
 14 16  1  0
 16 17  1  0
 17 18  1  0
 18 19  2  0
 19 20  1  0
 20 21  2  0
 21 22  1  0
 22 23  1  0
 23 24  1  0
 24 25  2  0
 25 26  1  0
 26 27  1  0
 21 28  1  0
 28 29  2  0
  5 30  1  0
 30 31  1  0
 30 32  1  0
 30 33  1  0
 13  8  1  0
 29 18  1  0
 26 22  2  0
  1 34  1  0
  1 35  1  0
  1 36  1  0
  4 37  1  0
  5 38  1  1
  9 39  1  0
  9 40  1  0
 10 41  1  1
 11 42  1  0
 12 43  1  0
 12 44  1  0
 13 45  1  6
 16 46  1  0
 17 47  1  0
 17 48  1  0
 19 49  1  0
 20 50  1  0
 24 51  1  0
 27 52  1  0
 27 53  1  0
 27 54  1  0
 28 55  1  0
 29 56  1  0
 31 57  1  0
 31 58  1  0
 31 59  1  0
 32 60  1  0
 32 61  1  0
 32 62  1  0
 33 63  1  0
 33 64  1  0
 33 65  1  0
M  END
>  <meeko>  (5) 
{"is_sidechain": [false], "free_energy": -6.982, "intermolecular_energy": -10.741, "internal_energy": -0.901}

$$$$
4w9h_ligand
     RDKit          3D

 65 67  0  0  0  0  0  0  0  0999 V2000
   14.0090   55.4380   90.3010 C   0  0  0  0  0  0  0  0  0  0  0  0
   13.6870   54.3020   91.2350 C   0  0  0  0  0  0  0  0  0  0  0  0
   14.4560   53.3640   91.4140 O   0  0  0  0  0  0  0  0  0  0  0  0
   12.4600   54.4110   91.8500 N   0  0  0  0  0  0  0  0  0  0  0  0
   11.9250   53.2900   92.6290 C   0  0  2  0  0  0  0  0  0  0  0  0
   10.5330   52.9920   92.0130 C   0  0  0  0  0  0  0  0  0  0  0  0
    9.5430   53.6610   92.3380 O   0  0  0  0  0  0  0  0  0  0  0  0
   10.4120   51.9600   91.1100 N   0  0  0  0  0  0  0  0  0  0  0  0
    9.4710   50.8520   91.1810 C   0  0  0  0  0  0  0  0  0  0  0  0
    9.7910   49.9760   89.9690 C   0  0  2  0  0  0  0  0  0  0  0  0
    9.5270   48.6030   90.1980 O   0  0  0  0  0  0  0  0  0  0  0  0
   11.2890   50.2020   89.7900 C   0  0  0  0  0  0  0  0  0  0  0  0
   11.4620   51.6830   90.1190 C   0  0  1  0  0  0  0  0  0  0  0  0
   11.2820   52.5870   88.8810 C   0  0  0  0  0  0  0  0  0  0  0  0
   10.1990   53.0600   88.5430 O   0  0  0  0  0  0  0  0  0  0  0  0
   12.4510   52.8090   88.1870 N   0  0  0  0  0  0  0  0  0  0  0  0
   12.5180   53.6990   87.0540 C   0  0  0  0  0  0  0  0  0  0  0  0
   12.7760   52.9460   85.7750 C   0  0  0  0  0  0  0  0  0  0  0  0
   11.8950   51.9410   85.3560 C   0  0  0  0  0  0  0  0  0  0  0  0
   12.1220   51.2470   84.1630 C   0  0  0  0  0  0  0  0  0  0  0  0
   13.2270   51.5500   83.3580 C   0  0  0  0  0  0  0  0  0  0  0  0
   13.4490   50.8220   82.1050 C   0  0  0  0  0  0  0  0  0  0  0  0
   12.2140   49.8070   81.4640 S   0  0  0  0  0  0  0  0  0  0  0  0
   13.2170   49.4400   80.1290 C   0  0  0  0  0  0  0  0  0  0  0  0
   14.3980   50.0120   80.1180 N   0  0  0  0  0  0  0  0  0  0  0  0
   14.5430   50.8090   81.2460 C   0  0  0  0  0  0  0  0  0  0  0  0
   15.8280   51.5410   81.4070 C   0  0  0  0  0  0  0  0  0  0  0  0
   14.0990   52.5650   83.7740 C   0  0  0  0  0  0  0  0  0  0  0  0
   13.8780   53.2560   84.9690 C   0  0  0  0  0  0  0  0  0  0  0  0
   11.8740   53.6090   94.1570 C   0  0  0  0  0  0  0  0  0  0  0  0
   13.1740   53.1530   94.8440 C   0  0  0  0  0  0  0  0  0  0  0  0
   10.6840   52.9420   94.8730 C   0  0  0  0  0  0  0  0  0  0  0  0
   11.7530   55.1370   94.3500 C   0  0  0  0  0  0  0  0  0  0  0  0
   14.2629   56.3337   90.8869 H   0  0  0  0  0  0  0  0  0  0  0  0
   14.8638   55.1602   89.6668 H   0  0  0  0  0  0  0  0  0  0  0  0
   13.1356   55.6501   89.6668 H   0  0  0  0  0  0  0  0  0  0  0  0
   11.7680   54.9740   91.3660 H   0  0  0  0  0  0  0  0  0  0  0  0
   12.5714   52.4018   92.5719 H   0  0  0  0  0  0  0  0  0  0  0  0
    9.6111   50.2861   92.1138 H   0  0  0  0  0  0  0  0  0  0  0  0
    8.4269   51.1982   91.1739 H   0  0  0  0  0  0  0  0  0  0  0  0
    9.1776   50.2356   89.0936 H   0  0  0  0  0  0  0  0  0  0  0  0
    9.9440   48.3560   91.0410 H   0  0  0  0  0  0  0  0  0  0  0  0
   11.8679   49.5740   90.4832 H   0  0  0  0  0  0  0  0  0  0  0  0
   11.6469   49.9398   88.7834 H   0  0  0  0  0  0  0  0  0  0  0  0
   12.4766   51.8934   90.4881 H   0  0  0  0  0  0  0  0  0  0  0  0
   13.3230   52.5250   88.6330 H   0  0  0  0  0  0  0  0  0  0  0  0
   11.5628   54.2374   86.9654 H   0  0  0  0  0  0  0  0  0  0  0  0
   13.3496   54.4008   87.2151 H   0  0  0  0  0  0  0  0  0  0  0  0
   11.0166   51.6953   85.9708 H   0  0  0  0  0  0  0  0  0  0  0  0
   11.4248   50.4544   83.8537 H   0  0  0  0  0  0  0  0  0  0  0  0
   12.8911   48.7632   79.3254 H   0  0  0  0  0  0  0  0  0  0  0  0
   16.0472   51.6659   82.4777 H   0  0  0  0  0  0  0  0  0  0  0  0
   16.6381   50.9688   80.9312 H   0  0  0  0  0  0  0  0  0  0  0  0
   15.7489   52.5296   80.9312 H   0  0  0  0  0  0  0  0  0  0  0  0
   14.9691   52.8215   83.1519 H   0  0  0  0  0  0  0  0  0  0  0  0
   14.5749   54.0489   85.2782 H   0  0  0  0  0  0  0  0  0  0  0  0
   13.0469   53.1976   95.9357 H   0  0  0  0  0  0  0  0  0  0  0  0
   13.4047   52.1203   94.5436 H   0  0  0  0  0  0  0  0  0  0  0  0
   13.9993   53.8153   94.5436 H   0  0  0  0  0  0  0  0  0  0  0  0
   10.8212   53.0189   95.9617 H   0  0  0  0  0  0  0  0  0  0  0  0
    9.7514   53.4489   94.5843 H   0  0  0  0  0  0  0  0  0  0  0  0
   10.6297   51.8820   94.5843 H   0  0  0  0  0  0  0  0  0  0  0  0
   11.7345   55.3705   95.4248 H   0  0  0  0  0  0  0  0  0  0  0  0
   12.6145   55.6351   93.8813 H   0  0  0  0  0  0  0  0  0  0  0  0
   10.8238   55.4933   93.8813 H   0  0  0  0  0  0  0  0  0  0  0  0
  1  2  1  0
  2  3  2  0
  2  4  1  0
  4  5  1  0
  5  6  1  0
  6  7  2  0
  6  8  1  0
  8  9  1  0
  9 10  1  0
 10 11  1  0
 10 12  1  0
 12 13  1  0
 13 14  1  0
 14 15  2  0
 14 16  1  0
 16 17  1  0
 17 18  1  0
 18 19  2  0
 19 20  1  0
 20 21  2  0
 21 22  1  0
 22 23  1  0
 23 24  1  0
 24 25  2  0
 25 26  1  0
 26 27  1  0
 21 28  1  0
 28 29  2  0
  5 30  1  0
 30 31  1  0
 30 32  1  0
 30 33  1  0
 13  8  1  0
 29 18  1  0
 26 22  2  0
  1 34  1  0
  1 35  1  0
  1 36  1  0
  4 37  1  0
  5 38  1  1
  9 39  1  0
  9 40  1  0
 10 41  1  6
 11 42  1  0
 12 43  1  0
 12 44  1  0
 13 45  1  1
 16 46  1  0
 17 47  1  0
 17 48  1  0
 19 49  1  0
 20 50  1  0
 24 51  1  0
 27 52  1  0
 27 53  1  0
 27 54  1  0
 28 55  1  0
 29 56  1  0
 31 57  1  0
 31 58  1  0
 31 59  1  0
 32 60  1  0
 32 61  1  0
 32 62  1  0
 33 63  1  0
 33 64  1  0
 33 65  1  0
M  END
>  <meeko>  (6) 
{"is_sidechain": [false], "free_energy": -6.834, "intermolecular_energy": -10.66, "internal_energy": -0.761}

$$$$
4w9h_ligand
     RDKit          3D

 65 67  0  0  0  0  0  0  0  0999 V2000
    9.7430   49.2830   93.7910 C   0  0  0  0  0  0  0  0  0  0  0  0
   10.0180   50.7360   93.5150 C   0  0  0  0  0  0  0  0  0  0  0  0
    9.1860   51.4740   92.9970 O   0  0  0  0  0  0  0  0  0  0  0  0
   11.2790   51.1500   93.8840 N   0  0  0  0  0  0  0  0  0  0  0  0
   11.7590   52.4800   93.4980 C   0  0  2  0  0  0  0  0  0  0  0  0
   12.8420   52.2250   92.4170 C   0  0  0  0  0  0  0  0  0  0  0  0
   13.7860   51.4530   92.6380 O   0  0  0  0  0  0  0  0  0  0  0  0
   12.7460   52.8820   91.2110 N   0  0  0  0  0  0  0  0  0  0  0  0
   13.6370   53.9240   90.7180 C   0  0  0  0  0  0  0  0  0  0  0  0
   13.0560   54.3410   89.3670 C   0  0  2  0  0  0  0  0  0  0  0  0
   13.3010   55.7030   89.0600 O   0  0  0  0  0  0  0  0  0  0  0  0
   11.5630   54.1060   89.5670 C   0  0  0  0  0  0  0  0  0  0  0  0
   11.5170   52.8320   90.4070 C   0  0  1  0  0  0  0  0  0  0  0  0
   11.4970   51.5540   89.5400 C   0  0  0  0  0  0  0  0  0  0  0  0
   12.1260   50.5380   89.8230 O   0  0  0  0  0  0  0  0  0  0  0  0
   10.7120   51.6660   88.4130 N   0  0  0  0  0  0  0  0  0  0  0  0
   10.4840   50.5570   87.5200 C   0  0  0  0  0  0  0  0  0  0  0  0
   11.3020   50.6870   86.2600 C   0  0  0  0  0  0  0  0  0  0  0  0
   11.6530   51.9520   85.7730 C   0  0  0  0  0  0  0  0  0  0  0  0
   12.4220   52.0790   84.6120 C   0  0  0  0  0  0  0  0  0  0  0  0
   12.8670   50.9460   83.9200 C   0  0  0  0  0  0  0  0  0  0  0  0
   13.6820   51.0910   82.7100 C   0  0  0  0  0  0  0  0  0  0  0  0
   15.2000   51.9010   82.7830 S   0  0  0  0  0  0  0  0  0  0  0  0
   15.4330   51.6000   81.1170 C   0  0  0  0  0  0  0  0  0  0  0  0
   14.4740   50.9440   80.5070 N   0  0  0  0  0  0  0  0  0  0  0  0
   13.4640   50.6440   81.4110 C   0  0  0  0  0  0  0  0  0  0  0  0
   12.2830   49.8970   80.8980 C   0  0  0  0  0  0  0  0  0  0  0  0
   12.5250   49.6810   84.4190 C   0  0  0  0  0  0  0  0  0  0  0  0
   11.7500   49.5520   85.5760 C   0  0  0  0  0  0  0  0  0  0  0  0
   12.2850   53.2930   94.7240 C   0  0  0  0  0  0  0  0  0  0  0  0
   12.9810   54.5830   94.2530 C   0  0  0  0  0  0  0  0  0  0  0  0
   13.2720   52.4960   95.5980 C   0  0  0  0  0  0  0  0  0  0  0  0
   11.0870   53.7030   95.6080 C   0  0  0  0  0  0  0  0  0  0  0  0
    9.7114   49.1158   94.8778 H   0  0  0  0  0  0  0  0  0  0  0  0
    8.7758   49.0024   93.3485 H   0  0  0  0  0  0  0  0  0  0  0  0
   10.5408   48.6683   93.3485 H   0  0  0  0  0  0  0  0  0  0  0  0
   11.9890   50.4260   93.9280 H   0  0  0  0  0  0  0  0  0  0  0  0
   10.9512   53.1097   93.0968 H   0  0  0  0  0  0  0  0  0  0  0  0
   13.6530   54.7779   91.4113 H   0  0  0  0  0  0  0  0  0  0  0  0
   14.6744   53.5695   90.6279 H   0  0  0  0  0  0  0  0  0  0  0  0
   13.5023   53.7821   88.5312 H   0  0  0  0  0  0  0  0  0  0  0  0
   14.2010   55.7690   88.7000 H   0  0  0  0  0  0  0  0  0  0  0  0
   11.0999   54.9479   90.1025 H   0  0  0  0  0  0  0  0  0  0  0  0
   11.0107   54.0171   88.6199 H   0  0  0  0  0  0  0  0  0  0  0  0
   10.6002   52.7879   91.0133 H   0  0  0  0  0  0  0  0  0  0  0  0
   10.0940   52.4750   88.3500 H   0  0  0  0  0  0  0  0  0  0  0  0
   10.7606   49.6232   88.0314 H   0  0  0  0  0  0  0  0  0  0  0  0
    9.4197   50.5499   87.2422 H   0  0  0  0  0  0  0  0  0  0  0  0
   11.3209   52.8537   86.3084 H   0  0  0  0  0  0  0  0  0  0  0  0
   12.6803   53.0807   84.2380 H   0  0  0  0  0  0  0  0  0  0  0  0
   16.3356   51.9370   80.5861 H   0  0  0  0  0  0  0  0  0  0  0  0
   11.6901   49.5220   81.7452 H   0  0  0  0  0  0  0  0  0  0  0  0
   11.6630   50.5676   80.2849 H   0  0  0  0  0  0  0  0  0  0  0  0
   12.6232   49.0495   80.2849 H   0  0  0  0  0  0  0  0  0  0  0  0
   12.8707   48.7785   83.8937 H   0  0  0  0  0  0  0  0  0  0  0  0
   11.4909   48.5508   85.9508 H   0  0  0  0  0  0  0  0  0  0  0  0
   13.2974   55.1694   95.1282 H   0  0  0  0  0  0  0  0  0  0  0  0
   13.8619   54.3241   93.6471 H   0  0  0  0  0  0  0  0  0  0  0  0
   12.2810   55.1771   93.6471 H   0  0  0  0  0  0  0  0  0  0  0  0
   13.0491   52.6760   96.6601 H   0  0  0  0  0  0  0  0  0  0  0  0
   13.1715   51.4227   95.3790 H   0  0  0  0  0  0  0  0  0  0  0  0
   14.3001   52.8202   95.3790 H   0  0  0  0  0  0  0  0  0  0  0  0
   11.3642   53.6081   96.6683 H   0  0  0  0  0  0  0  0  0  0  0  0
   10.8125   54.7462   95.3927 H   0  0  0  0  0  0  0  0  0  0  0  0
   10.2309   53.0467   95.3927 H   0  0  0  0  0  0  0  0  0  0  0  0
  1  2  1  0
  2  3  2  0
  2  4  1  0
  4  5  1  0
  5  6  1  0
  6  7  2  0
  6  8  1  0
  8  9  1  0
  9 10  1  0
 10 11  1  0
 10 12  1  0
 12 13  1  0
 13 14  1  0
 14 15  2  0
 14 16  1  0
 16 17  1  0
 17 18  1  0
 18 19  2  0
 19 20  1  0
 20 21  2  0
 21 22  1  0
 22 23  1  0
 23 24  1  0
 24 25  2  0
 25 26  1  0
 26 27  1  0
 21 28  1  0
 28 29  2  0
  5 30  1  0
 30 31  1  0
 30 32  1  0
 30 33  1  0
 13  8  1  0
 29 18  1  0
 26 22  2  0
  1 34  1  0
  1 35  1  0
  1 36  1  0
  4 37  1  0
  5 38  1  6
  9 39  1  0
  9 40  1  0
 10 41  1  6
 11 42  1  0
 12 43  1  0
 12 44  1  0
 13 45  1  1
 16 46  1  0
 17 47  1  0
 17 48  1  0
 19 49  1  0
 20 50  1  0
 24 51  1  0
 27 52  1  0
 27 53  1  0
 27 54  1  0
 28 55  1  0
 29 56  1  0
 31 57  1  0
 31 58  1  0
 31 59  1  0
 32 60  1  0
 32 61  1  0
 32 62  1  0
 33 63  1  0
 33 64  1  0
 33 65  1  0
M  END
>  <meeko>  (7) 
{"is_sidechain": [false], "free_energy": -6.812, "intermolecular_energy": -10.023, "internal_energy": -1.364}

$$$$
4w9h_ligand
     RDKit          3D

 65 67  0  0  0  0  0  0  0  0999 V2000
   13.6230   55.5350   89.9690 C   0  0  0  0  0  0  0  0  0  0  0  0
   13.6270   54.4230   90.9830 C   0  0  0  0  0  0  0  0  0  0  0  0
   14.5590   53.6330   91.0850 O   0  0  0  0  0  0  0  0  0  0  0  0
   12.4950   54.3720   91.7660 N   0  0  0  0  0  0  0  0  0  0  0  0
   12.2680   53.2300   92.6560 C   0  0  2  0  0  0  0  0  0  0  0  0
   11.0870   52.4470   92.0240 C   0  0  0  0  0  0  0  0  0  0  0  0
   10.0550   53.0350   91.6750 O   0  0  0  0  0  0  0  0  0  0  0  0
   11.1990   51.0840   91.8720 N   0  0  0  0  0  0  0  0  0  0  0  0
   10.9180   50.0720   92.8810 C   0  0  0  0  0  0  0  0  0  0  0  0
   11.2500   48.7370   92.2130 C   0  0  2  0  0  0  0  0  0  0  0  0
   11.7070   47.7610   93.1320 O   0  0  0  0  0  0  0  0  0  0  0  0
   12.3710   49.1220   91.2530 C   0  0  0  0  0  0  0  0  0  0  0  0
   11.9420   50.4980   90.7470 C   0  0  1  0  0  0  0  0  0  0  0  0
   11.0410   50.4120   89.4970 C   0  0  0  0  0  0  0  0  0  0  0  0
   10.2640   49.4830   89.2880 O   0  0  0  0  0  0  0  0  0  0  0  0
   11.1950   51.4740   88.6320 N   0  0  0  0  0  0  0  0  0  0  0  0
   10.3810   51.6330   87.4520 C   0  0  0  0  0  0  0  0  0  0  0  0
   11.1940   51.4600   86.1950 C   0  0  0  0  0  0  0  0  0  0  0  0
   11.5430   50.1790   85.7490 C   0  0  0  0  0  0  0  0  0  0  0  0
   12.2860   50.0110   84.5760 C   0  0  0  0  0  0  0  0  0  0  0  0
   12.6860   51.1190   83.8180 C   0  0  0  0  0  0  0  0  0  0  0  0
   13.4550   50.9310   82.5840 C   0  0  0  0  0  0  0  0  0  0  0  0
   12.7690   50.0670   81.2610 S   0  0  0  0  0  0  0  0  0  0  0  0
   14.1910   50.3410   80.3530 C   0  0  0  0  0  0  0  0  0  0  0  0
   15.1390   51.0240   80.9530 N   0  0  0  0  0  0  0  0  0  0  0  0
   14.7270   51.3700   82.2330 C   0  0  0  0  0  0  0  0  0  0  0  0
   15.6760   52.1520   83.0700 C   0  0  0  0  0  0  0  0  0  0  0  0
   12.3230   52.3980   84.2600 C   0  0  0  0  0  0  0  0  0  0  0  0
   11.5850   52.5680   85.4360 C   0  0  0  0  0  0  0  0  0  0  0  0
   11.9980   53.6790   94.1280 C   0  0  0  0  0  0  0  0  0  0  0  0
   13.0410   53.0600   95.0770 C   0  0  0  0  0  0  0  0  0  0  0  0
   10.5930   53.2940   94.6290 C   0  0  0  0  0  0  0  0  0  0  0  0
   12.1350   55.2150   94.2210 C   0  0  0  0  0  0  0  0  0  0  0  0
   13.6195   56.5047   90.4883 H   0  0  0  0  0  0  0  0  0  0  0  0
   14.5214   55.4598   89.3388 H   0  0  0  0  0  0  0  0  0  0  0  0
   12.7251   55.4533   89.3388 H   0  0  0  0  0  0  0  0  0  0  0  0
   11.6590   54.7850   91.3660 H   0  0  0  0  0  0  0  0  0  0  0  0
   13.1576   52.5883   92.7388 H   0  0  0  0  0  0  0  0  0  0  0  0
   11.5490   50.2267   93.7687 H   0  0  0  0  0  0  0  0  0  0  0  0
    9.8735   50.1118   93.2236 H   0  0  0  0  0  0  0  0  0  0  0  0
   10.3705   48.2805   91.7355 H   0  0  0  0  0  0  0  0  0  0  0  0
   12.3800   48.1760   93.6980 H   0  0  0  0  0  0  0  0  0  0  0  0
   13.3367   49.1781   91.7768 H   0  0  0  0  0  0  0  0  0  0  0  0
   12.5151   48.3911   90.4437 H   0  0  0  0  0  0  0  0  0  0  0  0
   12.8111   51.0978   90.4389 H   0  0  0  0  0  0  0  0  0  0  0  0
   11.7260   52.2780   88.9670 H   0  0  0  0  0  0  0  0  0  0  0  0
    9.5794   50.8798   87.4662 H   0  0  0  0  0  0  0  0  0  0  0  0
    9.9616   52.6499   87.4555 H   0  0  0  0  0  0  0  0  0  0  0  0
   11.2298   49.2968   86.3267 H   0  0  0  0  0  0  0  0  0  0  0  0
   12.5591   48.9981   84.2452 H   0  0  0  0  0  0  0  0  0  0  0  0
   14.3056   49.9668   79.3250 H   0  0  0  0  0  0  0  0  0  0  0  0
   15.4596   51.9737   84.1336 H   0  0  0  0  0  0  0  0  0  0  0  0
   16.7063   51.8372   82.8477 H   0  0  0  0  0  0  0  0  0  0  0  0
   15.5639   53.2234   82.8477 H   0  0  0  0  0  0  0  0  0  0  0  0
   12.6223   53.2799   83.6746 H   0  0  0  0  0  0  0  0  0  0  0  0
   11.3101   53.5805   85.7664 H   0  0  0  0  0  0  0  0  0  0  0  0
   12.7397   53.2388   96.1197 H   0  0  0  0  0  0  0  0  0  0  0  0
   13.1057   51.9772   94.8946 H   0  0  0  0  0  0  0  0  0  0  0  0
   14.0225   53.5219   94.8946 H   0  0  0  0  0  0  0  0  0  0  0  0
   10.5839   53.2915   95.7290 H   0  0  0  0  0  0  0  0  0  0  0  0
    9.8586   54.0240   94.2579 H   0  0  0  0  0  0  0  0  0  0  0  0
   10.3333   52.2916   94.2579 H   0  0  0  0  0  0  0  0  0  0  0  0
   12.1620   55.5174   95.2783 H   0  0  0  0  0  0  0  0  0  0  0  0
   13.0649   55.5309   93.7255 H   0  0  0  0  0  0  0  0  0  0  0  0
   11.2757   55.6904   93.7255 H   0  0  0  0  0  0  0  0  0  0  0  0
  1  2  1  0
  2  3  2  0
  2  4  1  0
  4  5  1  0
  5  6  1  0
  6  7  2  0
  6  8  1  0
  8  9  1  0
  9 10  1  0
 10 11  1  0
 10 12  1  0
 12 13  1  0
 13 14  1  0
 14 15  2  0
 14 16  1  0
 16 17  1  0
 17 18  1  0
 18 19  2  0
 19 20  1  0
 20 21  2  0
 21 22  1  0
 22 23  1  0
 23 24  1  0
 24 25  2  0
 25 26  1  0
 26 27  1  0
 21 28  1  0
 28 29  2  0
  5 30  1  0
 30 31  1  0
 30 32  1  0
 30 33  1  0
 13  8  1  0
 29 18  1  0
 26 22  2  0
  1 34  1  0
  1 35  1  0
  1 36  1  0
  4 37  1  0
  5 38  1  1
  9 39  1  0
  9 40  1  0
 10 41  1  6
 11 42  1  0
 12 43  1  0
 12 44  1  0
 13 45  1  6
 16 46  1  0
 17 47  1  0
 17 48  1  0
 19 49  1  0
 20 50  1  0
 24 51  1  0
 27 52  1  0
 27 53  1  0
 27 54  1  0
 28 55  1  0
 29 56  1  0
 31 57  1  0
 31 58  1  0
 31 59  1  0
 32 60  1  0
 32 61  1  0
 32 62  1  0
 33 63  1  0
 33 64  1  0
 33 65  1  0
M  END
>  <meeko>  (8) 
{"is_sidechain": [false], "free_energy": -6.687, "intermolecular_energy": -10.123, "internal_energy": -1.078}

$$$$
4w9h_ligand
     RDKit          3D

 65 67  0  0  0  0  0  0  0  0999 V2000
    9.3110   54.2860   89.3520 C   0  0  0  0  0  0  0  0  0  0  0  0
   10.5710   53.5820   89.7740 C   0  0  0  0  0  0  0  0  0  0  0  0
   11.4680   53.3110   88.9820 O   0  0  0  0  0  0  0  0  0  0  0  0
   10.6160   53.2650   91.1140 N   0  0  0  0  0  0  0  0  0  0  0  0
   11.6860   52.4060   91.6310 C   0  0  2  0  0  0  0  0  0  0  0  0
   10.9610   51.2350   92.3450 C   0  0  0  0  0  0  0  0  0  0  0  0
   10.2580   51.4420   93.3430 O   0  0  0  0  0  0  0  0  0  0  0  0
   11.1220   49.9570   91.8580 N   0  0  0  0  0  0  0  0  0  0  0  0
   10.9850   48.7190   92.6120 C   0  0  0  0  0  0  0  0  0  0  0  0
   11.3150   47.6060   91.6170 C   0  0  2  0  0  0  0  0  0  0  0  0
   11.9020   46.4730   92.2330 O   0  0  0  0  0  0  0  0  0  0  0  0
   12.3200   48.2830   90.6910 C   0  0  0  0  0  0  0  0  0  0  0  0
   11.7810   49.7060   90.5690 C   0  0  1  0  0  0  0  0  0  0  0  0
   10.7710   49.8570   89.4120 C   0  0  0  0  0  0  0  0  0  0  0  0
    9.5760   49.5940   89.5220 O   0  0  0  0  0  0  0  0  0  0  0  0
   11.3380   50.3100   88.2400 N   0  0  0  0  0  0  0  0  0  0  0  0
   10.5530   50.6060   87.0680 C   0  0  0  0  0  0  0  0  0  0  0  0
   11.4180   50.7180   85.8390 C   0  0  0  0  0  0  0  0  0  0  0  0
   11.7710   51.9760   85.3330 C   0  0  0  0  0  0  0  0  0  0  0  0
   12.5830   52.0860   84.2010 C   0  0  0  0  0  0  0  0  0  0  0  0
   13.0710   50.9420   83.5560 C   0  0  0  0  0  0  0  0  0  0  0  0
   13.9320   51.0700   82.3760 C   0  0  0  0  0  0  0  0  0  0  0  0
   15.4790   51.8140   82.5110 S   0  0  0  0  0  0  0  0  0  0  0  0
   15.7550   51.5270   80.8490 C   0  0  0  0  0  0  0  0  0  0  0  0
   14.7900   50.9210   80.1980 N   0  0  0  0  0  0  0  0  0  0  0  0
   13.7390   50.6520   81.0640 C   0  0  0  0  0  0  0  0  0  0  0  0
   12.5460   49.9630   80.5010 C   0  0  0  0  0  0  0  0  0  0  0  0
   12.7290   49.6850   84.0730 C   0  0  0  0  0  0  0  0  0  0  0  0
   11.9100   49.5730   85.2020 C   0  0  0  0  0  0  0  0  0  0  0  0
   12.6680   53.1870   92.5610 C   0  0  0  0  0  0  0  0  0  0  0  0
   13.3710   52.2210   93.5320 C   0  0  0  0  0  0  0  0  0  0  0  0
   11.9720   54.2870   93.3850 C   0  0  0  0  0  0  0  0  0  0  0  0
   13.7580   53.8560   91.6960 C   0  0  0  0  0  0  0  0  0  0  0  0
    8.7497   54.5996   90.2445 H   0  0  0  0  0  0  0  0  0  0  0  0
    9.5689   55.1707   88.7514 H   0  0  0  0  0  0  0  0  0  0  0  0
    8.6927   53.6026   88.7514 H   0  0  0  0  0  0  0  0  0  0  0  0
    9.7200   53.1710   91.5790 H   0  0  0  0  0  0  0  0  0  0  0  0
   12.3353   52.0278   90.8277 H   0  0  0  0  0  0  0  0  0  0  0  0
   11.6887   48.7021   93.4573 H   0  0  0  0  0  0  0  0  0  0  0  0
    9.9767   48.6054   93.0369 H   0  0  0  0  0  0  0  0  0  0  0  0
   10.4168   47.2160   91.1159 H   0  0  0  0  0  0  0  0  0  0  0  0
   11.5780   46.4320   93.1490 H   0  0  0  0  0  0  0  0  0  0  0  0
   13.3274   48.2796   91.1327 H   0  0  0  0  0  0  0  0  0  0  0  0
   12.4206   47.7758   89.7201 H   0  0  0  0  0  0  0  0  0  0  0  0
   12.5877   50.4197   90.3458 H   0  0  0  0  0  0  0  0  0  0  0  0
   12.2920   50.6670   88.2890 H   0  0  0  0  0  0  0  0  0  0  0  0
    9.8189   49.8009   86.9165 H   0  0  0  0  0  0  0  0  0  0  0  0
   10.0485   51.5708   87.2246 H   0  0  0  0  0  0  0  0  0  0  0  0
   11.4054   52.8858   85.8316 H   0  0  0  0  0  0  0  0  0  0  0  0
   12.8419   53.0818   83.8120 H   0  0  0  0  0  0  0  0  0  0  0  0
   16.6882   51.8327   80.3533 H   0  0  0  0  0  0  0  0  0  0  0  0
   11.9123   49.5970   81.3223 H   0  0  0  0  0  0  0  0  0  0  0  0
   11.9728   50.6691   79.8823 H   0  0  0  0  0  0  0  0  0  0  0  0
   12.8711   49.1136   79.8823 H   0  0  0  0  0  0  0  0  0  0  0  0
   13.1091   48.7753   83.5852 H   0  0  0  0  0  0  0  0  0  0  0  0
   11.6509   48.5776   85.5918 H   0  0  0  0  0  0  0  0  0  0  0  0
   13.1535   52.5198   94.5681 H   0  0  0  0  0  0  0  0  0  0  0  0
   13.0047   51.1980   93.3609 H   0  0  0  0  0  0  0  0  0  0  0  0
   14.4571   52.2550   93.3609 H   0  0  0  0  0  0  0  0  0  0  0  0
   12.1029   54.0800   94.4574 H   0  0  0  0  0  0  0  0  0  0  0  0
   12.4170   55.2634   93.1430 H   0  0  0  0  0  0  0  0  0  0  0  0
   10.8991   54.3030   93.1430 H   0  0  0  0  0  0  0  0  0  0  0  0
   14.5120   54.3188   92.3496 H   0  0  0  0  0  0  0  0  0  0  0  0
   14.2391   53.0974   91.0610 H   0  0  0  0  0  0  0  0  0  0  0  0
   13.2994   54.6284   91.0610 H   0  0  0  0  0  0  0  0  0  0  0  0
  1  2  1  0
  2  3  2  0
  2  4  1  0
  4  5  1  0
  5  6  1  0
  6  7  2  0
  6  8  1  0
  8  9  1  0
  9 10  1  0
 10 11  1  0
 10 12  1  0
 12 13  1  0
 13 14  1  0
 14 15  2  0
 14 16  1  0
 16 17  1  0
 17 18  1  0
 18 19  2  0
 19 20  1  0
 20 21  2  0
 21 22  1  0
 22 23  1  0
 23 24  1  0
 24 25  2  0
 25 26  1  0
 26 27  1  0
 21 28  1  0
 28 29  2  0
  5 30  1  0
 30 31  1  0
 30 32  1  0
 30 33  1  0
 13  8  1  0
 29 18  1  0
 26 22  2  0
  1 34  1  0
  1 35  1  0
  1 36  1  0
  4 37  1  0
  5 38  1  6
  9 39  1  0
  9 40  1  0
 10 41  1  6
 11 42  1  0
 12 43  1  0
 12 44  1  0
 13 45  1  6
 16 46  1  0
 17 47  1  0
 17 48  1  0
 19 49  1  0
 20 50  1  0
 24 51  1  0
 27 52  1  0
 27 53  1  0
 27 54  1  0
 28 55  1  0
 29 56  1  0
 31 57  1  0
 31 58  1  0
 31 59  1  0
 32 60  1  0
 32 61  1  0
 32 62  1  0
 33 63  1  0
 33 64  1  0
 33 65  1  0
M  END
>  <meeko>  (9) 
{"is_sidechain": [false], "free_energy": -6.462, "intermolecular_energy": -9.19, "internal_energy": -1.674}

$$$$
