3gv9_ligand
     RDKit          3D

 18 18  0  0  0  0  0  0  0  0999 V2000
  -33.8020    5.3270   19.0510 C   0  0  0  0  0  0  0  0  0  0  0  0
  -34.6450    4.5670   18.0600 C   0  0  0  0  0  0  0  0  0  0  0  0
  -34.6650    3.3380   18.0670 O   0  0  0  0  0  0  0  0  0  0  0  0
  -35.3130    5.4000   17.1970 N   0  0  0  0  0  0  0  0  0  0  0  0
  -36.1630    5.0310   16.1630 C   0  0  0  0  0  0  0  0  0  0  0  0
  -37.5700    4.8060   16.2200 C   0  0  0  0  0  0  0  0  0  0  0  0
  -38.0940    4.4510   14.9960 C   0  0  0  0  0  0  0  0  0  0  0  0
  -36.8960    4.3900   13.7770 S   0  0  0  0  0  0  0  0  0  0  0  0
  -35.6750    4.8360   14.8820 C   0  0  0  0  0  0  0  0  0  0  0  0
  -34.1430    5.0110   14.4950 C   0  0  0  0  0  0  0  0  0  0  0  0
  -33.6280    4.0340   13.8520 O   0  0  0  0  0  0  0  0  0  0  0  0
  -33.5580    6.0790   14.8440 O   0  0  0  0  0  0  0  0  0  0  0  0
  -34.1035    5.0552   20.0734 H   0  0  0  0  0  0  0  0  0  0  0  0
  -32.7422    5.0732   18.9015 H   0  0  0  0  0  0  0  0  0  0  0  0
  -33.9449    6.4074   18.9015 H   0  0  0  0  0  0  0  0  0  0  0  0
  -35.2040    6.4230   17.2760 H   0  0  0  0  0  0  0  0  0  0  0  0
  -38.1692    4.9047   17.1372 H   0  0  0  0  0  0  0  0  0  0  0  0
  -39.1581    4.2325   14.8232 H   0  0  0  0  0  0  0  0  0  0  0  0
  1  2  1  0
  2  3  2  0
  2  4  1  0
  4  5  1  0
  5  6  1  0
  6  7  2  0
  7  8  1  0
  8  9  1  0
  9 10  1  0
 10 11  2  0
 10 12  1  0
  9  5  2  0
  1 13  1  0
  1 14  1  0
  1 15  1  0
  4 16  1  0
  6 17  1  0
  7 18  1  0
M  CHG  1  12  -1
M  END
>  <meeko>  (1) 
{"is_sidechain": [false], "free_energy": -5.059, "intermolecular_energy": -5.651, "internal_energy": -0.454}

$$$$
3gv9_ligand
     RDKit          3D

 18 18  0  0  0  0  0  0  0  0999 V2000
  -33.3240    4.6860   19.1710 C   0  0  0  0  0  0  0  0  0  0  0  0
  -34.3630    5.2850   18.2580 C   0  0  0  0  0  0  0  0  0  0  0  0
  -34.7510    6.4390   18.4230 O   0  0  0  0  0  0  0  0  0  0  0  0
  -34.7950    4.3960   17.3060 N   0  0  0  0  0  0  0  0  0  0  0  0
  -35.7460    4.6180   16.3190 C   0  0  0  0  0  0  0  0  0  0  0  0
  -37.1600    4.7320   16.4700 C   0  0  0  0  0  0  0  0  0  0  0  0
  -37.7990    4.9530   15.2690 C   0  0  0  0  0  0  0  0  0  0  0  0
  -36.7010    5.0270   13.9610 S   0  0  0  0  0  0  0  0  0  0  0  0
  -35.3700    4.7620   14.9940 C   0  0  0  0  0  0  0  0  0  0  0  0
  -33.8600    4.6860   14.5010 C   0  0  0  0  0  0  0  0  0  0  0  0
  -33.0730    5.5470   15.0230 O   0  0  0  0  0  0  0  0  0  0  0  0
  -33.5550    3.8000   13.6490 O   0  0  0  0  0  0  0  0  0  0  0  0
  -33.6155    4.8540   20.2183 H   0  0  0  0  0  0  0  0  0  0  0  0
  -33.2477    3.6053   18.9805 H   0  0  0  0  0  0  0  0  0  0  0  0
  -32.3505    5.1615   18.9805 H   0  0  0  0  0  0  0  0  0  0  0  0
  -34.4080    3.4400   17.2750 H   0  0  0  0  0  0  0  0  0  0  0  0
  -37.6812    4.6525   17.4354 H   0  0  0  0  0  0  0  0  0  0  0  0
  -38.8879    5.0683   15.1644 H   0  0  0  0  0  0  0  0  0  0  0  0
  1  2  1  0
  2  3  2  0
  2  4  1  0
  4  5  1  0
  5  6  1  0
  6  7  2  0
  7  8  1  0
  8  9  1  0
  9 10  1  0
 10 11  2  0
 10 12  1  0
  9  5  2  0
  1 13  1  0
  1 14  1  0
  1 15  1  0
  4 16  1  0
  6 17  1  0
  7 18  1  0
M  CHG  1  12  -1
M  END
>  <meeko>  (2) 
{"is_sidechain": [false], "free_energy": -4.955, "intermolecular_energy": -5.524, "internal_energy": -0.464}

$$$$
3gv9_ligand
     RDKit          3D

 18 18  0  0  0  0  0  0  0  0999 V2000
  -34.0510    3.7040   13.6060 C   0  0  0  0  0  0  0  0  0  0  0  0
  -34.8160    4.7020   14.4370 C   0  0  0  0  0  0  0  0  0  0  0  0
  -34.6200    5.9080   14.3060 O   0  0  0  0  0  0  0  0  0  0  0  0
  -35.6760    4.0950   15.3180 N   0  0  0  0  0  0  0  0  0  0  0  0
  -36.5180    4.7160   16.2310 C   0  0  0  0  0  0  0  0  0  0  0  0
  -37.8140    5.2660   15.9990 C   0  0  0  0  0  0  0  0  0  0  0  0
  -38.3660    5.8070   17.1410 C   0  0  0  0  0  0  0  0  0  0  0  0
  -37.3280    5.6520   18.4910 S   0  0  0  0  0  0  0  0  0  0  0  0
  -36.1400    4.8630   17.5540 C   0  0  0  0  0  0  0  0  0  0  0  0
  -34.7480    4.3510   18.1280 C   0  0  0  0  0  0  0  0  0  0  0  0
  -33.7150    4.9330   17.6510 O   0  0  0  0  0  0  0  0  0  0  0  0
  -34.7640    3.4260   18.9930 O   0  0  0  0  0  0  0  0  0  0  0  0
  -33.5170    3.0074   14.2691 H   0  0  0  0  0  0  0  0  0  0  0  0
  -34.7516    3.1417   12.9712 H   0  0  0  0  0  0  0  0  0  0  0  0
  -33.3260    4.2345   12.9712 H   0  0  0  0  0  0  0  0  0  0  0  0
  -35.7430    3.0660   15.3530 H   0  0  0  0  0  0  0  0  0  0  0  0
  -38.3159    5.2592   15.0202 H   0  0  0  0  0  0  0  0  0  0  0  0
  -39.3573    6.2823   17.1791 H   0  0  0  0  0  0  0  0  0  0  0  0
  1  2  1  0
  2  3  2  0
  2  4  1  0
  4  5  1  0
  5  6  1  0
  6  7  2  0
  7  8  1  0
  8  9  1  0
  9 10  1  0
 10 11  2  0
 10 12  1  0
  9  5  2  0
  1 13  1  0
  1 14  1  0
  1 15  1  0
  4 16  1  0
  6 17  1  0
  7 18  1  0
M  CHG  1  12  -1
M  END
>  <meeko>  (3) 
{"is_sidechain": [false], "free_energy": -4.881, "intermolecular_energy": -5.453, "internal_energy": -0.453}

$$$$
3gv9_ligand
     RDKit          3D

 18 18  0  0  0  0  0  0  0  0999 V2000
  -34.1570    3.7030   13.4960 C   0  0  0  0  0  0  0  0  0  0  0  0
  -34.5030    4.6270   14.6370 C   0  0  0  0  0  0  0  0  0  0  0  0
  -34.1630    5.8080   14.6110 O   0  0  0  0  0  0  0  0  0  0  0  0
  -35.1780    3.9820   15.6430 N   0  0  0  0  0  0  0  0  0  0  0  0
  -35.6340    4.5310   16.8340 C   0  0  0  0  0  0  0  0  0  0  0  0
  -34.9000    4.7580   18.0360 C   0  0  0  0  0  0  0  0  0  0  0  0
  -35.6760    5.3230   19.0250 C   0  0  0  0  0  0  0  0  0  0  0  0
  -37.2860    5.5820   18.5100 S   0  0  0  0  0  0  0  0  0  0  0  0
  -36.9500    4.9400   16.9650 C   0  0  0  0  0  0  0  0  0  0  0  0
  -38.0240    4.8180   15.7980 C   0  0  0  0  0  0  0  0  0  0  0  0
  -39.0360    4.0840   16.0630 O   0  0  0  0  0  0  0  0  0  0  0  0
  -37.8030    5.4420   14.7180 O   0  0  0  0  0  0  0  0  0  0  0  0
  -33.7978    2.7437   13.8970 H   0  0  0  0  0  0  0  0  0  0  0  0
  -35.0516    3.5308   12.8795 H   0  0  0  0  0  0  0  0  0  0  0  0
  -33.3693    4.1607   12.8795 H   0  0  0  0  0  0  0  0  0  0  0  0
  -35.3930    2.9760   15.5620 H   0  0  0  0  0  0  0  0  0  0  0  0
  -33.8354    4.5102   18.1595 H   0  0  0  0  0  0  0  0  0  0  0  0
  -35.3034    5.5775   20.0282 H   0  0  0  0  0  0  0  0  0  0  0  0
  1  2  1  0
  2  3  2  0
  2  4  1  0
  4  5  1  0
  5  6  1  0
  6  7  2  0
  7  8  1  0
  8  9  1  0
  9 10  1  0
 10 11  2  0
 10 12  1  0
  9  5  2  0
  1 13  1  0
  1 14  1  0
  1 15  1  0
  4 16  1  0
  6 17  1  0
  7 18  1  0
M  CHG  1  12  -1
M  END
>  <meeko>  (4) 
{"is_sidechain": [false], "free_energy": -4.676, "intermolecular_energy": -5.226, "internal_energy": -0.451}

$$$$
3gv9_ligand
     RDKit          3D

 18 18  0  0  0  0  0  0  0  0999 V2000
  -38.2610    4.1150   14.5350 C   0  0  0  0  0  0  0  0  0  0  0  0
  -37.7630    4.6580   15.8500 C   0  0  0  0  0  0  0  0  0  0  0  0
  -38.5060    5.3070   16.5820 O   0  0  0  0  0  0  0  0  0  0  0  0
  -36.4410    4.3600   16.0690 N   0  0  0  0  0  0  0  0  0  0  0  0
  -35.6710    4.7140   17.1690 C   0  0  0  0  0  0  0  0  0  0  0  0
  -35.8960    4.3900   18.5400 C   0  0  0  0  0  0  0  0  0  0  0  0
  -34.9240    4.9100   19.3680 C   0  0  0  0  0  0  0  0  0  0  0  0
  -33.7410    5.7860   18.4980 S   0  0  0  0  0  0  0  0  0  0  0  0
  -34.5240    5.4730   17.0150 C   0  0  0  0  0  0  0  0  0  0  0  0
  -34.0030    5.9920   15.6050 C   0  0  0  0  0  0  0  0  0  0  0  0
  -32.8780    5.5160   15.2310 O   0  0  0  0  0  0  0  0  0  0  0  0
  -34.7230    6.8200   14.9720 O   0  0  0  0  0  0  0  0  0  0  0  0
  -38.9937    3.3161   14.7221 H   0  0  0  0  0  0  0  0  0  0  0  0
  -38.7383    4.9234   13.9617 H   0  0  0  0  0  0  0  0  0  0  0  0
  -37.4145    3.7092   13.9617 H   0  0  0  0  0  0  0  0  0  0  0  0
  -35.9080    3.8200   15.3690 H   0  0  0  0  0  0  0  0  0  0  0  0
  -36.7484    3.7929   18.8961 H   0  0  0  0  0  0  0  0  0  0  0  0
  -34.9110    4.7770   20.4599 H   0  0  0  0  0  0  0  0  0  0  0  0
  1  2  1  0
  2  3  2  0
  2  4  1  0
  4  5  1  0
  5  6  1  0
  6  7  2  0
  7  8  1  0
  8  9  1  0
  9 10  1  0
 10 11  2  0
 10 12  1  0
  9  5  2  0
  1 13  1  0
  1 14  1  0
  1 15  1  0
  4 16  1  0
  6 17  1  0
  7 18  1  0
M  CHG  1  12  -1
M  END
>  <meeko>  (5) 
{"is_sidechain": [false], "free_energy": -4.357, "intermolecular_energy": -4.937, "internal_energy": -0.384}

$$$$
3gv9_ligand
     RDKit          3D

 18 18  0  0  0  0  0  0  0  0999 V2000
  -33.0890    4.9170   19.6290 C   0  0  0  0  0  0  0  0  0  0  0  0
  -34.0130    4.5170   18.5070 C   0  0  0  0  0  0  0  0  0  0  0  0
  -34.5010    3.3900   18.4690 O   0  0  0  0  0  0  0  0  0  0  0  0
  -34.1840    5.5240   17.5890 N   0  0  0  0  0  0  0  0  0  0  0  0
  -34.9580    5.4870   16.4370 C   0  0  0  0  0  0  0  0  0  0  0  0
  -34.5410    5.1860   15.1070 C   0  0  0  0  0  0  0  0  0  0  0  0
  -35.5820    5.2430   14.2050 C   0  0  0  0  0  0  0  0  0  0  0  0
  -37.0610    5.6570   14.9570 S   0  0  0  0  0  0  0  0  0  0  0  0
  -36.3140    5.7620   16.4880 C   0  0  0  0  0  0  0  0  0  0  0  0
  -37.0810    6.1340   17.8300 C   0  0  0  0  0  0  0  0  0  0  0  0
  -36.5580    7.0790   18.5120 O   0  0  0  0  0  0  0  0  0  0  0  0
  -38.1280    5.4810   18.1190 O   0  0  0  0  0  0  0  0  0  0  0  0
  -33.5726    4.7076   20.5946 H   0  0  0  0  0  0  0  0  0  0  0  0
  -32.1533    4.3434   19.5556 H   0  0  0  0  0  0  0  0  0  0  0  0
  -32.8669    5.9918   19.5556 H   0  0  0  0  0  0  0  0  0  0  0  0
  -33.7050    6.4290   17.7170 H   0  0  0  0  0  0  0  0  0  0  0  0
  -33.5056    4.9365   14.8318 H   0  0  0  0  0  0  0  0  0  0  0  0
  -35.4740    5.0454   13.1283 H   0  0  0  0  0  0  0  0  0  0  0  0
  1  2  1  0
  2  3  2  0
  2  4  1  0
  4  5  1  0
  5  6  1  0
  6  7  2  0
  7  8  1  0
  8  9  1  0
  9 10  1  0
 10 11  2  0
 10 12  1  0
  9  5  2  0
  1 13  1  0
  1 14  1  0
  1 15  1  0
  4 16  1  0
  6 17  1  0
  7 18  1  0
M  CHG  1  12  -1
M  END
>  <meeko>  (6) 
{"is_sidechain": [false], "free_energy": -4.345, "intermolecular_energy": -4.878, "internal_energy": -0.429}

$$$$
3gv9_ligand
     RDKit          3D

 18 18  0  0  0  0  0  0  0  0999 V2000
  -33.2210    5.8680   19.8770 C   0  0  0  0  0  0  0  0  0  0  0  0
  -34.5480    5.9740   19.1690 C   0  0  0  0  0  0  0  0  0  0  0  0
  -35.5830    5.6060   19.7200 O   0  0  0  0  0  0  0  0  0  0  0  0
  -34.4210    6.4790   17.8990 N   0  0  0  0  0  0  0  0  0  0  0  0
  -35.4360    6.6970   16.9770 C   0  0  0  0  0  0  0  0  0  0  0  0
  -36.5960    7.5140   17.1240 C   0  0  0  0  0  0  0  0  0  0  0  0
  -37.3950    7.4960   16.0000 C   0  0  0  0  0  0  0  0  0  0  0  0
  -36.7510    6.5000   14.7690 S   0  0  0  0  0  0  0  0  0  0  0  0
  -35.4050    6.0880   15.7340 C   0  0  0  0  0  0  0  0  0  0  0  0
  -34.2370    5.1150   15.2670 C   0  0  0  0  0  0  0  0  0  0  0  0
  -33.0790    5.6490   15.1930 O   0  0  0  0  0  0  0  0  0  0  0  0
  -34.5340    3.9110   15.0080 O   0  0  0  0  0  0  0  0  0  0  0  0
  -33.3837    5.8810   20.9648 H   0  0  0  0  0  0  0  0  0  0  0  0
  -32.7271    4.9275   19.5914 H   0  0  0  0  0  0  0  0  0  0  0  0
  -32.5841    6.7181   19.5914 H   0  0  0  0  0  0  0  0  0  0  0  0
  -33.4910    6.7370   17.5340 H   0  0  0  0  0  0  0  0  0  0  0  0
  -36.8270    8.0925   18.0306 H   0  0  0  0  0  0  0  0  0  0  0  0
  -38.3366    8.0570   15.9066 H   0  0  0  0  0  0  0  0  0  0  0  0
  1  2  1  0
  2  3  2  0
  2  4  1  0
  4  5  1  0
  5  6  1  0
  6  7  2  0
  7  8  1  0
  8  9  1  0
  9 10  1  0
 10 11  2  0
 10 12  1  0
  9  5  2  0
  1 13  1  0
  1 14  1  0
  1 15  1  0
  4 16  1  0
  6 17  1  0
  7 18  1  0
M  CHG  1  12  -1
M  END
>  <meeko>  (7) 
{"is_sidechain": [false], "free_energy": -4.303, "intermolecular_energy": -4.892, "internal_energy": -0.368}

$$$$
3gv9_ligand
     RDKit          3D

 18 18  0  0  0  0  0  0  0  0999 V2000
  -39.0090    4.2200   13.0040 C   0  0  0  0  0  0  0  0  0  0  0  0
  -38.1190    4.5280   14.1810 C   0  0  0  0  0  0  0  0  0  0  0  0
  -38.3500    4.0420   15.2860 O   0  0  0  0  0  0  0  0  0  0  0  0
  -37.1050    5.3940   13.8540 N   0  0  0  0  0  0  0  0  0  0  0  0
  -36.1190    5.8890   14.6970 C   0  0  0  0  0  0  0  0  0  0  0  0
  -36.2270    6.9420   15.6540 C   0  0  0  0  0  0  0  0  0  0  0  0
  -35.0420    7.1690   16.3190 C   0  0  0  0  0  0  0  0  0  0  0  0
  -33.7990    6.1180   15.7950 S   0  0  0  0  0  0  0  0  0  0  0  0
  -34.8410    5.3580   14.6780 C   0  0  0  0  0  0  0  0  0  0  0  0
  -34.4030    4.1690   13.7170 C   0  0  0  0  0  0  0  0  0  0  0  0
  -34.5540    4.3940   12.4690 O   0  0  0  0  0  0  0  0  0  0  0  0
  -33.9490    3.1110   14.2470 O   0  0  0  0  0  0  0  0  0  0  0  0
  -39.9907    3.8803   13.3657 H   0  0  0  0  0  0  0  0  0  0  0  0
  -39.1366    5.1263   12.3937 H   0  0  0  0  0  0  0  0  0  0  0  0
  -38.5491    3.4287   12.3937 H   0  0  0  0  0  0  0  0  0  0  0  0
  -37.0210    5.7540   12.8900 H   0  0  0  0  0  0  0  0  0  0  0  0
  -37.1516    7.5083   15.8397 H   0  0  0  0  0  0  0  0  0  0  0  0
  -34.9108    7.9364   17.0960 H   0  0  0  0  0  0  0  0  0  0  0  0
  1  2  1  0
  2  3  2  0
  2  4  1  0
  4  5  1  0
  5  6  1  0
  6  7  2  0
  7  8  1  0
  8  9  1  0
  9 10  1  0
 10 11  2  0
 10 12  1  0
  9  5  2  0
  1 13  1  0
  1 14  1  0
  1 15  1  0
  4 16  1  0
  6 17  1  0
  7 18  1  0
M  CHG  1  12  -1
M  END
>  <meeko>  (8) 
{"is_sidechain": [false], "free_energy": -4.297, "intermolecular_energy": -4.8, "internal_energy": -0.453}

$$$$
3gv9_ligand
     RDKit          3D

 18 18  0  0  0  0  0  0  0  0999 V2000
  -33.9230    5.1520   18.7240 C   0  0  0  0  0  0  0  0  0  0  0  0
  -34.2460    5.5280   17.3000 C   0  0  0  0  0  0  0  0  0  0  0  0
  -33.9800    6.6490   16.8720 O   0  0  0  0  0  0  0  0  0  0  0  0
  -34.8630    4.5080   16.6190 N   0  0  0  0  0  0  0  0  0  0  0  0
  -35.3000    4.5220   15.3010 C   0  0  0  0  0  0  0  0  0  0  0  0
  -34.5200    4.3930   14.1150 C   0  0  0  0  0  0  0  0  0  0  0  0
  -35.2890    4.4520   12.9720 C   0  0  0  0  0  0  0  0  0  0  0  0
  -36.9480    4.6620   13.3250 S   0  0  0  0  0  0  0  0  0  0  0  0
  -36.6440    4.6750   15.0040 C   0  0  0  0  0  0  0  0  0  0  0  0
  -37.7700    4.8440   16.1130 C   0  0  0  0  0  0  0  0  0  0  0  0
  -38.7860    4.0810   15.9780 O   0  0  0  0  0  0  0  0  0  0  0  0
  -37.5840    5.7030   17.0260 O   0  0  0  0  0  0  0  0  0  0  0  0
  -34.4827    5.8035   19.4112 H   0  0  0  0  0  0  0  0  0  0  0  0
  -34.2066    4.1038   18.8998 H   0  0  0  0  0  0  0  0  0  0  0  0
  -32.8441    5.2743   18.8998 H   0  0  0  0  0  0  0  0  0  0  0  0
  -35.0530    3.6100   17.0910 H   0  0  0  0  0  0  0  0  0  0  0  0
  -33.4279    4.2613   14.1119 H   0  0  0  0  0  0  0  0  0  0  0  0
  -34.8825    4.3732   11.9529 H   0  0  0  0  0  0  0  0  0  0  0  0
  1  2  1  0
  2  3  2  0
  2  4  1  0
  4  5  1  0
  5  6  1  0
  6  7  2  0
  7  8  1  0
  8  9  1  0
  9 10  1  0
 10 11  2  0
 10 12  1  0
  9  5  2  0
  1 13  1  0
  1 14  1  0
  1 15  1  0
  4 16  1  0
  6 17  1  0
  7 18  1  0
M  CHG  1  12  -1
M  END
>  <meeko>  (9) 
{"is_sidechain": [false], "free_energy": -4.24, "intermolecular_energy": -4.752, "internal_energy": -0.438}

$$$$
