4ciw_ligand
     RDKit          3D

 28 28  0  0  0  0  0  0  0  0999 V2000
  -10.5050    2.9110   12.6720 O   0  0  0  0  0  0  0  0  0  0  0  0
  -10.3430    3.3530   13.8540 C   0  0  0  0  0  0  0  0  0  0  0  0
  -10.5250    2.7860   14.9680 O   0  0  0  0  0  0  0  0  0  0  0  0
   -9.7850    4.8310   13.8860 C   0  0  2  0  0  0  0  0  0  0  0  0
  -10.8980    5.7530   13.9660 O   0  0  0  0  0  0  0  0  0  0  0  0
   -9.0810    5.1250   12.5820 C   0  0  0  0  0  0  0  0  0  0  0  0
   -7.8370    5.6360   12.4800 C   0  0  0  0  0  0  0  0  0  0  0  0
   -7.0870    5.7590   11.1680 C   0  0  0  0  0  0  0  0  0  0  0  0
   -6.9590    4.4970   10.3090 C   0  0  0  0  0  0  0  0  0  0  0  0
   -6.3800    3.4310   11.0520 O   0  0  0  0  0  0  0  0  0  0  0  0
   -7.0950    6.0530   13.7330 C   0  0  1  0  0  0  0  0  0  0  0  0
   -6.4320    7.3120   13.5390 O   0  0  0  0  0  0  0  0  0  0  0  0
   -8.0100    6.2110   14.9690 C   0  0  2  0  0  0  0  0  0  0  0  0
   -7.1940    6.3810   16.1410 O   0  0  0  0  0  0  0  0  0  0  0  0
   -8.9120    4.9960   15.1300 C   0  0  0  0  0  0  0  0  0  0  0  0
  -10.4560    6.5620   14.3280 H   0  0  0  0  0  0  0  0  0  0  0  0
   -9.6216    4.9067   11.6492 H   0  0  0  0  0  0  0  0  0  0  0  0
   -7.6027    6.5192   10.5630 H   0  0  0  0  0  0  0  0  0  0  0  0
   -6.0553    6.0097   11.4558 H   0  0  0  0  0  0  0  0  0  0  0  0
   -7.9585    4.1937    9.9641 H   0  0  0  0  0  0  0  0  0  0  0  0
   -6.3071    4.7212    9.4518 H   0  0  0  0  0  0  0  0  0  0  0  0
   -5.4680    3.3040   10.7160 H   0  0  0  0  0  0  0  0  0  0  0  0
   -6.3784    5.2399   13.9211 H   0  0  0  0  0  0  0  0  0  0  0  0
   -6.9730    7.8090   12.9030 H   0  0  0  0  0  0  0  0  0  0  0  0
   -8.6501    7.0950   14.8321 H   0  0  0  0  0  0  0  0  0  0  0  0
   -7.4440    5.6330   16.7140 H   0  0  0  0  0  0  0  0  0  0  0  0
   -8.2929    4.0966   15.2636 H   0  0  0  0  0  0  0  0  0  0  0  0
   -9.5566    5.1362   16.0102 H   0  0  0  0  0  0  0  0  0  0  0  0
  1  2  2  0
  2  3  1  0
  2  4  1  0
  4  5  1  1
  4  6  1  0
  6  7  2  0
  7  8  1  0
  8  9  1  0
  9 10  1  0
  7 11  1  0
 11 12  1  0
 11 13  1  0
 13 14  1  0
 13 15  1  0
 15  4  1  0
  5 16  1  0
  6 17  1  0
  8 18  1  0
  8 19  1  0
  9 20  1  0
  9 21  1  0
 10 22  1  0
 11 23  1  1
 12 24  1  0
 13 25  1  6
 14 26  1  0
 15 27  1  0
 15 28  1  0
M  CHG  1   3  -1
M  END
>  <meeko>  (1) 
{"is_sidechain": [false], "free_energy": -4.948, "intermolecular_energy": -6.394, "internal_energy": -0.2}

$$$$
4ciw_ligand
     RDKit          3D

 28 28  0  0  0  0  0  0  0  0999 V2000
   10.5100   -2.6480   14.9320 O   0  0  0  0  0  0  0  0  0  0  0  0
   10.6060   -3.9120   14.8160 C   0  0  0  0  0  0  0  0  0  0  0  0
   11.1880   -4.7560   15.5540 O   0  0  0  0  0  0  0  0  0  0  0  0
    9.8230   -4.4740   13.5640 C   0  0  2  0  0  0  0  0  0  0  0  0
   10.5520   -5.5990   13.0200 O   0  0  0  0  0  0  0  0  0  0  0  0
    9.7960   -3.4210   12.4810 C   0  0  0  0  0  0  0  0  0  0  0  0
    8.6840   -3.0110   11.8370 C   0  0  0  0  0  0  0  0  0  0  0  0
    8.6560   -1.8350   10.8810 C   0  0  0  0  0  0  0  0  0  0  0  0
    8.0970   -0.5100   11.4110 C   0  0  0  0  0  0  0  0  0  0  0  0
    8.9550    0.0470   12.4000 O   0  0  0  0  0  0  0  0  0  0  0  0
    7.3630   -3.6980   12.1160 C   0  0  1  0  0  0  0  0  0  0  0  0
    6.6430   -3.9350   10.8970 O   0  0  0  0  0  0  0  0  0  0  0  0
    7.5140   -5.0630   12.8250 C   0  0  2  0  0  0  0  0  0  0  0  0
    6.2170   -5.5220   13.2460 O   0  0  0  0  0  0  0  0  0  0  0  0
    8.4450   -4.9480   14.0230 C   0  0  0  0  0  0  0  0  0  0  0  0
   11.4380   -5.4850   13.4490 H   0  0  0  0  0  0  0  0  0  0  0  0
   10.7514   -2.9554   12.1974 H   0  0  0  0  0  0  0  0  0  0  0  0
    9.6901   -1.6501   10.5546 H   0  0  0  0  0  0  0  0  0  0  0  0
    7.9599   -2.1360   10.0842 H   0  0  0  0  0  0  0  0  0  0  0  0
    8.0022    0.1999   10.5761 H   0  0  0  0  0  0  0  0  0  0  0  0
    7.1148   -0.7020   11.8675 H   0  0  0  0  0  0  0  0  0  0  0  0
    8.6610    0.9690   12.5540 H   0  0  0  0  0  0  0  0  0  0  0  0
    6.8211   -3.0095   12.7811 H   0  0  0  0  0  0  0  0  0  0  0  0
    6.1920   -3.1030   10.6810 H   0  0  0  0  0  0  0  0  0  0  0  0
    7.9522   -5.7868   12.1221 H   0  0  0  0  0  0  0  0  0  0  0  0
    5.5970   -4.9150   12.8030 H   0  0  0  0  0  0  0  0  0  0  0  0
    8.0300   -4.2242   14.7399 H   0  0  0  0  0  0  0  0  0  0  0  0
    8.5412   -5.9326   14.5040 H   0  0  0  0  0  0  0  0  0  0  0  0
  1  2  2  0
  2  3  1  0
  2  4  1  0
  4  5  1  6
  4  6  1  0
  6  7  2  0
  7  8  1  0
  8  9  1  0
  9 10  1  0
  7 11  1  0
 11 12  1  0
 11 13  1  0
 13 14  1  0
 13 15  1  0
 15  4  1  0
  5 16  1  0
  6 17  1  0
  8 18  1  0
  8 19  1  0
  9 20  1  0
  9 21  1  0
 10 22  1  0
 11 23  1  1
 12 24  1  0
 13 25  1  6
 14 26  1  0
 15 27  1  0
 15 28  1  0
M  CHG  1   3  -1
M  END
>  <meeko>  (2) 
{"is_sidechain": [false], "free_energy": -4.941, "intermolecular_energy": -6.356, "internal_energy": -0.229}

$$$$
4ciw_ligand
     RDKit          3D

 28 28  0  0  0  0  0  0  0  0999 V2000
    6.6840   -7.2930   13.1820 O   0  0  0  0  0  0  0  0  0  0  0  0
    7.8210   -6.7950   12.9000 C   0  0  0  0  0  0  0  0  0  0  0  0
    8.6800   -7.1560   12.0470 O   0  0  0  0  0  0  0  0  0  0  0  0
    8.1500   -5.5000   13.7440 C   0  0  2  0  0  0  0  0  0  0  0  0
    7.0330   -5.2110   14.6170 O   0  0  0  0  0  0  0  0  0  0  0  0
    8.2790   -4.3180   12.8120 C   0  0  0  0  0  0  0  0  0  0  0  0
    9.3180   -3.4590   12.8010 C   0  0  0  0  0  0  0  0  0  0  0  0
    9.5080   -2.3880   11.7450 C   0  0  0  0  0  0  0  0  0  0  0  0
    8.5410   -1.2000   11.7650 C   0  0  0  0  0  0  0  0  0  0  0  0
    9.0370   -0.1520   12.5910 O   0  0  0  0  0  0  0  0  0  0  0  0
   10.4070   -3.5900   13.8460 C   0  0  1  0  0  0  0  0  0  0  0  0
   10.7790   -2.3020   14.3600 O   0  0  0  0  0  0  0  0  0  0  0  0
    9.9990   -4.4600   15.0570 C   0  0  2  0  0  0  0  0  0  0  0  0
   11.1600   -4.7090   15.8700 O   0  0  0  0  0  0  0  0  0  0  0  0
    9.3900   -5.7740   14.5950 C   0  0  0  0  0  0  0  0  0  0  0  0
    7.2220   -4.2730   14.8730 H   0  0  0  0  0  0  0  0  0  0  0  0
    7.4667   -4.1459   12.0905 H   0  0  0  0  0  0  0  0  0  0  0  0
   10.5258   -1.9872   11.8608 H   0  0  0  0  0  0  0  0  0  0  0  0
    9.3102   -2.8961   10.7897 H   0  0  0  0  0  0  0  0  0  0  0  0
    8.4154   -0.8212   10.7399 H   0  0  0  0  0  0  0  0  0  0  0  0
    7.5769   -1.5398   12.1713 H   0  0  0  0  0  0  0  0  0  0  0  0
    8.6080   -0.2460   13.4670 H   0  0  0  0  0  0  0  0  0  0  0  0
   11.2439   -4.0766   13.3238 H   0  0  0  0  0  0  0  0  0  0  0  0
   10.2550   -1.6510   13.8650 H   0  0  0  0  0  0  0  0  0  0  0  0
    9.2416   -3.9235   15.6474 H   0  0  0  0  0  0  0  0  0  0  0  0
   11.8490   -4.1430   15.4770 H   0  0  0  0  0  0  0  0  0  0  0  0
   10.1282   -6.3281   13.9967 H   0  0  0  0  0  0  0  0  0  0  0  0
    9.1025   -6.3696   15.4740 H   0  0  0  0  0  0  0  0  0  0  0  0
  1  2  2  0
  2  3  1  0
  2  4  1  0
  4  5  1  1
  4  6  1  0
  6  7  2  0
  7  8  1  0
  8  9  1  0
  9 10  1  0
  7 11  1  0
 11 12  1  0
 11 13  1  0
 13 14  1  0
 13 15  1  0
 15  4  1  0
  5 16  1  0
  6 17  1  0
  8 18  1  0
  8 19  1  0
  9 20  1  0
  9 21  1  0
 10 22  1  0
 11 23  1  6
 12 24  1  0
 13 25  1  1
 14 26  1  0
 15 27  1  0
 15 28  1  0
M  CHG  1   3  -1
M  END
>  <meeko>  (3) 
{"is_sidechain": [false], "free_energy": -4.884, "intermolecular_energy": -6.182, "internal_energy": -0.329}

$$$$
4ciw_ligand
     RDKit          3D

 28 28  0  0  0  0  0  0  0  0999 V2000
   10.5850   -2.9580   12.7400 O   0  0  0  0  0  0  0  0  0  0  0  0
   10.3450   -3.3830   13.9150 C   0  0  0  0  0  0  0  0  0  0  0  0
   10.4630   -2.8030   15.0320 O   0  0  0  0  0  0  0  0  0  0  0  0
    9.7730   -4.8560   13.9300 C   0  0  2  0  0  0  0  0  0  0  0  0
   10.8760   -5.7880   14.0150 O   0  0  0  0  0  0  0  0  0  0  0  0
    9.0800   -5.1340   12.6160 C   0  0  0  0  0  0  0  0  0  0  0  0
    7.8330   -5.6320   12.4970 C   0  0  0  0  0  0  0  0  0  0  0  0
    7.0970   -5.7380   11.1760 C   0  0  0  0  0  0  0  0  0  0  0  0
    7.3980   -6.9570   10.2980 C   0  0  0  0  0  0  0  0  0  0  0  0
    6.7760   -8.1270   10.8180 O   0  0  0  0  0  0  0  0  0  0  0  0
    7.0740   -6.0520   13.7390 C   0  0  1  0  0  0  0  0  0  0  0  0
    6.4010   -7.3020   13.5280 O   0  0  0  0  0  0  0  0  0  0  0  0
    7.9740   -6.2270   14.9840 C   0  0  2  0  0  0  0  0  0  0  0  0
    7.1430   -6.3990   16.1450 O   0  0  0  0  0  0  0  0  0  0  0  0
    8.8850   -5.0220   15.1630 C   0  0  0  0  0  0  0  0  0  0  0  0
   10.7260   -6.1880   14.9080 H   0  0  0  0  0  0  0  0  0  0  0  0
    9.6326   -4.9143   11.6906 H   0  0  0  0  0  0  0  0  0  0  0  0
    6.0197   -5.7492   11.3983 H   0  0  0  0  0  0  0  0  0  0  0  0
    7.4456   -4.8753   10.5893 H   0  0  0  0  0  0  0  0  0  0  0  0
    7.0203   -6.7703    9.2819 H   0  0  0  0  0  0  0  0  0  0  0  0
    8.4862   -7.1167   10.2817 H   0  0  0  0  0  0  0  0  0  0  0  0
    6.9810   -8.1620   11.7770 H   0  0  0  0  0  0  0  0  0  0  0  0
    6.3630   -5.2338   13.9261 H   0  0  0  0  0  0  0  0  0  0  0  0
    6.0210   -7.5540   14.3850 H   0  0  0  0  0  0  0  0  0  0  0  0
    8.6084   -7.1154   14.8486 H   0  0  0  0  0  0  0  0  0  0  0  0
    6.3670   -5.8370   15.9650 H   0  0  0  0  0  0  0  0  0  0  0  0
    8.2727   -4.1180   15.2963 H   0  0  0  0  0  0  0  0  0  0  0  0
    9.5189   -5.1746   16.0490 H   0  0  0  0  0  0  0  0  0  0  0  0
  1  2  2  0
  2  3  1  0
  2  4  1  0
  4  5  1  1
  4  6  1  0
  6  7  2  0
  7  8  1  0
  8  9  1  0
  9 10  1  0
  7 11  1  0
 11 12  1  0
 11 13  1  0
 13 14  1  0
 13 15  1  0
 15  4  1  0
  5 16  1  0
  6 17  1  0
  8 18  1  0
  8 19  1  0
  9 20  1  0
  9 21  1  0
 10 22  1  0
 11 23  1  1
 12 24  1  0
 13 25  1  6
 14 26  1  0
 15 27  1  0
 15 28  1  0
M  CHG  1   3  -1
M  END
>  <meeko>  (4) 
{"is_sidechain": [false], "free_energy": -4.861, "intermolecular_energy": -6.085, "internal_energy": -0.396}

$$$$
4ciw_ligand
     RDKit          3D

 28 28  0  0  0  0  0  0  0  0999 V2000
  -11.2000    4.7920   15.9640 O   0  0  0  0  0  0  0  0  0  0  0  0
  -10.4910    4.0630   15.2000 C   0  0  0  0  0  0  0  0  0  0  0  0
  -10.3200    2.8110   15.1950 O   0  0  0  0  0  0  0  0  0  0  0  0
   -9.7610    4.8900   14.0680 C   0  0  2  0  0  0  0  0  0  0  0  0
  -10.6650    5.9030   13.5670 O   0  0  0  0  0  0  0  0  0  0  0  0
   -9.4550    3.9770   12.9030 C   0  0  0  0  0  0  0  0  0  0  0  0
   -8.2460    3.8580   12.3190 C   0  0  0  0  0  0  0  0  0  0  0  0
   -7.9240    2.8120   11.2690 C   0  0  0  0  0  0  0  0  0  0  0  0
   -8.0610    1.3410   11.6750 C   0  0  0  0  0  0  0  0  0  0  0  0
   -7.4120    1.0920   12.9170 O   0  0  0  0  0  0  0  0  0  0  0  0
   -7.1090    4.7560   12.7620 C   0  0  1  0  0  0  0  0  0  0  0  0
   -6.3780    5.2490   11.6290 O   0  0  0  0  0  0  0  0  0  0  0  0
   -7.5750    5.9870   13.5720 C   0  0  2  0  0  0  0  0  0  0  0  0
   -6.4250    6.6430   14.1350 O   0  0  0  0  0  0  0  0  0  0  0  0
   -8.5360    5.5730   14.6760 C   0  0  0  0  0  0  0  0  0  0  0  0
  -10.3840    5.9650   12.6190 H   0  0  0  0  0  0  0  0  0  0  0  0
  -10.2777    3.3660   12.5032 H   0  0  0  0  0  0  0  0  0  0  0  0
   -8.5967    2.9829   10.4156 H   0  0  0  0  0  0  0  0  0  0  0  0
   -6.8532    2.9469   11.0562 H   0  0  0  0  0  0  0  0  0  0  0  0
   -9.1282    1.0921   11.7706 H   0  0  0  0  0  0  0  0  0  0  0  0
   -7.5878    0.7184   10.9014 H   0  0  0  0  0  0  0  0  0  0  0  0
   -6.4680    0.9160   12.7210 H   0  0  0  0  0  0  0  0  0  0  0  0
   -6.4813    4.1232   13.4067 H   0  0  0  0  0  0  0  0  0  0  0  0
   -6.5730    6.1990   11.5730 H   0  0  0  0  0  0  0  0  0  0  0  0
   -8.1052    6.6795   12.9017 H   0  0  0  0  0  0  0  0  0  0  0  0
   -5.6800    6.3150   13.5980 H   0  0  0  0  0  0  0  0  0  0  0  0
   -8.0294    4.8743   15.3580 H   0  0  0  0  0  0  0  0  0  0  0  0
   -8.8571    6.4665   15.2316 H   0  0  0  0  0  0  0  0  0  0  0  0
  1  2  2  0
  2  3  1  0
  2  4  1  0
  4  5  1  6
  4  6  1  0
  6  7  2  0
  7  8  1  0
  8  9  1  0
  9 10  1  0
  7 11  1  0
 11 12  1  0
 11 13  1  0
 13 14  1  0
 13 15  1  0
 15  4  1  0
  5 16  1  0
  6 17  1  0
  8 18  1  0
  8 19  1  0
  9 20  1  0
  9 21  1  0
 10 22  1  0
 11 23  1  1
 12 24  1  0
 13 25  1  6
 14 26  1  0
 15 27  1  0
 15 28  1  0
M  CHG  1   3  -1
M  END
>  <meeko>  (5) 
{"is_sidechain": [false], "free_energy": -4.828, "intermolecular_energy": -6.225, "internal_energy": -0.215}

$$$$
4ciw_ligand
     RDKit          3D

 28 28  0  0  0  0  0  0  0  0999 V2000
   -2.9450    1.5170   13.9790 O   0  0  0  0  0  0  0  0  0  0  0  0
   -2.2410    0.7320   14.6910 C   0  0  0  0  0  0  0  0  0  0  0  0
   -2.2990    0.4810   15.9280 O   0  0  0  0  0  0  0  0  0  0  0  0
   -1.1650   -0.0620   13.8490 C   0  0  2  0  0  0  0  0  0  0  0  0
   -1.6790   -1.3830   13.5570 O   0  0  0  0  0  0  0  0  0  0  0  0
    0.0750   -0.2630   14.6880 C   0  0  0  0  0  0  0  0  0  0  0  0
    1.3280    0.0360   14.2880 C   0  0  0  0  0  0  0  0  0  0  0  0
    2.5330   -0.0100   15.2080 C   0  0  0  0  0  0  0  0  0  0  0  0
    2.2680   -0.1770   16.7070 C   0  0  0  0  0  0  0  0  0  0  0  0
    3.0480    0.7390   17.4680 O   0  0  0  0  0  0  0  0  0  0  0  0
    1.5660    0.5150   12.8710 C   0  0  1  0  0  0  0  0  0  0  0  0
    2.7250   -0.1180   12.3070 O   0  0  0  0  0  0  0  0  0  0  0  0
    0.3850    0.2300   11.9160 C   0  0  2  0  0  0  0  0  0  0  0  0
    0.6100    0.9150   10.6710 O   0  0  0  0  0  0  0  0  0  0  0  0
   -0.9290    0.6820   12.5350 C   0  0  0  0  0  0  0  0  0  0  0  0
   -1.5740   -1.4210   12.5730 H   0  0  0  0  0  0  0  0  0  0  0  0
   -0.0529   -0.6830   15.6966 H   0  0  0  0  0  0  0  0  0  0  0  0
    3.1609   -0.8545   14.8877 H   0  0  0  0  0  0  0  0  0  0  0  0
    2.9981    0.9823   15.1130 H   0  0  0  0  0  0  0  0  0  0  0  0
    1.2018    0.0061   16.9064 H   0  0  0  0  0  0  0  0  0  0  0  0
    2.5445   -1.2006   16.9999 H   0  0  0  0  0  0  0  0  0  0  0  0
    2.4600    1.1200   18.1550 H   0  0  0  0  0  0  0  0  0  0  0  0
    1.6981    1.6036   12.9579 H   0  0  0  0  0  0  0  0  0  0  0  0
    3.2310    0.5840   11.8660 H   0  0  0  0  0  0  0  0  0  0  0  0
    0.3207   -0.8532   11.7355 H   0  0  0  0  0  0  0  0  0  0  0  0
   -0.2880    1.1070   10.3420 H   0  0  0  0  0  0  0  0  0  0  0  0
   -0.8878    1.7638   12.7301 H   0  0  0  0  0  0  0  0  0  0  0  0
   -1.7527    0.4620   11.8399 H   0  0  0  0  0  0  0  0  0  0  0  0
  1  2  2  0
  2  3  1  0
  2  4  1  0
  4  5  1  6
  4  6  1  0
  6  7  2  0
  7  8  1  0
  8  9  1  0
  9 10  1  0
  7 11  1  0
 11 12  1  0
 11 13  1  0
 13 14  1  0
 13 15  1  0
 15  4  1  0
  5 16  1  0
  6 17  1  0
  8 18  1  0
  8 19  1  0
  9 20  1  0
  9 21  1  0
 10 22  1  0
 11 23  1  1
 12 24  1  0
 13 25  1  6
 14 26  1  0
 15 27  1  0
 15 28  1  0
M  CHG  1   3  -1
M  END
>  <meeko>  (6) 
{"is_sidechain": [false], "free_energy": -4.671, "intermolecular_energy": -6.081, "internal_energy": -0.156}

$$$$
4ciw_ligand
     RDKit          3D

 28 28  0  0  0  0  0  0  0  0999 V2000
  -10.9300    3.0540   12.0580 O   0  0  0  0  0  0  0  0  0  0  0  0
  -10.4400    3.1110   13.2310 C   0  0  0  0  0  0  0  0  0  0  0  0
  -10.8680    2.6270   14.3170 O   0  0  0  0  0  0  0  0  0  0  0  0
   -9.0600    3.8780   13.2830 C   0  0  2  0  0  0  0  0  0  0  0  0
   -7.9830    2.9190   13.1610 O   0  0  0  0  0  0  0  0  0  0  0  0
   -8.9020    4.5280   14.6370 C   0  0  0  0  0  0  0  0  0  0  0  0
   -8.5820    5.8230   14.8350 C   0  0  0  0  0  0  0  0  0  0  0  0
   -8.6000    6.4910   16.1960 C   0  0  0  0  0  0  0  0  0  0  0  0
   -9.5790    7.6510   16.3980 C   0  0  0  0  0  0  0  0  0  0  0  0
   -8.9320    8.9040   16.2060 O   0  0  0  0  0  0  0  0  0  0  0  0
   -8.2500    6.7000   13.6460 C   0  0  1  0  0  0  0  0  0  0  0  0
   -7.1080    7.5240   13.9230 O   0  0  0  0  0  0  0  0  0  0  0  0
   -7.9320    5.9040   12.3600 C   0  0  2  0  0  0  0  0  0  0  0  0
   -7.8570    6.8140   11.2480 O   0  0  0  0  0  0  0  0  0  0  0  0
   -8.9970    4.8490   12.1030 C   0  0  0  0  0  0  0  0  0  0  0  0
   -7.7550    3.0010   12.2010 H   0  0  0  0  0  0  0  0  0  0  0  0
   -9.0593    3.8996   15.5261 H   0  0  0  0  0  0  0  0  0  0  0  0
   -8.8456    5.7185   16.9396 H   0  0  0  0  0  0  0  0  0  0  0  0
   -7.6026    6.9427   16.3012 H   0  0  0  0  0  0  0  0  0  0  0  0
  -10.4024    7.5568   15.6747 H   0  0  0  0  0  0  0  0  0  0  0  0
   -9.9637    7.6095   17.4277 H   0  0  0  0  0  0  0  0  0  0  0  0
   -7.9810    8.7200   16.0520 H   0  0  0  0  0  0  0  0  0  0  0  0
   -9.1551    7.3018   13.4770 H   0  0  0  0  0  0  0  0  0  0  0  0
   -6.7940    7.2660   14.8050 H   0  0  0  0  0  0  0  0  0  0  0  0
   -6.9669    5.3910   12.4840 H   0  0  0  0  0  0  0  0  0  0  0  0
   -7.4900    6.2730   10.5250 H   0  0  0  0  0  0  0  0  0  0  0  0
   -9.9743    5.3389   11.9807 H   0  0  0  0  0  0  0  0  0  0  0  0
   -8.7440    4.2929   11.1883 H   0  0  0  0  0  0  0  0  0  0  0  0
  1  2  2  0
  2  3  1  0
  2  4  1  0
  4  5  1  6
  4  6  1  0
  6  7  2  0
  7  8  1  0
  8  9  1  0
  9 10  1  0
  7 11  1  0
 11 12  1  0
 11 13  1  0
 13 14  1  0
 13 15  1  0
 15  4  1  0
  5 16  1  0
  6 17  1  0
  8 18  1  0
  8 19  1  0
  9 20  1  0
  9 21  1  0
 10 22  1  0
 11 23  1  6
 12 24  1  0
 13 25  1  1
 14 26  1  0
 15 27  1  0
 15 28  1  0
M  CHG  1   3  -1
M  END
>  <meeko>  (7) 
{"is_sidechain": [false], "free_energy": -4.616, "intermolecular_energy": -5.842, "internal_energy": -0.323}

$$$$
4ciw_ligand
     RDKit          3D

 28 28  0  0  0  0  0  0  0  0999 V2000
   -9.4670    7.0980   16.8770 O   0  0  0  0  0  0  0  0  0  0  0  0
   -9.1120    7.1420   15.6560 C   0  0  0  0  0  0  0  0  0  0  0  0
   -9.0030    8.1290   14.8740 O   0  0  0  0  0  0  0  0  0  0  0  0
   -8.7140    5.7250   15.0810 C   0  0  2  0  0  0  0  0  0  0  0  0
   -7.5400    5.2470   15.7780 O   0  0  0  0  0  0  0  0  0  0  0  0
   -8.3190    5.8700   13.6300 C   0  0  0  0  0  0  0  0  0  0  0  0
   -8.8110    5.1200   12.6230 C   0  0  0  0  0  0  0  0  0  0  0  0
   -8.5320    5.3990   11.1580 C   0  0  0  0  0  0  0  0  0  0  0  0
   -7.1400    5.0410   10.6260 C   0  0  0  0  0  0  0  0  0  0  0  0
   -6.6630    3.8370   11.2160 O   0  0  0  0  0  0  0  0  0  0  0  0
   -9.7520    3.9750   12.9330 C   0  0  1  0  0  0  0  0  0  0  0  0
   -9.4180    2.8150   12.1570 O   0  0  0  0  0  0  0  0  0  0  0  0
   -9.7340    3.5460   14.4180 C   0  0  2  0  0  0  0  0  0  0  0  0
  -10.8100    2.6220   14.6550 O   0  0  0  0  0  0  0  0  0  0  0  0
   -9.8700    4.7560   15.3300 C   0  0  0  0  0  0  0  0  0  0  0  0
   -7.3740    4.3870   15.3150 H   0  0  0  0  0  0  0  0  0  0  0  0
   -7.5775    6.6421   13.3770 H   0  0  0  0  0  0  0  0  0  0  0  0
   -9.2670    4.8318   10.5680 H   0  0  0  0  0  0  0  0  0  0  0  0
   -8.5979    6.4928   11.0618 H   0  0  0  0  0  0  0  0  0  0  0  0
   -7.1944    4.9101    9.5352 H   0  0  0  0  0  0  0  0  0  0  0  0
   -6.4466    5.8556   10.8821 H   0  0  0  0  0  0  0  0  0  0  0  0
   -6.9910    3.8170   12.1400 H   0  0  0  0  0  0  0  0  0  0  0  0
  -10.7534    4.3562   12.6842 H   0  0  0  0  0  0  0  0  0  0  0  0
   -9.4770    3.0850   11.2260 H   0  0  0  0  0  0  0  0  0  0  0  0
   -8.7730    3.0591   14.6402 H   0  0  0  0  0  0  0  0  0  0  0  0
  -10.4490    2.0040   15.3170 H   0  0  0  0  0  0  0  0  0  0  0  0
  -10.8234    5.2641   15.1228 H   0  0  0  0  0  0  0  0  0  0  0  0
   -9.8466    4.4247   16.3787 H   0  0  0  0  0  0  0  0  0  0  0  0
  1  2  2  0
  2  3  1  0
  2  4  1  0
  4  5  1  1
  4  6  1  0
  6  7  2  0
  7  8  1  0
  8  9  1  0
  9 10  1  0
  7 11  1  0
 11 12  1  0
 11 13  1  0
 13 14  1  0
 13 15  1  0
 15  4  1  0
  5 16  1  0
  6 17  1  0
  8 18  1  0
  8 19  1  0
  9 20  1  0
  9 21  1  0
 10 22  1  0
 11 23  1  6
 12 24  1  0
 13 25  1  1
 14 26  1  0
 15 27  1  0
 15 28  1  0
M  CHG  1   3  -1
M  END
>  <meeko>  (8) 
{"is_sidechain": [false], "free_energy": -4.535, "intermolecular_energy": -5.622, "internal_energy": -0.438}

$$$$
