4w9h_ligand
     RDKit          3D

 65 67  0  0  0  0  0  0  0  0999 V2000
    9.6590   56.2690   95.5520 C   0  0  0  0  0  0  0  0  0  0  0  0
   10.9060   55.7280   94.9060 C   0  0  0  0  0  0  0  0  0  0  0  0
   11.8350   56.4520   94.5640 O   0  0  0  0  0  0  0  0  0  0  0  0
   10.8990   54.3620   94.7280 N   0  0  0  0  0  0  0  0  0  0  0  0
   11.9520   53.7180   93.9360 C   0  0  2  0  0  0  0  0  0  0  0  0
   11.3990   53.6630   92.4880 C   0  0  0  0  0  0  0  0  0  0  0  0
   10.2250   53.3300   92.2730 O   0  0  0  0  0  0  0  0  0  0  0  0
   12.2380   53.9750   91.4430 N   0  0  0  0  0  0  0  0  0  0  0  0
   13.6010   54.4770   91.5450 C   0  0  0  0  0  0  0  0  0  0  0  0
   14.0540   54.7030   90.1020 C   0  0  2  0  0  0  0  0  0  0  0  0
   14.9830   55.7650   89.9780 O   0  0  0  0  0  0  0  0  0  0  0  0
   12.7470   55.0620   89.4030 C   0  0  0  0  0  0  0  0  0  0  0  0
   11.7260   54.1470   90.0760 C   0  0  1  0  0  0  0  0  0  0  0  0
   11.6070   52.7790   89.3720 C   0  0  0  0  0  0  0  0  0  0  0  0
   12.2100   51.7750   89.7440 O   0  0  0  0  0  0  0  0  0  0  0  0
   10.7640   52.7910   88.2820 N   0  0  0  0  0  0  0  0  0  0  0  0
   10.4430   51.5960   87.5420 C   0  0  0  0  0  0  0  0  0  0  0  0
   11.2920   51.4690   86.3030 C   0  0  0  0  0  0  0  0  0  0  0  0
   11.5460   50.2090   85.7460 C   0  0  0  0  0  0  0  0  0  0  0  0
   12.3220   50.0850   84.5900 C   0  0  0  0  0  0  0  0  0  0  0  0
   12.8520   51.2180   83.9590 C   0  0  0  0  0  0  0  0  0  0  0  0
   13.6560   51.0770   82.7410 C   0  0  0  0  0  0  0  0  0  0  0  0
   13.0500   50.1750   81.4050 S   0  0  0  0  0  0  0  0  0  0  0  0
   14.4710   50.5340   80.5260 C   0  0  0  0  0  0  0  0  0  0  0  0
   15.3630   51.2720   81.1440 N   0  0  0  0  0  0  0  0  0  0  0  0
   14.9060   51.5910   82.4160 C   0  0  0  0  0  0  0  0  0  0  0  0
   15.7900   52.4290   83.2710 C   0  0  0  0  0  0  0  0  0  0  0  0
   12.5840   52.4780   84.5110 C   0  0  0  0  0  0  0  0  0  0  0  0
   11.8130   52.6030   85.6710 C   0  0  0  0  0  0  0  0  0  0  0  0
   12.3410   52.3170   94.5070 C   0  0  0  0  0  0  0  0  0  0  0  0
   13.3790   52.4670   95.6350 C   0  0  0  0  0  0  0  0  0  0  0  0
   12.9160   51.3690   93.4380 C   0  0  0  0  0  0  0  0  0  0  0  0
   11.0860   51.6510   95.1110 C   0  0  0  0  0  0  0  0  0  0  0  0
    9.7636   56.2236   96.6461 H   0  0  0  0  0  0  0  0  0  0  0  0
    9.5085   57.3133   95.2410 H   0  0  0  0  0  0  0  0  0  0  0  0
    8.7935   55.6654   95.2410 H   0  0  0  0  0  0  0  0  0  0  0  0
    9.9860   53.9250   94.6740 H   0  0  0  0  0  0  0  0  0  0  0  0
   12.8959   54.2819   93.9680 H   0  0  0  0  0  0  0  0  0  0  0  0
   13.6231   55.4214   92.1086 H   0  0  0  0  0  0  0  0  0  0  0  0
   14.2591   53.7745   92.0773 H   0  0  0  0  0  0  0  0  0  0  0  0
   14.5741   53.8274   89.6861 H   0  0  0  0  0  0  0  0  0  0  0  0
   14.5570   56.4760   89.4710 H   0  0  0  0  0  0  0  0  0  0  0  0
   12.4928   56.1204   89.5620 H   0  0  0  0  0  0  0  0  0  0  0  0
   12.7915   54.9286   88.3120 H   0  0  0  0  0  0  0  0  0  0  0  0
   10.7161   54.5816   90.0404 H   0  0  0  0  0  0  0  0  0  0  0  0
   10.1770   53.6140   88.1520 H   0  0  0  0  0  0  0  0  0  0  0  0
   10.6155   50.7203   88.1849 H   0  0  0  0  0  0  0  0  0  0  0  0
    9.3887   51.6536   87.2336 H   0  0  0  0  0  0  0  0  0  0  0  0
   11.1309   49.3088   86.2228 H   0  0  0  0  0  0  0  0  0  0  0  0
   12.5187   49.0870   84.1712 H   0  0  0  0  0  0  0  0  0  0  0  0
   14.6289   50.1675   79.5010 H   0  0  0  0  0  0  0  0  0  0  0  0
   15.5754   52.2256   84.3305 H   0  0  0  0  0  0  0  0  0  0  0  0
   16.8419   52.1886   83.0572 H   0  0  0  0  0  0  0  0  0  0  0  0
   15.6061   53.4922   83.0572 H   0  0  0  0  0  0  0  0  0  0  0  0
   12.9852   53.3800   84.0257 H   0  0  0  0  0  0  0  0  0  0  0  0
   11.6147   53.6007   86.0897 H   0  0  0  0  0  0  0  0  0  0  0  0
   12.8744   52.3941   96.6097 H   0  0  0  0  0  0  0  0  0  0  0  0
   14.1304   51.6681   95.5504 H   0  0  0  0  0  0  0  0  0  0  0  0
   13.8735   53.4459   95.5504 H   0  0  0  0  0  0  0  0  0  0  0  0
   13.4262   50.5278   93.9301 H   0  0  0  0  0  0  0  0  0  0  0  0
   12.0983   50.9853   92.8102 H   0  0  0  0  0  0  0  0  0  0  0  0
   13.6342   51.9168   92.8102 H   0  0  0  0  0  0  0  0  0  0  0  0
   11.1463   51.6830   96.2089 H   0  0  0  0  0  0  0  0  0  0  0  0
   10.1877   52.1911   94.7772 H   0  0  0  0  0  0  0  0  0  0  0  0
   11.0297   50.6044   94.7772 H   0  0  0  0  0  0  0  0  0  0  0  0
  1  2  1  0
  2  3  2  0
  2  4  1  0
  4  5  1  0
  5  6  1  0
  6  7  2  0
  6  8  1  0
  8  9  1  0
  9 10  1  0
 10 11  1  0
 10 12  1  0
 12 13  1  0
 13 14  1  0
 14 15  2  0
 14 16  1  0
 16 17  1  0
 17 18  1  0
 18 19  2  0
 19 20  1  0
 20 21  2  0
 21 22  1  0
 22 23  1  0
 23 24  1  0
 24 25  2  0
 25 26  1  0
 26 27  1  0
 21 28  1  0
 28 29  2  0
  5 30  1  0
 30 31  1  0
 30 32  1  0
 30 33  1  0
 13  8  1  0
 29 18  1  0
 26 22  2  0
  1 34  1  0
  1 35  1  0
  1 36  1  0
  4 37  1  0
  5 38  1  6
  9 39  1  0
  9 40  1  0
 10 41  1  6
 11 42  1  0
 12 43  1  0
 12 44  1  0
 13 45  1  1
 16 46  1  0
 17 47  1  0
 17 48  1  0
 19 49  1  0
 20 50  1  0
 24 51  1  0
 27 52  1  0
 27 53  1  0
 27 54  1  0
 28 55  1  0
 29 56  1  0
 31 57  1  0
 31 58  1  0
 31 59  1  0
 32 60  1  0
 32 61  1  0
 32 62  1  0
 33 63  1  0
 33 64  1  0
 33 65  1  0
M  END
>  <meeko>  (1) 
{"is_sidechain": [false], "free_energy": -8.269, "intermolecular_energy": -12.378, "internal_energy": -1.242}

$$$$
4w9h_ligand
     RDKit          3D

 65 67  0  0  0  0  0  0  0  0999 V2000
    9.4330   56.3830   95.4950 C   0  0  0  0  0  0  0  0  0  0  0  0
   10.7200   55.8150   94.9590 C   0  0  0  0  0  0  0  0  0  0  0  0
   11.7380   56.4900   94.8470 O   0  0  0  0  0  0  0  0  0  0  0  0
   10.6420   54.4870   94.6030 N   0  0  0  0  0  0  0  0  0  0  0  0
   11.7500   53.8520   93.8830 C   0  0  2  0  0  0  0  0  0  0  0  0
   11.2710   53.7380   92.4120 C   0  0  0  0  0  0  0  0  0  0  0  0
   10.1110   53.3920   92.1510 O   0  0  0  0  0  0  0  0  0  0  0  0
   12.1620   54.0150   91.4000 N   0  0  0  0  0  0  0  0  0  0  0  0
   13.5120   54.5380   91.5510 C   0  0  0  0  0  0  0  0  0  0  0  0
   14.0390   54.7060   90.1260 C   0  0  2  0  0  0  0  0  0  0  0  0
   14.9620   55.7730   90.0030 O   0  0  0  0  0  0  0  0  0  0  0  0
   12.7680   55.0150   89.3420 C   0  0  0  0  0  0  0  0  0  0  0  0
   11.7230   54.1180   90.0010 C   0  0  1  0  0  0  0  0  0  0  0  0
   11.6560   52.7180   89.3560 C   0  0  0  0  0  0  0  0  0  0  0  0
   12.1490   51.7150   89.8670 O   0  0  0  0  0  0  0  0  0  0  0  0
   10.9960   52.6990   88.1460 N   0  0  0  0  0  0  0  0  0  0  0  0
   10.7430   51.4760   87.4240 C   0  0  0  0  0  0  0  0  0  0  0  0
   11.5440   51.4140   86.1480 C   0  0  0  0  0  0  0  0  0  0  0  0
   12.1670   52.5640   85.6470 C   0  0  0  0  0  0  0  0  0  0  0  0
   12.9210   52.5100   84.4710 C   0  0  0  0  0  0  0  0  0  0  0  0
   13.0790   51.3040   83.7770 C   0  0  0  0  0  0  0  0  0  0  0  0
   13.8810   51.2570   82.5500 C   0  0  0  0  0  0  0  0  0  0  0  0
   15.4660   51.9280   82.5290 S   0  0  0  0  0  0  0  0  0  0  0  0
   15.6410   51.4480   80.8980 C   0  0  0  0  0  0  0  0  0  0  0  0
   14.6150   50.8260   80.3640 N   0  0  0  0  0  0  0  0  0  0  0  0
   13.5990   50.7090   81.3040 C   0  0  0  0  0  0  0  0  0  0  0  0
   12.3470   50.0270   80.8780 C   0  0  0  0  0  0  0  0  0  0  0  0
   12.4660   50.1520   84.2890 C   0  0  0  0  0  0  0  0  0  0  0  0
   11.7060   50.2050   85.4620 C   0  0  0  0  0  0  0  0  0  0  0  0
   12.1500   52.4810   94.5150 C   0  0  0  0  0  0  0  0  0  0  0  0
   13.2210   52.6820   95.6020 C   0  0  0  0  0  0  0  0  0  0  0  0
   12.6880   51.4740   93.4800 C   0  0  0  0  0  0  0  0  0  0  0  0
   10.9100   51.8550   95.1890 C   0  0  0  0  0  0  0  0  0  0  0  0
    9.4574   56.3723   96.5947 H   0  0  0  0  0  0  0  0  0  0  0  0
    9.3133   57.4176   95.1410 H   0  0  0  0  0  0  0  0  0  0  0  0
    8.5880   55.7742   95.1410 H   0  0  0  0  0  0  0  0  0  0  0  0
    9.7170   54.1430   94.3670 H   0  0  0  0  0  0  0  0  0  0  0  0
   12.6747   54.4447   93.9431 H   0  0  0  0  0  0  0  0  0  0  0  0
   13.4943   55.5065   92.0723 H   0  0  0  0  0  0  0  0  0  0  0  0
   14.1479   53.8678   92.1480 H   0  0  0  0  0  0  0  0  0  0  0  0
   14.5904   53.8197   89.7790 H   0  0  0  0  0  0  0  0  0  0  0  0
   15.7350   55.4440   89.5130 H   0  0  0  0  0  0  0  0  0  0  0  0
   12.4938   56.0759   89.4380 H   0  0  0  0  0  0  0  0  0  0  0  0
   12.8729   54.8328   88.2623 H   0  0  0  0  0  0  0  0  0  0  0  0
   10.7121   54.5375   89.8912 H   0  0  0  0  0  0  0  0  0  0  0  0
   10.4720   53.5340   87.8840 H   0  0  0  0  0  0  0  0  0  0  0  0
   11.0170   50.6216   88.0603 H   0  0  0  0  0  0  0  0  0  0  0  0
    9.6747   51.4425   87.1638 H   0  0  0  0  0  0  0  0  0  0  0  0
   12.0621   53.5184   86.1837 H   0  0  0  0  0  0  0  0  0  0  0  0
   13.3954   53.4250   84.0866 H   0  0  0  0  0  0  0  0  0  0  0  0
   16.5603   51.6486   80.3282 H   0  0  0  0  0  0  0  0  0  0  0  0
   11.7777   49.7169   81.7667 H   0  0  0  0  0  0  0  0  0  0  0  0
   11.7392   50.7187   80.2762 H   0  0  0  0  0  0  0  0  0  0  0  0
   12.5985   49.1412   80.2762 H   0  0  0  0  0  0  0  0  0  0  0  0
   12.5842   49.1940   83.7615 H   0  0  0  0  0  0  0  0  0  0  0  0
   11.2324   49.2902   85.8479 H   0  0  0  0  0  0  0  0  0  0  0  0
   12.7563   52.5948   96.5952 H   0  0  0  0  0  0  0  0  0  0  0  0
   14.0017   51.9147   95.4938 H   0  0  0  0  0  0  0  0  0  0  0  0
   13.6704   53.6802   95.4938 H   0  0  0  0  0  0  0  0  0  0  0  0
   13.1442   50.6200   94.0021 H   0  0  0  0  0  0  0  0  0  0  0  0
   11.8597   51.1183   92.8496 H   0  0  0  0  0  0  0  0  0  0  0  0
   13.4441   51.9648   92.8496 H   0  0  0  0  0  0  0  0  0  0  0  0
   11.0197   51.9104   96.2821 H   0  0  0  0  0  0  0  0  0  0  0  0
   10.0087   52.4061   94.8825 H   0  0  0  0  0  0  0  0  0  0  0  0
   10.8182   50.8025   94.8825 H   0  0  0  0  0  0  0  0  0  0  0  0
  1  2  1  0
  2  3  2  0
  2  4  1  0
  4  5  1  0
  5  6  1  0
  6  7  2  0
  6  8  1  0
  8  9  1  0
  9 10  1  0
 10 11  1  0
 10 12  1  0
 12 13  1  0
 13 14  1  0
 14 15  2  0
 14 16  1  0
 16 17  1  0
 17 18  1  0
 18 19  2  0
 19 20  1  0
 20 21  2  0
 21 22  1  0
 22 23  1  0
 23 24  1  0
 24 25  2  0
 25 26  1  0
 26 27  1  0
 21 28  1  0
 28 29  2  0
  5 30  1  0
 30 31  1  0
 30 32  1  0
 30 33  1  0
 13  8  1  0
 29 18  1  0
 26 22  2  0
  1 34  1  0
  1 35  1  0
  1 36  1  0
  4 37  1  0
  5 38  1  6
  9 39  1  0
  9 40  1  0
 10 41  1  6
 11 42  1  0
 12 43  1  0
 12 44  1  0
 13 45  1  1
 16 46  1  0
 17 47  1  0
 17 48  1  0
 19 49  1  0
 20 50  1  0
 24 51  1  0
 27 52  1  0
 27 53  1  0
 27 54  1  0
 28 55  1  0
 29 56  1  0
 31 57  1  0
 31 58  1  0
 31 59  1  0
 32 60  1  0
 32 61  1  0
 32 62  1  0
 33 63  1  0
 33 64  1  0
 33 65  1  0
M  END
>  <meeko>  (2) 
{"is_sidechain": [false], "free_energy": -8.159, "intermolecular_energy": -12.267, "internal_energy": -1.188}

$$$$
4w9h_ligand
     RDKit          3D

 65 67  0  0  0  0  0  0  0  0999 V2000
    8.0770   51.3840   92.2970 C   0  0  0  0  0  0  0  0  0  0  0  0
    8.8390   52.6810   92.2740 C   0  0  0  0  0  0  0  0  0  0  0  0
    8.5990   53.5680   91.4620 O   0  0  0  0  0  0  0  0  0  0  0  0
    9.8250   52.7700   93.2310 N   0  0  0  0  0  0  0  0  0  0  0  0
   10.7780   53.8840   93.2050 C   0  0  2  0  0  0  0  0  0  0  0  0
   12.1150   53.2680   92.7150 C   0  0  0  0  0  0  0  0  0  0  0  0
   12.6730   52.3740   93.3650 O   0  0  0  0  0  0  0  0  0  0  0  0
   12.6790   53.7420   91.5530 N   0  0  0  0  0  0  0  0  0  0  0  0
   14.0230   54.2820   91.3990 C   0  0  0  0  0  0  0  0  0  0  0  0
   14.1200   54.7040   89.9320 C   0  0  2  0  0  0  0  0  0  0  0  0
   14.9830   55.8100   89.7350 O   0  0  0  0  0  0  0  0  0  0  0  0
   12.6810   55.0930   89.6090 C   0  0  0  0  0  0  0  0  0  0  0  0
   11.8580   54.0620   90.3770 C   0  0  1  0  0  0  0  0  0  0  0  0
   11.5890   52.7870   89.5490 C   0  0  0  0  0  0  0  0  0  0  0  0
   12.0230   51.6800   89.8560 O   0  0  0  0  0  0  0  0  0  0  0  0
   10.8220   53.0110   88.4260 N   0  0  0  0  0  0  0  0  0  0  0  0
   10.3800   51.9390   87.5680 C   0  0  0  0  0  0  0  0  0  0  0  0
   11.2880   51.7780   86.3760 C   0  0  0  0  0  0  0  0  0  0  0  0
   11.4320   50.5270   85.7620 C   0  0  0  0  0  0  0  0  0  0  0  0
   12.2630   50.3730   84.6470 C   0  0  0  0  0  0  0  0  0  0  0  0
   12.9580   51.4670   84.1160 C   0  0  0  0  0  0  0  0  0  0  0  0
   13.8170   51.2960   82.9410 C   0  0  0  0  0  0  0  0  0  0  0  0
   15.3690   52.0420   82.8900 S   0  0  0  0  0  0  0  0  0  0  0  0
   15.6420   51.3530   81.3500 C   0  0  0  0  0  0  0  0  0  0  0  0
   14.6730   50.6120   80.8670 N   0  0  0  0  0  0  0  0  0  0  0  0
   13.6210   50.5700   81.7720 C   0  0  0  0  0  0  0  0  0  0  0  0
   12.4230   49.7710   81.3940 C   0  0  0  0  0  0  0  0  0  0  0  0
   12.7990   52.7200   84.7250 C   0  0  0  0  0  0  0  0  0  0  0  0
   11.9740   52.8740   85.8430 C   0  0  0  0  0  0  0  0  0  0  0  0
   10.8910   54.5920   94.5920 C   0  0  0  0  0  0  0  0  0  0  0  0
   11.2280   53.5680   95.6920 C   0  0  0  0  0  0  0  0  0  0  0  0
    9.6050   55.3370   94.9970 C   0  0  0  0  0  0  0  0  0  0  0  0
   12.0430   55.6200   94.5420 C   0  0  0  0  0  0  0  0  0  0  0  0
    7.8993   51.0816   93.3396 H   0  0  0  0  0  0  0  0  0  0  0  0
    7.1129   51.5160   91.7841 H   0  0  0  0  0  0  0  0  0  0  0  0
    8.6617   50.6061   91.7841 H   0  0  0  0  0  0  0  0  0  0  0  0
   10.1960   51.8890   93.5720 H   0  0  0  0  0  0  0  0  0  0  0  0
   10.4528   54.6889   92.5295 H   0  0  0  0  0  0  0  0  0  0  0  0
   14.1685   55.1490   92.0602 H   0  0  0  0  0  0  0  0  0  0  0  0
   14.7951   53.5457   91.6669 H   0  0  0  0  0  0  0  0  0  0  0  0
   14.5360   53.9090   89.2957 H   0  0  0  0  0  0  0  0  0  0  0  0
   14.8950   56.0940   88.8090 H   0  0  0  0  0  0  0  0  0  0  0  0
   12.4605   56.1126   89.9581 H   0  0  0  0  0  0  0  0  0  0  0  0
   12.4679   55.0967   88.5299 H   0  0  0  0  0  0  0  0  0  0  0  0
   10.8645   54.4580   90.6342 H   0  0  0  0  0  0  0  0  0  0  0  0
   10.3630   53.9180   88.3450 H   0  0  0  0  0  0  0  0  0  0  0  0
   10.3735   51.0007   88.1421 H   0  0  0  0  0  0  0  0  0  0  0  0
    9.3707   52.1811   87.2038 H   0  0  0  0  0  0  0  0  0  0  0  0
   10.8870   49.6583   86.1600 H   0  0  0  0  0  0  0  0  0  0  0  0
   12.3717   49.3819   84.1823 H   0  0  0  0  0  0  0  0  0  0  0  0
   16.5769   51.5212   80.7953 H   0  0  0  0  0  0  0  0  0  0  0  0
   11.9089   49.4281   82.3040 H   0  0  0  0  0  0  0  0  0  0  0  0
   11.7391   50.3945   80.7993 H   0  0  0  0  0  0  0  0  0  0  0  0
   12.7358   48.9001   80.7993 H   0  0  0  0  0  0  0  0  0  0  0  0
   13.3302   53.5929   84.3178 H   0  0  0  0  0  0  0  0  0  0  0  0
   11.8635   53.8651   86.3072 H   0  0  0  0  0  0  0  0  0  0  0  0
   11.0767   54.0278   96.6798 H   0  0  0  0  0  0  0  0  0  0  0  0
   10.5709   52.6917   95.5909 H   0  0  0  0  0  0  0  0  0  0  0  0
   12.2771   53.2532   95.5909 H   0  0  0  0  0  0  0  0  0  0  0  0
    9.5348   55.3777   96.0940 H   0  0  0  0  0  0  0  0  0  0  0  0
    9.6311   56.3598   94.5931 H   0  0  0  0  0  0  0  0  0  0  0  0
    8.7307   54.8055   94.5931 H   0  0  0  0  0  0  0  0  0  0  0  0
   12.3415   55.8863   95.5667 H   0  0  0  0  0  0  0  0  0  0  0  0
   12.9019   55.1827   94.0119 H   0  0  0  0  0  0  0  0  0  0  0  0
   11.7059   56.5230   94.0119 H   0  0  0  0  0  0  0  0  0  0  0  0
  1  2  1  0
  2  3  2  0
  2  4  1  0
  4  5  1  0
  5  6  1  0
  6  7  2  0
  6  8  1  0
  8  9  1  0
  9 10  1  0
 10 11  1  0
 10 12  1  0
 12 13  1  0
 13 14  1  0
 14 15  2  0
 14 16  1  0
 16 17  1  0
 17 18  1  0
 18 19  2  0
 19 20  1  0
 20 21  2  0
 21 22  1  0
 22 23  1  0
 23 24  1  0
 24 25  2  0
 25 26  1  0
 26 27  1  0
 21 28  1  0
 28 29  2  0
  5 30  1  0
 30 31  1  0
 30 32  1  0
 30 33  1  0
 13  8  1  0
 29 18  1  0
 26 22  2  0
  1 34  1  0
  1 35  1  0
  1 36  1  0
  4 37  1  0
  5 38  1  6
  9 39  1  0
  9 40  1  0
 10 41  1  6
 11 42  1  0
 12 43  1  0
 12 44  1  0
 13 45  1  1
 16 46  1  0
 17 47  1  0
 17 48  1  0
 19 49  1  0
 20 50  1  0
 24 51  1  0
 27 52  1  0
 27 53  1  0
 27 54  1  0
 28 55  1  0
 29 56  1  0
 31 57  1  0
 31 58  1  0
 31 59  1  0
 32 60  1  0
 32 61  1  0
 32 62  1  0
 33 63  1  0
 33 64  1  0
 33 65  1  0
M  END
>  <meeko>  (3) 
{"is_sidechain": [false], "free_energy": -7.877, "intermolecular_energy": -11.808, "internal_energy": -1.225}

$$$$
4w9h_ligand
     RDKit          3D

 65 67  0  0  0  0  0  0  0  0999 V2000
    8.4400   51.9880   94.8840 C   0  0  0  0  0  0  0  0  0  0  0  0
    9.1920   53.0350   94.1090 C   0  0  0  0  0  0  0  0  0  0  0  0
    8.7490   54.1650   93.9320 O   0  0  0  0  0  0  0  0  0  0  0  0
   10.4040   52.6060   93.6140 N   0  0  0  0  0  0  0  0  0  0  0  0
   11.1540   53.4450   92.6750 C   0  0  2  0  0  0  0  0  0  0  0  0
   11.3560   52.5670   91.4120 C   0  0  0  0  0  0  0  0  0  0  0  0
   12.1520   51.6180   91.4240 O   0  0  0  0  0  0  0  0  0  0  0  0
   10.6470   52.8690   90.2720 N   0  0  0  0  0  0  0  0  0  0  0  0
    9.3590   53.5450   90.2050 C   0  0  0  0  0  0  0  0  0  0  0  0
    9.0020   53.5810   88.7180 C   0  0  2  0  0  0  0  0  0  0  0  0
    7.6050   53.5390   88.4870 O   0  0  0  0  0  0  0  0  0  0  0  0
    9.6620   52.3100   88.1940 C   0  0  0  0  0  0  0  0  0  0  0  0
   10.9680   52.2400   88.9820 C   0  0  1  0  0  0  0  0  0  0  0  0
   12.1170   53.0000   88.2870 C   0  0  0  0  0  0  0  0  0  0  0  0
   13.0270   53.5530   88.9000 O   0  0  0  0  0  0  0  0  0  0  0  0
   12.0220   53.0060   86.9120 N   0  0  0  0  0  0  0  0  0  0  0  0
   13.0420   53.5810   86.0710 C   0  0  0  0  0  0  0  0  0  0  0  0
   13.2330   52.7790   84.8100 C   0  0  0  0  0  0  0  0  0  0  0  0
   12.1840   52.0050   84.2980 C   0  0  0  0  0  0  0  0  0  0  0  0
   12.3510   51.2690   83.1210 C   0  0  0  0  0  0  0  0  0  0  0  0
   13.5650   51.2990   82.4240 C   0  0  0  0  0  0  0  0  0  0  0  0
   13.7250   50.5310   81.1850 C   0  0  0  0  0  0  0  0  0  0  0  0
   12.6380   49.2460   80.8190 S   0  0  0  0  0  0  0  0  0  0  0  0
   13.4640   48.9760   79.3470 C   0  0  0  0  0  0  0  0  0  0  0  0
   14.4840   49.7640   79.1020 N   0  0  0  0  0  0  0  0  0  0  0  0
   14.6430   50.6620   80.1490 C   0  0  0  0  0  0  0  0  0  0  0  0
   15.7580   51.6420   80.0490 C   0  0  0  0  0  0  0  0  0  0  0  0
   14.6080   52.0850   82.9310 C   0  0  0  0  0  0  0  0  0  0  0  0
   14.4460   52.8170   84.1120 C   0  0  0  0  0  0  0  0  0  0  0  0
   12.4920   53.9640   93.2920 C   0  0  0  0  0  0  0  0  0  0  0  0
   12.2290   55.1800   94.2000 C   0  0  0  0  0  0  0  0  0  0  0  0
   13.5320   54.3640   92.2290 C   0  0  0  0  0  0  0  0  0  0  0  0
   13.1090   52.8510   94.1680 C   0  0  0  0  0  0  0  0  0  0  0  0
    8.5684   52.1668   95.9618 H   0  0  0  0  0  0  0  0  0  0  0  0
    7.3713   52.0397   94.6285 H   0  0  0  0  0  0  0  0  0  0  0  0
    8.8303   50.9918   94.6285 H   0  0  0  0  0  0  0  0  0  0  0  0
   10.4970   51.6050   93.4730 H   0  0  0  0  0  0  0  0  0  0  0  0
   10.6106   54.3672   92.4216 H   0  0  0  0  0  0  0  0  0  0  0  0
    8.5996   52.9851   90.7706 H   0  0  0  0  0  0  0  0  0  0  0  0
    9.4006   54.5534   90.6424 H   0  0  0  0  0  0  0  0  0  0  0  0
    9.3368   54.5087   88.2310 H   0  0  0  0  0  0  0  0  0  0  0  0
    7.4220   52.7800   87.9070 H   0  0  0  0  0  0  0  0  0  0  0  0
    9.0340   51.4292   88.3935 H   0  0  0  0  0  0  0  0  0  0  0  0
    9.8172   52.3238   87.1051 H   0  0  0  0  0  0  0  0  0  0  0  0
   11.3212   51.2027   89.0779 H   0  0  0  0  0  0  0  0  0  0  0  0
   11.3380   52.3800   86.4870 H   0  0  0  0  0  0  0  0  0  0  0  0
   12.7476   54.6061   85.8018 H   0  0  0  0  0  0  0  0  0  0  0  0
   13.9904   53.5802   86.6282 H   0  0  0  0  0  0  0  0  0  0  0  0
   11.2199   51.9759   84.8267 H   0  0  0  0  0  0  0  0  0  0  0  0
   11.5192   50.6595   82.7382 H   0  0  0  0  0  0  0  0  0  0  0  0
   13.1578   48.1864   78.6450 H   0  0  0  0  0  0  0  0  0  0  0  0
   16.0851   51.9295   81.0591 H   0  0  0  0  0  0  0  0  0  0  0  0
   16.5995   51.1859   79.5070 H   0  0  0  0  0  0  0  0  0  0  0  0
   15.4137   52.5351   79.5070 H   0  0  0  0  0  0  0  0  0  0  0  0
   15.5668   52.1271   82.3934 H   0  0  0  0  0  0  0  0  0  0  0  0
   15.2776   53.4268   84.4950 H   0  0  0  0  0  0  0  0  0  0  0  0
   12.2956   54.8719   95.2539 H   0  0  0  0  0  0  0  0  0  0  0  0
   12.9796   55.9581   93.9973 H   0  0  0  0  0  0  0  0  0  0  0  0
   11.2239   55.5784   93.9973 H   0  0  0  0  0  0  0  0  0  0  0  0
   14.4478   54.7162   92.7263 H   0  0  0  0  0  0  0  0  0  0  0  0
   13.7680   53.4925   91.6007 H   0  0  0  0  0  0  0  0  0  0  0  0
   13.1231   55.1690   91.6007 H   0  0  0  0  0  0  0  0  0  0  0  0
   12.9703   53.1012   95.2302 H   0  0  0  0  0  0  0  0  0  0  0  0
   12.6125   51.8942   93.9488 H   0  0  0  0  0  0  0  0  0  0  0  0
   14.1835   52.7652   93.9488 H   0  0  0  0  0  0  0  0  0  0  0  0
  1  2  1  0
  2  3  2  0
  2  4  1  0
  4  5  1  0
  5  6  1  0
  6  7  2  0
  6  8  1  0
  8  9  1  0
  9 10  1  0
 10 11  1  0
 10 12  1  0
 12 13  1  0
 13 14  1  0
 14 15  2  0
 14 16  1  0
 16 17  1  0
 17 18  1  0
 18 19  2  0
 19 20  1  0
 20 21  2  0
 21 22  1  0
 22 23  1  0
 23 24  1  0
 24 25  2  0
 25 26  1  0
 26 27  1  0
 21 28  1  0
 28 29  2  0
  5 30  1  0
 30 31  1  0
 30 32  1  0
 30 33  1  0
 13  8  1  0
 29 18  1  0
 26 22  2  0
  1 34  1  0
  1 35  1  0
  1 36  1  0
  4 37  1  0
  5 38  1  6
  9 39  1  0
  9 40  1  0
 10 41  1  6
 11 42  1  0
 12 43  1  0
 12 44  1  0
 13 45  1  1
 16 46  1  0
 17 47  1  0
 17 48  1  0
 19 49  1  0
 20 50  1  0
 24 51  1  0
 27 52  1  0
 27 53  1  0
 27 54  1  0
 28 55  1  0
 29 56  1  0
 31 57  1  0
 31 58  1  0
 31 59  1  0
 32 60  1  0
 32 61  1  0
 32 62  1  0
 33 63  1  0
 33 64  1  0
 33 65  1  0
M  END
>  <meeko>  (4) 
{"is_sidechain": [false], "free_energy": -7.656, "intermolecular_energy": -12.091, "internal_energy": -0.612}

$$$$
4w9h_ligand
     RDKit          3D

 65 67  0  0  0  0  0  0  0  0999 V2000
   13.5110   49.4830   92.3550 C   0  0  0  0  0  0  0  0  0  0  0  0
   12.4890   50.2540   93.1460 C   0  0  0  0  0  0  0  0  0  0  0  0
   11.6460   49.7000   93.8430 O   0  0  0  0  0  0  0  0  0  0  0  0
   12.5830   51.6210   93.0050 N   0  0  0  0  0  0  0  0  0  0  0  0
   11.5380   52.4900   93.5530 C   0  0  2  0  0  0  0  0  0  0  0  0
   11.1410   53.4350   92.3890 C   0  0  0  0  0  0  0  0  0  0  0  0
   10.0010   53.9160   92.3280 O   0  0  0  0  0  0  0  0  0  0  0  0
   12.0720   53.7210   91.4170 N   0  0  0  0  0  0  0  0  0  0  0  0
   13.4200   54.2270   91.6300 C   0  0  0  0  0  0  0  0  0  0  0  0
   14.0030   54.4150   90.2280 C   0  0  2  0  0  0  0  0  0  0  0  0
   14.9410   55.4750   90.1610 O   0  0  0  0  0  0  0  0  0  0  0  0
   12.7660   54.7520   89.4030 C   0  0  0  0  0  0  0  0  0  0  0  0
   11.6870   53.8550   90.0040 C   0  0  1  0  0  0  0  0  0  0  0  0
   11.6320   52.4670   89.3310 C   0  0  0  0  0  0  0  0  0  0  0  0
   12.0920   51.4500   89.8430 O   0  0  0  0  0  0  0  0  0  0  0  0
   11.0210   52.4790   88.0950 N   0  0  0  0  0  0  0  0  0  0  0  0
   10.7840   51.2730   87.3410 C   0  0  0  0  0  0  0  0  0  0  0  0
   11.5850   51.2550   86.0640 C   0  0  0  0  0  0  0  0  0  0  0  0
   12.1860   52.4280   85.5900 C   0  0  0  0  0  0  0  0  0  0  0  0
   12.9400   52.4150   84.4130 C   0  0  0  0  0  0  0  0  0  0  0  0
   13.1210   51.2290   83.6910 C   0  0  0  0  0  0  0  0  0  0  0  0
   13.9230   51.2250   82.4640 C   0  0  0  0  0  0  0  0  0  0  0  0
   15.5610   51.7570   82.5010 S   0  0  0  0  0  0  0  0  0  0  0  0
   15.7030   51.4140   80.8320 C   0  0  0  0  0  0  0  0  0  0  0  0
   14.6310   50.9350   80.2460 N   0  0  0  0  0  0  0  0  0  0  0  0
   13.6030   50.8200   81.1730 C   0  0  0  0  0  0  0  0  0  0  0  0
   12.3000   50.2900   80.6890 C   0  0  0  0  0  0  0  0  0  0  0  0
   12.5300   50.0540   84.1760 C   0  0  0  0  0  0  0  0  0  0  0  0
   11.7700   50.0660   85.3500 C   0  0  0  0  0  0  0  0  0  0  0  0
   12.0160   53.2470   94.8330 C   0  0  0  0  0  0  0  0  0  0  0  0
   11.1440   52.8600   96.0430 C   0  0  0  0  0  0  0  0  0  0  0  0
   11.9810   54.7790   94.6760 C   0  0  0  0  0  0  0  0  0  0  0  0
   13.4690   52.8330   95.1520 C   0  0  0  0  0  0  0  0  0  0  0  0
   14.1952   48.9668   93.0445 H   0  0  0  0  0  0  0  0  0  0  0  0
   13.0015   48.7423   91.7211 H   0  0  0  0  0  0  0  0  0  0  0  0
   14.0833   50.1763   91.7211 H   0  0  0  0  0  0  0  0  0  0  0  0
   13.0200   51.9510   92.1510 H   0  0  0  0  0  0  0  0  0  0  0  0
   10.6658   51.9175   93.9016 H   0  0  0  0  0  0  0  0  0  0  0  0
   13.3917   55.1861   92.1680 H   0  0  0  0  0  0  0  0  0  0  0  0
   14.0260   53.5400   92.2390 H   0  0  0  0  0  0  0  0  0  0  0  0
   14.5581   53.5295   89.8848 H   0  0  0  0  0  0  0  0  0  0  0  0
   14.4540   56.2910   89.9560 H   0  0  0  0  0  0  0  0  0  0  0  0
   12.4993   55.8139   89.5087 H   0  0  0  0  0  0  0  0  0  0  0  0
   12.9102   54.5881   88.3249 H   0  0  0  0  0  0  0  0  0  0  0  0
   10.6854   54.2873   89.8633 H   0  0  0  0  0  0  0  0  0  0  0  0
   10.5170   53.3250   87.8290 H   0  0  0  0  0  0  0  0  0  0  0  0
   11.0694   50.4057   87.9545 H   0  0  0  0  0  0  0  0  0  0  0  0
    9.7162   51.2327   87.0799 H   0  0  0  0  0  0  0  0  0  0  0  0
   12.0636   53.3676   86.1488 H   0  0  0  0  0  0  0  0  0  0  0  0
   13.3965   53.3475   84.0497 H   0  0  0  0  0  0  0  0  0  0  0  0
   16.6395   51.5851   80.2809 H   0  0  0  0  0  0  0  0  0  0  0  0
   11.6663   50.0322   81.5504 H   0  0  0  0  0  0  0  0  0  0  0  0
   11.7967   51.0549   80.0794 H   0  0  0  0  0  0  0  0  0  0  0  0
   12.4735   49.3910   80.0794 H   0  0  0  0  0  0  0  0  0  0  0  0
   12.6657   49.1109   83.6264 H   0  0  0  0  0  0  0  0  0  0  0  0
   11.3143   49.1337   85.7148 H   0  0  0  0  0  0  0  0  0  0  0  0
   11.6809   53.0983   96.9730 H   0  0  0  0  0  0  0  0  0  0  0  0
   10.2000   53.4237   96.0099 H   0  0  0  0  0  0  0  0  0  0  0  0
   10.9286   51.7818   96.0099 H   0  0  0  0  0  0  0  0  0  0  0  0
   11.9703   55.2493   95.6703 H   0  0  0  0  0  0  0  0  0  0  0  0
   12.8718   55.1113   94.1228 H   0  0  0  0  0  0  0  0  0  0  0  0
   11.0760   55.0703   94.1228 H   0  0  0  0  0  0  0  0  0  0  0  0
   13.6080   52.7934   96.2425 H   0  0  0  0  0  0  0  0  0  0  0  0
   13.6709   51.8416   94.7204 H   0  0  0  0  0  0  0  0  0  0  0  0
   14.1632   53.5691   94.7204 H   0  0  0  0  0  0  0  0  0  0  0  0
  1  2  1  0
  2  3  2  0
  2  4  1  0
  4  5  1  0
  5  6  1  0
  6  7  2  0
  6  8  1  0
  8  9  1  0
  9 10  1  0
 10 11  1  0
 10 12  1  0
 12 13  1  0
 13 14  1  0
 14 15  2  0
 14 16  1  0
 16 17  1  0
 17 18  1  0
 18 19  2  0
 19 20  1  0
 20 21  2  0
 21 22  1  0
 22 23  1  0
 23 24  1  0
 24 25  2  0
 25 26  1  0
 26 27  1  0
 21 28  1  0
 28 29  2  0
  5 30  1  0
 30 31  1  0
 30 32  1  0
 30 33  1  0
 13  8  1  0
 29 18  1  0
 26 22  2  0
  1 34  1  0
  1 35  1  0
  1 36  1  0
  4 37  1  0
  5 38  1  1
  9 39  1  0
  9 40  1  0
 10 41  1  6
 11 42  1  0
 12 43  1  0
 12 44  1  0
 13 45  1  1
 16 46  1  0
 17 47  1  0
 17 48  1  0
 19 49  1  0
 20 50  1  0
 24 51  1  0
 27 52  1  0
 27 53  1  0
 27 54  1  0
 28 55  1  0
 29 56  1  0
 31 57  1  0
 31 58  1  0
 31 59  1  0
 32 60  1  0
 32 61  1  0
 32 62  1  0
 33 63  1  0
 33 64  1  0
 33 65  1  0
M  END
>  <meeko>  (5) 
{"is_sidechain": [false], "free_energy": -7.255, "intermolecular_energy": -11.082, "internal_energy": -1.02}

$$$$
4w9h_ligand
     RDKit          3D

 65 67  0  0  0  0  0  0  0  0999 V2000
   14.0470   51.6110   96.0640 C   0  0  0  0  0  0  0  0  0  0  0  0
   13.4280   51.3910   94.7100 C   0  0  0  0  0  0  0  0  0  0  0  0
   14.0040   50.7760   93.8180 O   0  0  0  0  0  0  0  0  0  0  0  0
   12.1780   51.9500   94.5660 N   0  0  0  0  0  0  0  0  0  0  0  0
   11.5380   51.9910   93.2480 C   0  0  2  0  0  0  0  0  0  0  0  0
   11.6180   53.4740   92.8000 C   0  0  0  0  0  0  0  0  0  0  0  0
   10.9960   54.3530   93.4120 O   0  0  0  0  0  0  0  0  0  0  0  0
   12.3820   53.7970   91.7020 N   0  0  0  0  0  0  0  0  0  0  0  0
   13.7470   54.3050   91.7130 C   0  0  0  0  0  0  0  0  0  0  0  0
   14.0990   54.5410   90.2440 C   0  0  2  0  0  0  0  0  0  0  0  0
   15.0120   55.6090   90.0620 O   0  0  0  0  0  0  0  0  0  0  0  0
   12.7450   54.8960   89.6370 C   0  0  0  0  0  0  0  0  0  0  0  0
   11.7770   53.9730   90.3740 C   0  0  1  0  0  0  0  0  0  0  0  0
   11.6170   52.6070   89.6730 C   0  0  0  0  0  0  0  0  0  0  0  0
   12.1580   51.5780   90.0700 O   0  0  0  0  0  0  0  0  0  0  0  0
   10.8140   52.6530   88.5540 N   0  0  0  0  0  0  0  0  0  0  0  0
   10.4610   51.4690   87.8090 C   0  0  0  0  0  0  0  0  0  0  0  0
   11.2540   51.3660   86.5310 C   0  0  0  0  0  0  0  0  0  0  0  0
   11.5270   50.1120   85.9680 C   0  0  0  0  0  0  0  0  0  0  0  0
   12.2510   50.0100   84.7770 C   0  0  0  0  0  0  0  0  0  0  0  0
   12.7080   51.1570   84.1160 C   0  0  0  0  0  0  0  0  0  0  0  0
   13.4570   51.0380   82.8610 C   0  0  0  0  0  0  0  0  0  0  0  0
   12.7970   50.1480   81.5420 S   0  0  0  0  0  0  0  0  0  0  0  0
   14.1740   50.5290   80.6040 C   0  0  0  0  0  0  0  0  0  0  0  0
   15.0880   51.2670   81.1910 N   0  0  0  0  0  0  0  0  0  0  0  0
   14.6870   51.5660   82.4860 C   0  0  0  0  0  0  0  0  0  0  0  0
   15.6020   52.4000   83.3110 C   0  0  0  0  0  0  0  0  0  0  0  0
   12.4200   52.4100   84.6740 C   0  0  0  0  0  0  0  0  0  0  0  0
   11.7020   52.5140   85.8690 C   0  0  0  0  0  0  0  0  0  0  0  0
   10.0790   51.4320   93.2870 C   0  0  0  0  0  0  0  0  0  0  0  0
   10.0740   49.9250   92.9720 C   0  0  0  0  0  0  0  0  0  0  0  0
    9.1360   52.1410   92.2970 C   0  0  0  0  0  0  0  0  0  0  0  0
    9.5060   51.6160   94.7090 C   0  0  0  0  0  0  0  0  0  0  0  0
   13.3186   51.3521   96.8466 H   0  0  0  0  0  0  0  0  0  0  0  0
   14.9382   50.9746   96.1675 H   0  0  0  0  0  0  0  0  0  0  0  0
   14.3366   52.6671   96.1675 H   0  0  0  0  0  0  0  0  0  0  0  0
   11.9670   52.7320   95.1770 H   0  0  0  0  0  0  0  0  0  0  0  0
   12.0467   51.3395   92.5222 H   0  0  0  0  0  0  0  0  0  0  0  0
   13.8036   55.2464   92.2792 H   0  0  0  0  0  0  0  0  0  0  0  0
   14.4431   53.6026   92.1947 H   0  0  0  0  0  0  0  0  0  0  0  0
   14.5942   53.6703   89.7894 H   0  0  0  0  0  0  0  0  0  0  0  0
   15.1280   56.0500   90.9210 H   0  0  0  0  0  0  0  0  0  0  0  0
   12.4969   55.9523   89.8176 H   0  0  0  0  0  0  0  0  0  0  0  0
   12.7156   54.7672   88.5450 H   0  0  0  0  0  0  0  0  0  0  0  0
   10.7652   54.4030   90.4097 H   0  0  0  0  0  0  0  0  0  0  0  0
   10.2710   53.5020   88.4010 H   0  0  0  0  0  0  0  0  0  0  0  0
   10.6638   50.5828   88.4283 H   0  0  0  0  0  0  0  0  0  0  0  0
    9.3936   51.5285   87.5500 H   0  0  0  0  0  0  0  0  0  0  0  0
   11.1683   49.2001   86.4679 H   0  0  0  0  0  0  0  0  0  0  0  0
   12.4644   49.0173   84.3538 H   0  0  0  0  0  0  0  0  0  0  0  0
   14.2881   50.1764   79.5683 H   0  0  0  0  0  0  0  0  0  0  0  0
   15.4025   52.2181   84.3774 H   0  0  0  0  0  0  0  0  0  0  0  0
   16.6450   52.1355   83.0828 H   0  0  0  0  0  0  0  0  0  0  0  0
   15.4350   53.4630   83.0828 H   0  0  0  0  0  0  0  0  0  0  0  0
   12.7632   53.3230   84.1653 H   0  0  0  0  0  0  0  0  0  0  0  0
   11.4876   53.5065   86.2921 H   0  0  0  0  0  0  0  0  0  0  0  0
   10.0721   49.3539   93.9121 H   0  0  0  0  0  0  0  0  0  0  0  0
    9.1750   49.6752   92.3894 H   0  0  0  0  0  0  0  0  0  0  0  0
   10.9713   49.6692   92.3894 H   0  0  0  0  0  0  0  0  0  0  0  0
    8.3787   52.7104   92.8558 H   0  0  0  0  0  0  0  0  0  0  0  0
    9.7177   52.8274   91.6641 H   0  0  0  0  0  0  0  0  0  0  0  0
    8.6382   51.3916   91.6641 H   0  0  0  0  0  0  0  0  0  0  0  0
   10.2793   51.3677   95.4509 H   0  0  0  0  0  0  0  0  0  0  0  0
    9.1899   52.6608   94.8446 H   0  0  0  0  0  0  0  0  0  0  0  0
    8.6407   50.9506   94.8446 H   0  0  0  0  0  0  0  0  0  0  0  0
  1  2  1  0
  2  3  2  0
  2  4  1  0
  4  5  1  0
  5  6  1  0
  6  7  2  0
  6  8  1  0
  8  9  1  0
  9 10  1  0
 10 11  1  0
 10 12  1  0
 12 13  1  0
 13 14  1  0
 14 15  2  0
 14 16  1  0
 16 17  1  0
 17 18  1  0
 18 19  2  0
 19 20  1  0
 20 21  2  0
 21 22  1  0
 22 23  1  0
 23 24  1  0
 24 25  2  0
 25 26  1  0
 26 27  1  0
 21 28  1  0
 28 29  2  0
  5 30  1  0
 30 31  1  0
 30 32  1  0
 30 33  1  0
 13  8  1  0
 29 18  1  0
 26 22  2  0
  1 34  1  0
  1 35  1  0
  1 36  1  0
  4 37  1  0
  5 38  1  6
  9 39  1  0
  9 40  1  0
 10 41  1  6
 11 42  1  0
 12 43  1  0
 12 44  1  0
 13 45  1  1
 16 46  1  0
 17 47  1  0
 17 48  1  0
 19 49  1  0
 20 50  1  0
 24 51  1  0
 27 52  1  0
 27 53  1  0
 27 54  1  0
 28 55  1  0
 29 56  1  0
 31 57  1  0
 31 58  1  0
 31 59  1  0
 32 60  1  0
 32 61  1  0
 32 62  1  0
 33 63  1  0
 33 64  1  0
 33 65  1  0
M  END
>  <meeko>  (6) 
{"is_sidechain": [false], "free_energy": -7.204, "intermolecular_energy": -10.785, "internal_energy": -1.24}

$$$$
4w9h_ligand
     RDKit          3D

 65 67  0  0  0  0  0  0  0  0999 V2000
   14.5260   52.7570   84.0840 C   0  0  0  0  0  0  0  0  0  0  0  0
   13.1300   52.7880   84.6460 C   0  0  0  0  0  0  0  0  0  0  0  0
   12.8190   53.5070   85.5890 O   0  0  0  0  0  0  0  0  0  0  0  0
   12.2510   51.9360   84.0150 N   0  0  0  0  0  0  0  0  0  0  0  0
   10.9160   51.7100   84.5760 C   0  0  2  0  0  0  0  0  0  0  0  0
   11.0720   50.4960   85.5290 C   0  0  0  0  0  0  0  0  0  0  0  0
   11.8090   49.5470   85.2280 O   0  0  0  0  0  0  0  0  0  0  0  0
   10.3660   50.4830   86.7110 N   0  0  0  0  0  0  0  0  0  0  0  0
    9.4910   49.4210   87.1870 C   0  0  0  0  0  0  0  0  0  0  0  0
    8.9260   49.9310   88.5130 C   0  0  2  0  0  0  0  0  0  0  0  0
    7.6240   49.4410   88.7800 O   0  0  0  0  0  0  0  0  0  0  0  0
    8.8870   51.4390   88.2920 C   0  0  0  0  0  0  0  0  0  0  0  0
   10.1600   51.7100   87.4930 C   0  0  1  0  0  0  0  0  0  0  0  0
   11.3800   51.9790   88.4000 C   0  0  0  0  0  0  0  0  0  0  0  0
   12.0570   51.0840   88.9000 O   0  0  0  0  0  0  0  0  0  0  0  0
   11.6320   53.3180   88.6010 N   0  0  0  0  0  0  0  0  0  0  0  0
   12.7800   53.7840   89.3400 C   0  0  0  0  0  0  0  0  0  0  0  0
   12.4740   53.9110   90.8100 C   0  0  0  0  0  0  0  0  0  0  0  0
   13.4350   54.4230   91.6910 C   0  0  0  0  0  0  0  0  0  0  0  0
   13.1530   54.5560   93.0540 C   0  0  0  0  0  0  0  0  0  0  0  0
   11.9020   54.1900   93.5640 C   0  0  0  0  0  0  0  0  0  0  0  0
   11.6130   54.3430   94.9940 C   0  0  0  0  0  0  0  0  0  0  0  0
   11.6660   52.9740   96.0370 S   0  0  0  0  0  0  0  0  0  0  0  0
   11.2790   53.9790   97.3650 C   0  0  0  0  0  0  0  0  0  0  0  0
   11.1130   55.2530   97.0980 N   0  0  0  0  0  0  0  0  0  0  0  0
   11.3040   55.4750   95.7400 C   0  0  0  0  0  0  0  0  0  0  0  0
   11.1560   56.8710   95.2460 C   0  0  0  0  0  0  0  0  0  0  0  0
   10.9370   53.6910   92.6780 C   0  0  0  0  0  0  0  0  0  0  0  0
   11.2190   53.5520   91.3160 C   0  0  0  0  0  0  0  0  0  0  0  0
    9.8420   51.4910   83.4630 C   0  0  0  0  0  0  0  0  0  0  0  0
    9.0260   52.7790   83.2440 C   0  0  0  0  0  0  0  0  0  0  0  0
    8.8660   50.3440   83.7830 C   0  0  0  0  0  0  0  0  0  0  0  0
   10.5530   51.1570   82.1330 C   0  0  0  0  0  0  0  0  0  0  0  0
   15.2532   52.7409   84.9092 H   0  0  0  0  0  0  0  0  0  0  0  0
   14.6526   51.8558   83.4660 H   0  0  0  0  0  0  0  0  0  0  0  0
   14.6924   53.6517   83.4660 H   0  0  0  0  0  0  0  0  0  0  0  0
   12.6650   51.1380   83.5440 H   0  0  0  0  0  0  0  0  0  0  0  0
   10.5459   52.5881   85.1255 H   0  0  0  0  0  0  0  0  0  0  0  0
    8.6798   49.2379   86.4670 H   0  0  0  0  0  0  0  0  0  0  0  0
   10.0285   48.4689   87.3082 H   0  0  0  0  0  0  0  0  0  0  0  0
    9.5278   49.6070   89.3749 H   0  0  0  0  0  0  0  0  0  0  0  0
    7.6860   48.8260   89.5310 H   0  0  0  0  0  0  0  0  0  0  0  0
    7.9935   51.7305   87.7205 H   0  0  0  0  0  0  0  0  0  0  0  0
    8.8380   52.0105   89.2306 H   0  0  0  0  0  0  0  0  0  0  0  0
   10.0558   52.6112   86.8709 H   0  0  0  0  0  0  0  0  0  0  0  0
   11.1320   53.9840   88.0120 H   0  0  0  0  0  0  0  0  0  0  0  0
   13.6054   53.0692   89.2068 H   0  0  0  0  0  0  0  0  0  0  0  0
   13.0577   54.7772   88.9574 H   0  0  0  0  0  0  0  0  0  0  0  0
   14.4210   54.7233   91.3069 H   0  0  0  0  0  0  0  0  0  0  0  0
   13.9225   54.9525   93.7327 H   0  0  0  0  0  0  0  0  0  0  0  0
   11.1751   53.5804   98.3850 H   0  0  0  0  0  0  0  0  0  0  0  0
   11.0832   57.5573   96.1026 H   0  0  0  0  0  0  0  0  0  0  0  0
   12.0308   57.1385   94.6351 H   0  0  0  0  0  0  0  0  0  0  0  0
   10.2445   56.9491   94.6351 H   0  0  0  0  0  0  0  0  0  0  0  0
    9.9456   53.4053   93.0593 H   0  0  0  0  0  0  0  0  0  0  0  0
   10.4490   53.1576   90.6366 H   0  0  0  0  0  0  0  0  0  0  0  0
    8.7529   53.2101   84.2184 H   0  0  0  0  0  0  0  0  0  0  0  0
    9.6299   53.5040   82.6786 H   0  0  0  0  0  0  0  0  0  0  0  0
    8.1125   52.5427   82.6786 H   0  0  0  0  0  0  0  0  0  0  0  0
    8.7733   50.2350   84.8736 H   0  0  0  0  0  0  0  0  0  0  0  0
    7.8797   50.5708   83.3520 H   0  0  0  0  0  0  0  0  0  0  0  0
    9.2477   49.4067   83.3520 H   0  0  0  0  0  0  0  0  0  0  0  0
   11.5300   50.6980   82.3447 H   0  0  0  0  0  0  0  0  0  0  0  0
    9.9358   50.4546   81.5536 H   0  0  0  0  0  0  0  0  0  0  0  0
   10.6995   52.0805   81.5536 H   0  0  0  0  0  0  0  0  0  0  0  0
  1  2  1  0
  2  3  2  0
  2  4  1  0
  4  5  1  0
  5  6  1  0
  6  7  2  0
  6  8  1  0
  8  9  1  0
  9 10  1  0
 10 11  1  0
 10 12  1  0
 12 13  1  0
 13 14  1  0
 14 15  2  0
 14 16  1  0
 16 17  1  0
 17 18  1  0
 18 19  2  0
 19 20  1  0
 20 21  2  0
 21 22  1  0
 22 23  1  0
 23 24  1  0
 24 25  2  0
 25 26  1  0
 26 27  1  0
 21 28  1  0
 28 29  2  0
  5 30  1  0
 30 31  1  0
 30 32  1  0
 30 33  1  0
 13  8  1  0
 29 18  1  0
 26 22  2  0
  1 34  1  0
  1 35  1  0
  1 36  1  0
  4 37  1  0
  5 38  1  1
  9 39  1  0
  9 40  1  0
 10 41  1  1
 11 42  1  0
 12 43  1  0
 12 44  1  0
 13 45  1  6
 16 46  1  0
 17 47  1  0
 17 48  1  0
 19 49  1  0
 20 50  1  0
 24 51  1  0
 27 52  1  0
 27 53  1  0
 27 54  1  0
 28 55  1  0
 29 56  1  0
 31 57  1  0
 31 58  1  0
 31 59  1  0
 32 60  1  0
 32 61  1  0
 32 62  1  0
 33 63  1  0
 33 64  1  0
 33 65  1  0
M  END
>  <meeko>  (7) 
{"is_sidechain": [false], "free_energy": -6.875, "intermolecular_energy": -10.024, "internal_energy": -1.509}

$$$$
4w9h_ligand
     RDKit          3D

 65 67  0  0  0  0  0  0  0  0999 V2000
    8.6520   51.6630   80.5280 C   0  0  0  0  0  0  0  0  0  0  0  0
    9.0570   50.9530   81.7920 C   0  0  0  0  0  0  0  0  0  0  0  0
    8.4230   50.0050   82.2430 O   0  0  0  0  0  0  0  0  0  0  0  0
   10.1840   51.4710   82.3900 N   0  0  0  0  0  0  0  0  0  0  0  0
   10.5820   51.0160   83.7260 C   0  0  2  0  0  0  0  0  0  0  0  0
    9.9850   52.0570   84.7080 C   0  0  0  0  0  0  0  0  0  0  0  0
    9.9760   53.2630   84.4220 O   0  0  0  0  0  0  0  0  0  0  0  0
    9.4770   51.6220   85.9110 N   0  0  0  0  0  0  0  0  0  0  0  0
    8.6070   50.4730   86.1200 C   0  0  0  0  0  0  0  0  0  0  0  0
    8.3030   50.4690   87.6190 C   0  0  2  0  0  0  0  0  0  0  0  0
    7.0250   49.9360   87.9180 O   0  0  0  0  0  0  0  0  0  0  0  0
    8.3490   51.9530   87.9650 C   0  0  0  0  0  0  0  0  0  0  0  0
    9.4960   52.4790   87.1050 C   0  0  1  0  0  0  0  0  0  0  0  0
   10.8620   52.3760   87.8170 C   0  0  0  0  0  0  0  0  0  0  0  0
   11.6200   51.4180   87.6860 O   0  0  0  0  0  0  0  0  0  0  0  0
   11.1470   53.4590   88.6200 N   0  0  0  0  0  0  0  0  0  0  0  0
   12.4110   53.6020   89.3000 C   0  0  0  0  0  0  0  0  0  0  0  0
   12.2220   53.7750   90.7850 C   0  0  0  0  0  0  0  0  0  0  0  0
   11.0040   53.4340   91.3870 C   0  0  0  0  0  0  0  0  0  0  0  0
   10.8260   53.5800   92.7660 C   0  0  0  0  0  0  0  0  0  0  0  0
   11.8640   54.0590   93.5750 C   0  0  0  0  0  0  0  0  0  0  0  0
   11.6700   54.1980   95.0210 C   0  0  0  0  0  0  0  0  0  0  0  0
   11.8860   52.8380   96.0570 S   0  0  0  0  0  0  0  0  0  0  0  0
   11.5300   53.8210   97.4100 C   0  0  0  0  0  0  0  0  0  0  0  0
   11.2630   55.0810   97.1570 N   0  0  0  0  0  0  0  0  0  0  0  0
   11.3420   55.3100   95.7890 C   0  0  0  0  0  0  0  0  0  0  0  0
   11.0700   56.6920   95.3090 C   0  0  0  0  0  0  0  0  0  0  0  0
   13.0860   54.3860   92.9710 C   0  0  0  0  0  0  0  0  0  0  0  0
   13.2640   54.2470   91.5910 C   0  0  0  0  0  0  0  0  0  0  0  0
   12.1310   50.8590   83.8530 C   0  0  0  0  0  0  0  0  0  0  0  0
   12.4760   49.6500   84.7430 C   0  0  0  0  0  0  0  0  0  0  0  0
   12.8180   52.1070   84.4380 C   0  0  0  0  0  0  0  0  0  0  0  0
   12.7290   50.5950   82.4540 C   0  0  0  0  0  0  0  0  0  0  0  0
    8.1219   52.5924   80.7833 H   0  0  0  0  0  0  0  0  0  0  0  0
    9.5492   51.9027   79.9385 H   0  0  0  0  0  0  0  0  0  0  0  0
    7.9889   51.0127   79.9385 H   0  0  0  0  0  0  0  0  0  0  0  0
   10.3920   52.4420   82.1820 H   0  0  0  0  0  0  0  0  0  0  0  0
   10.1991   50.0095   83.9504 H   0  0  0  0  0  0  0  0  0  0  0  0
    7.6795   50.5803   85.5384 H   0  0  0  0  0  0  0  0  0  0  0  0
    9.0789   49.5346   85.7932 H   0  0  0  0  0  0  0  0  0  0  0  0
    9.0069   49.8419   88.1857 H   0  0  0  0  0  0  0  0  0  0  0  0
    6.3570   50.5620   87.5910 H   0  0  0  0  0  0  0  0  0  0  0  0
    7.4019   52.4479   87.7042 H   0  0  0  0  0  0  0  0  0  0  0  0
    8.4954   52.1402   89.0390 H   0  0  0  0  0  0  0  0  0  0  0  0
    9.3663   53.5473   86.8772 H   0  0  0  0  0  0  0  0  0  0  0  0
   10.5470   54.2790   88.5330 H   0  0  0  0  0  0  0  0  0  0  0  0
   13.0180   52.7027   89.1192 H   0  0  0  0  0  0  0  0  0  0  0  0
   12.9141   54.4987   88.9090 H   0  0  0  0  0  0  0  0  0  0  0  0
   10.1800   53.0478   90.7691 H   0  0  0  0  0  0  0  0  0  0  0  0
    9.8599   53.3157   93.2206 H   0  0  0  0  0  0  0  0  0  0  0  0
   11.5250   53.4202   98.4344 H   0  0  0  0  0  0  0  0  0  0  0  0
   10.9384   57.3608   96.1724 H   0  0  0  0  0  0  0  0  0  0  0  0
   11.9165   57.0419   94.6999 H   0  0  0  0  0  0  0  0  0  0  0  0
   10.1540   56.6950   94.6999 H   0  0  0  0  0  0  0  0  0  0  0  0
   13.9157   54.7568   93.5907 H   0  0  0  0  0  0  0  0  0  0  0  0
   14.2301   54.5106   91.1358 H   0  0  0  0  0  0  0  0  0  0  0  0
   12.3937   49.9384   85.8013 H   0  0  0  0  0  0  0  0  0  0  0  0
   11.7767   48.8277   84.5316 H   0  0  0  0  0  0  0  0  0  0  0  0
   13.5040   49.3206   84.5316 H   0  0  0  0  0  0  0  0  0  0  0  0
   12.7916   52.0590   85.5366 H   0  0  0  0  0  0  0  0  0  0  0  0
   13.8634   52.1436   84.0976 H   0  0  0  0  0  0  0  0  0  0  0  0
   12.2898   53.0098   84.0976 H   0  0  0  0  0  0  0  0  0  0  0  0
   13.7305   50.1528   82.5608 H   0  0  0  0  0  0  0  0  0  0  0  0
   12.0785   49.9004   81.9023 H   0  0  0  0  0  0  0  0  0  0  0  0
   12.8040   51.5437   81.9023 H   0  0  0  0  0  0  0  0  0  0  0  0
  1  2  1  0
  2  3  2  0
  2  4  1  0
  4  5  1  0
  5  6  1  0
  6  7  2  0
  6  8  1  0
  8  9  1  0
  9 10  1  0
 10 11  1  0
 10 12  1  0
 12 13  1  0
 13 14  1  0
 14 15  2  0
 14 16  1  0
 16 17  1  0
 17 18  1  0
 18 19  2  0
 19 20  1  0
 20 21  2  0
 21 22  1  0
 22 23  1  0
 23 24  1  0
 24 25  2  0
 25 26  1  0
 26 27  1  0
 21 28  1  0
 28 29  2  0
  5 30  1  0
 30 31  1  0
 30 32  1  0
 30 33  1  0
 13  8  1  0
 29 18  1  0
 26 22  2  0
  1 34  1  0
  1 35  1  0
  1 36  1  0
  4 37  1  0
  5 38  1  1
  9 39  1  0
  9 40  1  0
 10 41  1  1
 11 42  1  0
 12 43  1  0
 12 44  1  0
 13 45  1  6
 16 46  1  0
 17 47  1  0
 17 48  1  0
 19 49  1  0
 20 50  1  0
 24 51  1  0
 27 52  1  0
 27 53  1  0
 27 54  1  0
 28 55  1  0
 29 56  1  0
 31 57  1  0
 31 58  1  0
 31 59  1  0
 32 60  1  0
 32 61  1  0
 32 62  1  0
 33 63  1  0
 33 64  1  0
 33 65  1  0
M  END
>  <meeko>  (8) 
{"is_sidechain": [false], "free_energy": -6.618, "intermolecular_energy": -9.757, "internal_energy": -1.391}

$$$$
4w9h_ligand
     RDKit          3D

 65 67  0  0  0  0  0  0  0  0999 V2000
   13.5940   55.4580   90.0240 C   0  0  0  0  0  0  0  0  0  0  0  0
   13.5580   54.3460   91.0370 C   0  0  0  0  0  0  0  0  0  0  0  0
   14.4900   53.5620   91.1820 O   0  0  0  0  0  0  0  0  0  0  0  0
   12.3920   54.2870   91.7660 N   0  0  0  0  0  0  0  0  0  0  0  0
   12.1310   53.1440   92.6460 C   0  0  2  0  0  0  0  0  0  0  0  0
   10.8730   52.4530   92.0570 C   0  0  0  0  0  0  0  0  0  0  0  0
    9.7900   53.0530   92.0030 O   0  0  0  0  0  0  0  0  0  0  0  0
   10.9740   51.1560   91.6070 N   0  0  0  0  0  0  0  0  0  0  0  0
   10.5860   49.9550   92.3320 C   0  0  0  0  0  0  0  0  0  0  0  0
   10.9530   48.7930   91.4080 C   0  0  2  0  0  0  0  0  0  0  0  0
   11.3080   47.6180   92.1160 O   0  0  0  0  0  0  0  0  0  0  0  0
   12.1610   49.3420   90.6580 C   0  0  0  0  0  0  0  0  0  0  0  0
   11.8050   50.8110   90.4450 C   0  0  1  0  0  0  0  0  0  0  0  0
   11.0180   51.0430   89.1370 C   0  0  0  0  0  0  0  0  0  0  0  0
   10.0370   50.3780   88.8130 O   0  0  0  0  0  0  0  0  0  0  0  0
   11.5250   52.0640   88.3630 N   0  0  0  0  0  0  0  0  0  0  0  0
   10.8830   52.5030   87.1480 C   0  0  0  0  0  0  0  0  0  0  0  0
   11.7200   52.1830   85.9360 C   0  0  0  0  0  0  0  0  0  0  0  0
   11.4990   51.0020   85.2160 C   0  0  0  0  0  0  0  0  0  0  0  0
   12.2630   50.7060   84.0830 C   0  0  0  0  0  0  0  0  0  0  0  0
   13.2560   51.5870   83.6390 C   0  0  0  0  0  0  0  0  0  0  0  0
   14.0440   51.2710   82.4430 C   0  0  0  0  0  0  0  0  0  0  0  0
   15.7160   51.6780   82.3780 S   0  0  0  0  0  0  0  0  0  0  0  0
   15.8170   50.9880   80.8180 C   0  0  0  0  0  0  0  0  0  0  0  0
   14.7070   50.4770   80.3380 N   0  0  0  0  0  0  0  0  0  0  0  0
   13.6820   50.6320   81.2630 C   0  0  0  0  0  0  0  0  0  0  0  0
   12.3390   50.1100   80.8920 C   0  0  0  0  0  0  0  0  0  0  0  0
   13.4650   52.7750   84.3530 C   0  0  0  0  0  0  0  0  0  0  0  0
   12.7060   53.0700   85.4900 C   0  0  0  0  0  0  0  0  0  0  0  0
   11.9620   53.5770   94.1370 C   0  0  0  0  0  0  0  0  0  0  0  0
   13.2640   53.3260   94.9200 C   0  0  0  0  0  0  0  0  0  0  0  0
   10.8130   52.8410   94.8520 C   0  0  0  0  0  0  0  0  0  0  0  0
   11.6670   55.0920   94.1920 C   0  0  0  0  0  0  0  0  0  0  0  0
   13.6254   56.4268   90.5440 H   0  0  0  0  0  0  0  0  0  0  0  0
   14.4892   55.3510   89.3937 H   0  0  0  0  0  0  0  0  0  0  0  0
   12.6938   55.4091   89.3937 H   0  0  0  0  0  0  0  0  0  0  0  0
   11.5720   54.6950   91.3290 H   0  0  0  0  0  0  0  0  0  0  0  0
   12.9791   52.4441   92.6749 H   0  0  0  0  0  0  0  0  0  0  0  0
   11.1374   49.8822   93.2810 H   0  0  0  0  0  0  0  0  0  0  0  0
    9.5158   49.9559   92.5864 H   0  0  0  0  0  0  0  0  0  0  0  0
   10.1122   48.4885   90.7675 H   0  0  0  0  0  0  0  0  0  0  0  0
   10.7180   47.5450   92.8860 H   0  0  0  0  0  0  0  0  0  0  0  0
   13.0768   49.2417   91.2590 H   0  0  0  0  0  0  0  0  0  0  0  0
   12.3631   48.8076   89.7180 H   0  0  0  0  0  0  0  0  0  0  0  0
   12.7092   51.4311   90.3558 H   0  0  0  0  0  0  0  0  0  0  0  0
   12.2260   52.6710   88.7870 H   0  0  0  0  0  0  0  0  0  0  0  0
    9.9104   51.9977   87.0546 H   0  0  0  0  0  0  0  0  0  0  0  0
   10.7532   53.5941   87.2003 H   0  0  0  0  0  0  0  0  0  0  0  0
   10.7175   50.3012   85.5448 H   0  0  0  0  0  0  0  0  0  0  0  0
   12.0816   49.7701   83.5343 H   0  0  0  0  0  0  0  0  0  0  0  0
   16.7580   50.9728   80.2486 H   0  0  0  0  0  0  0  0  0  0  0  0
   11.7670   49.8877   81.8049 H   0  0  0  0  0  0  0  0  0  0  0  0
   11.8032   50.8653   80.2984 H   0  0  0  0  0  0  0  0  0  0  0  0
   12.4539   49.1911   80.2984 H   0  0  0  0  0  0  0  0  0  0  0  0
   14.2353   53.4838   84.0149 H   0  0  0  0  0  0  0  0  0  0  0  0
   12.8856   54.0067   86.0380 H   0  0  0  0  0  0  0  0  0  0  0  0
   13.0562   53.3661   95.9995 H   0  0  0  0  0  0  0  0  0  0  0  0
   13.6629   52.3344   94.6599 H   0  0  0  0  0  0  0  0  0  0  0  0
   14.0029   54.0982   94.6599 H   0  0  0  0  0  0  0  0  0  0  0  0
   10.9448   52.9255   95.9408 H   0  0  0  0  0  0  0  0  0  0  0  0
    9.8524   53.2923   94.5629 H   0  0  0  0  0  0  0  0  0  0  0  0
   10.8213   51.7797   94.5629 H   0  0  0  0  0  0  0  0  0  0  0  0
   11.6040   55.4154   95.2415 H   0  0  0  0  0  0  0  0  0  0  0  0
   12.4750   55.6415   93.6868 H   0  0  0  0  0  0  0  0  0  0  0  0
   10.7118   55.2981   93.6868 H   0  0  0  0  0  0  0  0  0  0  0  0
  1  2  1  0
  2  3  2  0
  2  4  1  0
  4  5  1  0
  5  6  1  0
  6  7  2  0
  6  8  1  0
  8  9  1  0
  9 10  1  0
 10 11  1  0
 10 12  1  0
 12 13  1  0
 13 14  1  0
 14 15  2  0
 14 16  1  0
 16 17  1  0
 17 18  1  0
 18 19  2  0
 19 20  1  0
 20 21  2  0
 21 22  1  0
 22 23  1  0
 23 24  1  0
 24 25  2  0
 25 26  1  0
 26 27  1  0
 21 28  1  0
 28 29  2  0
  5 30  1  0
 30 31  1  0
 30 32  1  0
 30 33  1  0
 13  8  1  0
 29 18  1  0
 26 22  2  0
  1 34  1  0
  1 35  1  0
  1 36  1  0
  4 37  1  0
  5 38  1  1
  9 39  1  0
  9 40  1  0
 10 41  1  6
 11 42  1  0
 12 43  1  0
 12 44  1  0
 13 45  1  6
 16 46  1  0
 17 47  1  0
 17 48  1  0
 19 49  1  0
 20 50  1  0
 24 51  1  0
 27 52  1  0
 27 53  1  0
 27 54  1  0
 28 55  1  0
 29 56  1  0
 31 57  1  0
 31 58  1  0
 31 59  1  0
 32 60  1  0
 32 61  1  0
 32 62  1  0
 33 63  1  0
 33 64  1  0
 33 65  1  0
M  END
>  <meeko>  (9) 
{"is_sidechain": [false], "free_energy": -6.571, "intermolecular_energy": -10.099, "internal_energy": -0.979}

$$$$
