1p1q_ligand
     RDKit          3D

 23 23  0  0  0  0  0  0  0  0999 V2000
   59.4240   23.7000   58.0160 C   0  0  0  0  0  0  0  0  0  0  0  0
   60.1440   24.2200   56.8240 C   0  0  0  0  0  0  0  0  0  0  0  0
   60.2230   23.3560   55.7390 O   0  0  0  0  0  0  0  0  0  0  0  0
   61.0160   24.0800   54.8190 N   0  0  0  0  0  0  0  0  0  0  0  0
   61.1990   25.3590   55.2680 C   0  0  0  0  0  0  0  0  0  0  0  0
   61.6080   26.3140   54.6320 O   0  0  0  0  0  0  0  0  0  0  0  0
   60.7230   25.4110   56.6530 C   0  0  0  0  0  0  0  0  0  0  0  0
   60.8840   26.6120   57.5120 C   0  0  0  0  0  0  0  0  0  0  0  0
   59.6640   27.5230   57.6070 C   0  0  2  0  0  0  0  0  0  0  0  0
   58.7890   27.0340   58.7690 N   0  0  0  0  0  0  0  0  0  0  0  0
   58.7580   27.5890   56.3410 C   0  0  0  0  0  0  0  0  0  0  0  0
   57.8100   26.7850   56.2480 O   0  0  0  0  0  0  0  0  0  0  0  0
   59.2050   28.5000   55.5650 O   0  0  0  0  0  0  0  0  0  0  0  0
   59.9206   24.0586   58.9297 H   0  0  0  0  0  0  0  0  0  0  0  0
   58.3835   24.0564   58.0002 H   0  0  0  0  0  0  0  0  0  0  0  0
   59.4352   22.6002   58.0002 H   0  0  0  0  0  0  0  0  0  0  0  0
   60.9640   23.8600   53.8360 H   0  0  0  0  0  0  0  0  0  0  0  0
   61.1314   26.2707   58.5280 H   0  0  0  0  0  0  0  0  0  0  0  0
   61.6739   27.2152   57.0407 H   0  0  0  0  0  0  0  0  0  0  0  0
   60.0719   28.5354   57.7433 H   0  0  0  0  0  0  0  0  0  0  0  0
   57.9830   26.4820   58.4720 H   0  0  0  0  0  0  0  0  0  0  0  0
   59.2960   26.6520   59.5650 H   0  0  0  0  0  0  0  0  0  0  0  0
   58.3650   27.9560   59.0640 H   0  0  0  0  0  0  0  0  0  0  0  0
  1  2  1  0
  2  3  1  0
  3  4  1  0
  4  5  1  0
  5  6  2  0
  5  7  1  0
  7  8  1  0
  8  9  1  0
  9 10  1  0
  9 11  1  0
 11 12  2  0
 11 13  1  0
  7  2  2  0
  1 14  1  0
  1 15  1  0
  1 16  1  0
  4 17  1  0
  8 18  1  0
  8 19  1  0
  9 20  1  1
 10 21  1  0
 10 22  1  0
 10 23  1  0
M  CHG  2  10   1  13  -1
M  END
>  <meeko>  (1) 
{"is_sidechain": [false], "free_energy": -5.387, "intermolecular_energy": -6.489, "internal_energy": -0.257}

$$$$
1p1q_ligand
     RDKit          3D

 23 23  0  0  0  0  0  0  0  0999 V2000
   60.8640   25.2680   58.4890 C   0  0  0  0  0  0  0  0  0  0  0  0
   60.9370   24.9120   57.0470 C   0  0  0  0  0  0  0  0  0  0  0  0
   60.2340   23.7760   56.6670 O   0  0  0  0  0  0  0  0  0  0  0  0
   60.5570   23.6520   55.2960 N   0  0  0  0  0  0  0  0  0  0  0  0
   61.2300   24.7650   54.8740 C   0  0  0  0  0  0  0  0  0  0  0  0
   61.4420   25.1100   53.7250 O   0  0  0  0  0  0  0  0  0  0  0  0
   61.5870   25.5410   56.0650 C   0  0  0  0  0  0  0  0  0  0  0  0
   62.4420   26.7540   56.0050 C   0  0  0  0  0  0  0  0  0  0  0  0
   61.7650   28.0120   55.4720 C   0  0  2  0  0  0  0  0  0  0  0  0
   62.7920   29.1530   55.4840 N   0  0  0  0  0  0  0  0  0  0  0  0
   60.5160   28.5050   56.2610 C   0  0  0  0  0  0  0  0  0  0  0  0
   60.6310   28.7100   57.4850 O   0  0  0  0  0  0  0  0  0  0  0  0
   59.5270   28.5840   55.4550 O   0  0  0  0  0  0  0  0  0  0  0  0
   61.0480   24.3706   59.0980 H   0  0  0  0  0  0  0  0  0  0  0  0
   61.6248   26.0288   58.7178 H   0  0  0  0  0  0  0  0  0  0  0  0
   59.8652   25.6679   58.7178 H   0  0  0  0  0  0  0  0  0  0  0  0
   59.9440   23.1340   54.6850 H   0  0  0  0  0  0  0  0  0  0  0  0
   62.7986   26.9673   57.0235 H   0  0  0  0  0  0  0  0  0  0  0  0
   63.2462   26.5201   55.2919 H   0  0  0  0  0  0  0  0  0  0  0  0
   61.4040   27.7395   54.4693 H   0  0  0  0  0  0  0  0  0  0  0  0
   63.4610   29.0940   56.2540 H   0  0  0  0  0  0  0  0  0  0  0  0
   63.2020   29.3790   54.5810 H   0  0  0  0  0  0  0  0  0  0  0  0
   62.1580   29.9510   55.7660 H   0  0  0  0  0  0  0  0  0  0  0  0
  1  2  1  0
  2  3  1  0
  3  4  1  0
  4  5  1  0
  5  6  2  0
  5  7  1  0
  7  8  1  0
  8  9  1  0
  9 10  1  0
  9 11  1  0
 11 12  2  0
 11 13  1  0
  7  2  2  0
  1 14  1  0
  1 15  1  0
  1 16  1  0
  4 17  1  0
  8 18  1  0
  8 19  1  0
  9 20  1  6
 10 21  1  0
 10 22  1  0
 10 23  1  0
M  CHG  2  10   1  13  -1
M  END
>  <meeko>  (2) 
{"is_sidechain": [false], "free_energy": -5.356, "intermolecular_energy": -6.387, "internal_energy": -0.321}

$$$$
1p1q_ligand
     RDKit          3D

 23 23  0  0  0  0  0  0  0  0999 V2000
   61.4880   29.3140   56.7030 C   0  0  0  0  0  0  0  0  0  0  0  0
   60.2170   28.5450   56.6440 C   0  0  0  0  0  0  0  0  0  0  0  0
   59.0770   29.2800   56.3480 O   0  0  0  0  0  0  0  0  0  0  0  0
   58.0470   28.3150   56.4450 N   0  0  0  0  0  0  0  0  0  0  0  0
   58.5910   27.0670   56.5810 C   0  0  0  0  0  0  0  0  0  0  0  0
   58.0270   25.9960   56.4450 O   0  0  0  0  0  0  0  0  0  0  0  0
   60.0250   27.2380   56.8350 C   0  0  0  0  0  0  0  0  0  0  0  0
   60.9210   26.1000   57.1650 C   0  0  0  0  0  0  0  0  0  0  0  0
   61.5860   25.4190   55.9740 C   0  0  2  0  0  0  0  0  0  0  0  0
   60.6450   24.3200   55.4600 N   0  0  0  0  0  0  0  0  0  0  0  0
   62.9680   24.7530   56.2480 C   0  0  0  0  0  0  0  0  0  0  0  0
   62.9890   23.5690   56.6380 O   0  0  0  0  0  0  0  0  0  0  0  0
   63.8870   25.6160   56.0380 O   0  0  0  0  0  0  0  0  0  0  0  0
   61.7663   29.4824   57.7538 H   0  0  0  0  0  0  0  0  0  0  0  0
   62.2840   28.7459   56.1994 H   0  0  0  0  0  0  0  0  0  0  0  0
   61.3541   30.2828   56.1994 H   0  0  0  0  0  0  0  0  0  0  0  0
   57.1730   28.4680   55.9650 H   0  0  0  0  0  0  0  0  0  0  0  0
   61.7151   26.4754   57.8271 H   0  0  0  0  0  0  0  0  0  0  0  0
   60.2795   25.3363   57.6290 H   0  0  0  0  0  0  0  0  0  0  0  0
   61.7742   26.2272   55.2519 H   0  0  0  0  0  0  0  0  0  0  0  0
   59.9620   24.0080   56.1530 H   0  0  0  0  0  0  0  0  0  0  0  0
   60.2670   24.4720   54.5280 H   0  0  0  0  0  0  0  0  0  0  0  0
   61.3310   23.5170   55.4080 H   0  0  0  0  0  0  0  0  0  0  0  0
  1  2  1  0
  2  3  1  0
  3  4  1  0
  4  5  1  0
  5  6  2  0
  5  7  1  0
  7  8  1  0
  8  9  1  0
  9 10  1  0
  9 11  1  0
 11 12  2  0
 11 13  1  0
  7  2  2  0
  1 14  1  0
  1 15  1  0
  1 16  1  0
  4 17  1  0
  8 18  1  0
  8 19  1  0
  9 20  1  6
 10 21  1  0
 10 22  1  0
 10 23  1  0
M  CHG  2  10   1  13  -1
M  END
>  <meeko>  (3) 
{"is_sidechain": [false], "free_energy": -5.348, "intermolecular_energy": -6.319, "internal_energy": -0.38}

$$$$
1p1q_ligand
     RDKit          3D

 23 23  0  0  0  0  0  0  0  0999 V2000
   60.9020   24.5150   56.6370 C   0  0  0  0  0  0  0  0  0  0  0  0
   62.3680   24.7640   56.6650 C   0  0  0  0  0  0  0  0  0  0  0  0
   63.1740   23.6350   56.6030 O   0  0  0  0  0  0  0  0  0  0  0  0
   64.4760   24.1730   56.7330 N   0  0  0  0  0  0  0  0  0  0  0  0
   64.4250   25.5380   56.6610 C   0  0  0  0  0  0  0  0  0  0  0  0
   65.3550   26.3050   56.4880 O   0  0  0  0  0  0  0  0  0  0  0  0
   63.0140   25.9290   56.7390 C   0  0  0  0  0  0  0  0  0  0  0  0
   62.5800   27.3470   56.8240 C   0  0  0  0  0  0  0  0  0  0  0  0
   61.6900   27.8330   55.6850 C   0  0  2  0  0  0  0  0  0  0  0  0
   62.4690   28.8800   54.8790 N   0  0  0  0  0  0  0  0  0  0  0  0
   60.3360   28.4820   56.1020 C   0  0  0  0  0  0  0  0  0  0  0  0
   60.3580   29.6130   56.6250 O   0  0  0  0  0  0  0  0  0  0  0  0
   59.3910   27.6630   55.8400 O   0  0  0  0  0  0  0  0  0  0  0  0
   60.5213   24.4503   57.6670 H   0  0  0  0  0  0  0  0  0  0  0  0
   60.3998   25.3407   56.1116 H   0  0  0  0  0  0  0  0  0  0  0  0
   60.7006   23.5698   56.1116 H   0  0  0  0  0  0  0  0  0  0  0  0
   65.2680   23.6480   56.3930 H   0  0  0  0  0  0  0  0  0  0  0  0
   62.0254   27.4754   57.7653 H   0  0  0  0  0  0  0  0  0  0  0  0
   63.4998   27.9473   56.7644 H   0  0  0  0  0  0  0  0  0  0  0  0
   61.4315   26.9270   55.1173 H   0  0  0  0  0  0  0  0  0  0  0  0
   61.9200   29.7100   54.6450 H   0  0  0  0  0  0  0  0  0  0  0  0
   63.4110   29.0740   55.2130 H   0  0  0  0  0  0  0  0  0  0  0  0
   62.5470   28.3660   53.9590 H   0  0  0  0  0  0  0  0  0  0  0  0
  1  2  1  0
  2  3  1  0
  3  4  1  0
  4  5  1  0
  5  6  2  0
  5  7  1  0
  7  8  1  0
  8  9  1  0
  9 10  1  0
  9 11  1  0
 11 12  2  0
 11 13  1  0
  7  2  2  0
  1 14  1  0
  1 15  1  0
  1 16  1  0
  4 17  1  0
  8 18  1  0
  8 19  1  0
  9 20  1  6
 10 21  1  0
 10 22  1  0
 10 23  1  0
M  CHG  2  10   1  13  -1
M  END
>  <meeko>  (4) 
{"is_sidechain": [false], "free_energy": -5.311, "intermolecular_energy": -6.467, "internal_energy": -0.188}

$$$$
1p1q_ligand
     RDKit          3D

 23 23  0  0  0  0  0  0  0  0999 V2000
   62.5440   27.6980   58.4430 C   0  0  0  0  0  0  0  0  0  0  0  0
   62.4150   28.0620   57.0070 C   0  0  0  0  0  0  0  0  0  0  0  0
   63.0470   29.2360   56.6200 O   0  0  0  0  0  0  0  0  0  0  0  0
   62.6830   29.3540   55.2590 N   0  0  0  0  0  0  0  0  0  0  0  0
   62.0580   28.2110   54.8440 C   0  0  0  0  0  0  0  0  0  0  0  0
   61.8350   27.8640   53.6970 O   0  0  0  0  0  0  0  0  0  0  0  0
   61.7740   27.4070   56.0360 C   0  0  0  0  0  0  0  0  0  0  0  0
   60.9820   26.1520   55.9860 C   0  0  0  0  0  0  0  0  0  0  0  0
   61.7440   24.9090   55.5380 C   0  0  2  0  0  0  0  0  0  0  0  0
   61.0980   24.3890   54.2460 N   0  0  0  0  0  0  0  0  0  0  0  0
   61.7780   23.7240   56.5480 C   0  0  0  0  0  0  0  0  0  0  0  0
   60.6980   23.3000   57.0020 O   0  0  0  0  0  0  0  0  0  0  0  0
   62.9970   23.4040   56.7630 O   0  0  0  0  0  0  0  0  0  0  0  0
   62.2413   28.5522   59.0664 H   0  0  0  0  0  0  0  0  0  0  0  0
   61.8965   26.8362   58.6624 H   0  0  0  0  0  0  0  0  0  0  0  0
   63.5896   27.4363   58.6624 H   0  0  0  0  0  0  0  0  0  0  0  0
   63.2520   29.9090   54.6370 H   0  0  0  0  0  0  0  0  0  0  0  0
   60.5863   25.9612   56.9945 H   0  0  0  0  0  0  0  0  0  0  0  0
   60.2036   26.3176   55.2267 H   0  0  0  0  0  0  0  0  0  0  0  0
   62.7867   25.2393   55.4212 H   0  0  0  0  0  0  0  0  0  0  0  0
   61.7680   23.9950   53.5820 H   0  0  0  0  0  0  0  0  0  0  0  0
   60.2520   23.8370   54.3740 H   0  0  0  0  0  0  0  0  0  0  0  0
   60.8250   25.3100   53.8080 H   0  0  0  0  0  0  0  0  0  0  0  0
  1  2  1  0
  2  3  1  0
  3  4  1  0
  4  5  1  0
  5  6  2  0
  5  7  1  0
  7  8  1  0
  8  9  1  0
  9 10  1  0
  9 11  1  0
 11 12  2  0
 11 13  1  0
  7  2  2  0
  1 14  1  0
  1 15  1  0
  1 16  1  0
  4 17  1  0
  8 18  1  0
  8 19  1  0
  9 20  1  6
 10 21  1  0
 10 22  1  0
 10 23  1  0
M  CHG  2  10   1  13  -1
M  END
>  <meeko>  (5) 
{"is_sidechain": [false], "free_energy": -5.275, "intermolecular_energy": -6.392, "internal_energy": -0.219}

$$$$
1p1q_ligand
     RDKit          3D

 23 23  0  0  0  0  0  0  0  0999 V2000
   61.7310   30.3760   57.6310 C   0  0  0  0  0  0  0  0  0  0  0  0
   61.9660   29.1690   56.7940 C   0  0  0  0  0  0  0  0  0  0  0  0
   63.2790   28.7210   56.7320 O   0  0  0  0  0  0  0  0  0  0  0  0
   63.2000   27.6440   55.8190 N   0  0  0  0  0  0  0  0  0  0  0  0
   61.8900   27.3640   55.5420 C   0  0  0  0  0  0  0  0  0  0  0  0
   61.4450   26.3650   55.0060 O   0  0  0  0  0  0  0  0  0  0  0  0
   61.0820   28.4550   56.0940 C   0  0  0  0  0  0  0  0  0  0  0  0
   59.6170   28.5590   55.8710 C   0  0  0  0  0  0  0  0  0  0  0  0
   58.7450   28.3260   57.1000 C   0  0  2  0  0  0  0  0  0  0  0  0
   57.6080   27.3710   56.7090 N   0  0  0  0  0  0  0  0  0  0  0  0
   58.0890   29.5930   57.7260 C   0  0  0  0  0  0  0  0  0  0  0  0
   57.5930   29.5020   58.8650 O   0  0  0  0  0  0  0  0  0  0  0  0
   58.1610   30.5500   56.8830 O   0  0  0  0  0  0  0  0  0  0  0  0
   61.7846   30.1007   58.6946 H   0  0  0  0  0  0  0  0  0  0  0  0
   62.4989   31.1316   57.4087 H   0  0  0  0  0  0  0  0  0  0  0  0
   60.7357   30.7883   57.4087 H   0  0  0  0  0  0  0  0  0  0  0  0
   63.9090   26.9260   55.8330 H   0  0  0  0  0  0  0  0  0  0  0  0
   59.4034   29.5690   55.4911 H   0  0  0  0  0  0  0  0  0  0  0  0
   59.3624   27.7550   55.1648 H   0  0  0  0  0  0  0  0  0  0  0  0
   59.4287   27.9271   57.8639 H   0  0  0  0  0  0  0  0  0  0  0  0
   57.9170   26.5730   56.1500 H   0  0  0  0  0  0  0  0  0  0  0  0
   56.9570   27.1400   57.4560 H   0  0  0  0  0  0  0  0  0  0  0  0
   57.1020   27.9830   56.0110 H   0  0  0  0  0  0  0  0  0  0  0  0
  1  2  1  0
  2  3  1  0
  3  4  1  0
  4  5  1  0
  5  6  2  0
  5  7  1  0
  7  8  1  0
  8  9  1  0
  9 10  1  0
  9 11  1  0
 11 12  2  0
 11 13  1  0
  7  2  2  0
  1 14  1  0
  1 15  1  0
  1 16  1  0
  4 17  1  0
  8 18  1  0
  8 19  1  0
  9 20  1  1
 10 21  1  0
 10 22  1  0
 10 23  1  0
M  CHG  2  10   1  13  -1
M  END
>  <meeko>  (6) 
{"is_sidechain": [false], "free_energy": -5.234, "intermolecular_energy": -6.285, "internal_energy": -0.277}

$$$$
1p1q_ligand
     RDKit          3D

 23 23  0  0  0  0  0  0  0  0999 V2000
   58.7640   24.6560   57.1850 C   0  0  0  0  0  0  0  0  0  0  0  0
   58.8790   26.0990   56.8420 C   0  0  0  0  0  0  0  0  0  0  0  0
   57.7270   26.6980   56.3490 O   0  0  0  0  0  0  0  0  0  0  0  0
   58.1610   28.0080   56.0430 N   0  0  0  0  0  0  0  0  0  0  0  0
   59.4260   28.2040   56.5270 C   0  0  0  0  0  0  0  0  0  0  0  0
   60.0080   29.2650   56.6660 O   0  0  0  0  0  0  0  0  0  0  0  0
   59.9420   26.8980   56.9470 C   0  0  0  0  0  0  0  0  0  0  0  0
   61.3410   26.7000   57.4060 C   0  0  0  0  0  0  0  0  0  0  0  0
   62.3520   26.3700   56.3130 C   0  0  2  0  0  0  0  0  0  0  0  0
   62.5330   27.6140   55.4330 N   0  0  0  0  0  0  0  0  0  0  0  0
   61.9810   25.1860   55.3700 C   0  0  0  0  0  0  0  0  0  0  0  0
   61.4050   25.4430   54.2950 O   0  0  0  0  0  0  0  0  0  0  0  0
   62.3330   24.0920   55.9290 O   0  0  0  0  0  0  0  0  0  0  0  0
   58.7547   24.5387   58.2787 H   0  0  0  0  0  0  0  0  0  0  0  0
   57.8309   24.2525   56.7650 H   0  0  0  0  0  0  0  0  0  0  0  0
   59.6215   24.1098   56.7650 H   0  0  0  0  0  0  0  0  0  0  0  0
   57.4870   28.7570   55.9890 H   0  0  0  0  0  0  0  0  0  0  0  0
   61.6687   27.6255   57.9021 H   0  0  0  0  0  0  0  0  0  0  0  0
   61.3188   25.8235   58.0703 H   0  0  0  0  0  0  0  0  0  0  0  0
   63.2610   26.0597   56.8491 H   0  0  0  0  0  0  0  0  0  0  0  0
   62.9790   28.3970   55.9150 H   0  0  0  0  0  0  0  0  0  0  0  0
   62.8850   27.4360   54.4940 H   0  0  0  0  0  0  0  0  0  0  0  0
   61.5230   27.9150   55.3510 H   0  0  0  0  0  0  0  0  0  0  0  0
  1  2  1  0
  2  3  1  0
  3  4  1  0
  4  5  1  0
  5  6  2  0
  5  7  1  0
  7  8  1  0
  8  9  1  0
  9 10  1  0
  9 11  1  0
 11 12  2  0
 11 13  1  0
  7  2  2  0
  1 14  1  0
  1 15  1  0
  1 16  1  0
  4 17  1  0
  8 18  1  0
  8 19  1  0
  9 20  1  1
 10 21  1  0
 10 22  1  0
 10 23  1  0
M  CHG  2  10   1  13  -1
M  END
>  <meeko>  (7) 
{"is_sidechain": [false], "free_energy": -5.207, "intermolecular_energy": -6.149, "internal_energy": -0.38}

$$$$
1p1q_ligand
     RDKit          3D

 23 23  0  0  0  0  0  0  0  0999 V2000
   62.2300   22.1430   58.1510 C   0  0  0  0  0  0  0  0  0  0  0  0
   62.2180   23.2000   57.1050 C   0  0  0  0  0  0  0  0  0  0  0  0
   63.4320   23.8320   56.8700 O   0  0  0  0  0  0  0  0  0  0  0  0
   63.0930   24.8170   55.9140 N   0  0  0  0  0  0  0  0  0  0  0  0
   61.8120   24.6190   55.4770 C   0  0  0  0  0  0  0  0  0  0  0  0
   61.2810   25.1090   54.4960 O   0  0  0  0  0  0  0  0  0  0  0  0
   61.1960   23.6220   56.3580 C   0  0  0  0  0  0  0  0  0  0  0  0
   59.7610   23.2510   56.2670 C   0  0  0  0  0  0  0  0  0  0  0  0
   58.8040   24.1160   57.0800 C   0  0  2  0  0  0  0  0  0  0  0  0
   58.7740   25.5170   56.4550 N   0  0  0  0  0  0  0  0  0  0  0  0
   59.1500   24.2900   58.5890 C   0  0  0  0  0  0  0  0  0  0  0  0
   59.0810   23.2910   59.3320 O   0  0  0  0  0  0  0  0  0  0  0  0
   59.4300   25.5170   58.8070 O   0  0  0  0  0  0  0  0  0  0  0  0
   62.2247   22.6118   59.1461 H   0  0  0  0  0  0  0  0  0  0  0  0
   61.3390   21.5075   58.0403 H   0  0  0  0  0  0  0  0  0  0  0  0
   63.1352   21.5279   58.0403 H   0  0  0  0  0  0  0  0  0  0  0  0
   63.8100   25.1980   55.3140 H   0  0  0  0  0  0  0  0  0  0  0  0
   59.4611   23.3155   55.2106 H   0  0  0  0  0  0  0  0  0  0  0  0
   59.6846   22.2385   56.6900 H   0  0  0  0  0  0  0  0  0  0  0  0
   57.8410   23.5853   57.0474 H   0  0  0  0  0  0  0  0  0  0  0  0
   57.8910   25.7410   55.9910 H   0  0  0  0  0  0  0  0  0  0  0  0
   59.1470   26.2630   57.0400 H   0  0  0  0  0  0  0  0  0  0  0  0
   59.4450   25.3620   55.6540 H   0  0  0  0  0  0  0  0  0  0  0  0
  1  2  1  0
  2  3  1  0
  3  4  1  0
  4  5  1  0
  5  6  2  0
  5  7  1  0
  7  8  1  0
  8  9  1  0
  9 10  1  0
  9 11  1  0
 11 12  2  0
 11 13  1  0
  7  2  2  0
  1 14  1  0
  1 15  1  0
  1 16  1  0
  4 17  1  0
  8 18  1  0
  8 19  1  0
  9 20  1  1
 10 21  1  0
 10 22  1  0
 10 23  1  0
M  CHG  2  10   1  13  -1
M  END
>  <meeko>  (8) 
{"is_sidechain": [false], "free_energy": -5.129, "intermolecular_energy": -6.007, "internal_energy": -0.429}

$$$$
1p1q_ligand
     RDKit          3D

 23 23  0  0  0  0  0  0  0  0999 V2000
   65.7510   30.6060   56.4680 C   0  0  0  0  0  0  0  0  0  0  0  0
   64.8220   30.0940   57.5100 C   0  0  0  0  0  0  0  0  0  0  0  0
   65.3630   29.9380   58.7790 O   0  0  0  0  0  0  0  0  0  0  0  0
   64.2920   29.3720   59.5090 N   0  0  0  0  0  0  0  0  0  0  0  0
   63.1500   29.4000   58.7560 C   0  0  0  0  0  0  0  0  0  0  0  0
   62.0070   29.2310   59.1410 O   0  0  0  0  0  0  0  0  0  0  0  0
   63.5340   29.7670   57.3900 C   0  0  0  0  0  0  0  0  0  0  0  0
   62.5690   29.7700   56.2610 C   0  0  0  0  0  0  0  0  0  0  0  0
   62.1800   28.3970   55.7230 C   0  0  2  0  0  0  0  0  0  0  0  0
   62.2050   28.4560   54.1900 N   0  0  0  0  0  0  0  0  0  0  0  0
   60.7760   27.8680   56.1430 C   0  0  0  0  0  0  0  0  0  0  0  0
   60.7170   26.9110   56.9390 O   0  0  0  0  0  0  0  0  0  0  0  0
   59.8830   28.5410   55.5250 O   0  0  0  0  0  0  0  0  0  0  0  0
   66.6166   31.0831   56.9509 H   0  0  0  0  0  0  0  0  0  0  0  0
   66.0954   29.7703   55.8411 H   0  0  0  0  0  0  0  0  0  0  0  0
   65.2283   31.3435   55.8411 H   0  0  0  0  0  0  0  0  0  0  0  0
   64.2730   29.4580   60.5140 H   0  0  0  0  0  0  0  0  0  0  0  0
   61.6516   30.2725   56.6013 H   0  0  0  0  0  0  0  0  0  0  0  0
   63.0770   30.2850   55.4323 H   0  0  0  0  0  0  0  0  0  0  0  0
   62.9112   27.7013   56.1605 H   0  0  0  0  0  0  0  0  0  0  0  0
   61.6860   29.2460   53.8010 H   0  0  0  0  0  0  0  0  0  0  0  0
   63.1150   28.2940   53.7620 H   0  0  0  0  0  0  0  0  0  0  0  0
   61.5890   27.6240   53.9750 H   0  0  0  0  0  0  0  0  0  0  0  0
  1  2  1  0
  2  3  1  0
  3  4  1  0
  4  5  1  0
  5  6  2  0
  5  7  1  0
  7  8  1  0
  8  9  1  0
  9 10  1  0
  9 11  1  0
 11 12  2  0
 11 13  1  0
  7  2  2  0
  1 14  1  0
  1 15  1  0
  1 16  1  0
  4 17  1  0
  8 18  1  0
  8 19  1  0
  9 20  1  1
 10 21  1  0
 10 22  1  0
 10 23  1  0
M  CHG  2  10   1  13  -1
M  END
>  <meeko>  (9) 
{"is_sidechain": [false], "free_energy": -5.116, "intermolecular_energy": -6.142, "internal_energy": -0.278}

$$$$
