3u5j_ligand
     RDKit          3D

 35 38  0  0  0  0  0  0  0  0999 V2000
   30.6780   18.7450    1.7010 C   0  0  0  0  0  0  0  0  0  0  0  0
   31.4580   17.8950    0.7720 C   0  0  0  0  0  0  0  0  0  0  0  0
   32.7490   18.0380    0.5480 N   0  0  0  0  0  0  0  0  0  0  0  0
   33.1060   17.1920   -0.4640 N   0  0  0  0  0  0  0  0  0  0  0  0
   32.0300   16.5400   -0.8440 C   0  0  0  0  0  0  0  0  0  0  0  0
   30.9550   16.9120   -0.0660 N   0  0  0  0  0  0  0  0  0  0  0  0
   29.6690   16.3160   -0.1040 C   0  0  0  0  0  0  0  0  0  0  0  0
   28.9510   16.1550    1.0940 C   0  0  0  0  0  0  0  0  0  0  0  0
   27.7250   15.4850    1.1010 C   0  0  0  0  0  0  0  0  0  0  0  0
   27.2140   14.9600   -0.0810 C   0  0  0  0  0  0  0  0  0  0  0  0
   25.7130   14.1210   -0.0650 Cl  0  0  0  0  0  0  0  0  0  0  0  0
   27.9090   15.1130   -1.2770 C   0  0  0  0  0  0  0  0  0  0  0  0
   29.1310   15.8090   -1.3050 C   0  0  0  0  0  0  0  0  0  0  0  0
   29.7560   16.0320   -2.6500 C   0  0  0  0  0  0  0  0  0  0  0  0
   28.8760   16.4840   -3.7770 C   0  0  0  0  0  0  0  0  0  0  0  0
   27.6720   17.1600   -3.5350 C   0  0  0  0  0  0  0  0  0  0  0  0
   26.8760   17.5690   -4.6070 C   0  0  0  0  0  0  0  0  0  0  0  0
   27.2820   17.3160   -5.9180 C   0  0  0  0  0  0  0  0  0  0  0  0
   28.4880   16.6630   -6.1620 C   0  0  0  0  0  0  0  0  0  0  0  0
   29.2890   16.2510   -5.0950 C   0  0  0  0  0  0  0  0  0  0  0  0
   31.0070   15.8690   -2.9200 N   0  0  0  0  0  0  0  0  0  0  0  0
   31.9410   15.4800   -1.8730 C   0  0  0  0  0  0  0  0  0  0  0  0
   30.9247   18.4762    2.7387 H   0  0  0  0  0  0  0  0  0  0  0  0
   30.9268   19.8023    1.5271 H   0  0  0  0  0  0  0  0  0  0  0  0
   29.6033   18.5878    1.5271 H   0  0  0  0  0  0  0  0  0  0  0  0
   29.3575   16.5595    2.0327 H   0  0  0  0  0  0  0  0  0  0  0  0
   27.1644   15.3729    2.0408 H   0  0  0  0  0  0  0  0  0  0  0  0
   27.5005   14.6873   -2.2054 H   0  0  0  0  0  0  0  0  0  0  0  0
   27.3548   17.3679   -2.5025 H   0  0  0  0  0  0  0  0  0  0  0  0
   25.9269   18.0918   -4.4176 H   0  0  0  0  0  0  0  0  0  0  0  0
   26.6488   17.6327   -6.7599 H   0  0  0  0  0  0  0  0  0  0  0  0
   28.8097   16.4717   -7.1964 H   0  0  0  0  0  0  0  0  0  0  0  0
   30.2451   15.7431   -5.2897 H   0  0  0  0  0  0  0  0  0  0  0  0
   31.5930   14.5477   -1.4043 H   0  0  0  0  0  0  0  0  0  0  0  0
   32.9354   15.3295   -2.3185 H   0  0  0  0  0  0  0  0  0  0  0  0
  1  2  1  0
  2  3  2  0
  3  4  1  0
  4  5  2  0
  5  6  1  0
  6  7  1  0
  7  8  2  0
  8  9  1  0
  9 10  2  0
 10 11  1  0
 10 12  1  0
 12 13  2  0
 13 14  1  0
 14 15  1  0
 15 16  2  0
 16 17  1  0
 17 18  2  0
 18 19  1  0
 19 20  2  0
 14 21  2  0
 21 22  1  0
  6  2  1  0
 13  7  1  0
 20 15  1  0
 22  5  1  0
  1 23  1  0
  1 24  1  0
  1 25  1  0
  8 26  1  0
  9 27  1  0
 12 28  1  0
 16 29  1  0
 17 30  1  0
 18 31  1  0
 19 32  1  0
 20 33  1  0
 22 34  1  0
 22 35  1  0
M  END
>  <meeko>  (1) 
{"is_sidechain": [false], "free_energy": -8.736, "intermolecular_energy": -9.246, "internal_energy": -0.11}

$$$$
3u5j_ligand
     RDKit          3D

 35 38  0  0  0  0  0  0  0  0999 V2000
   32.1870   13.4930   -4.5890 C   0  0  0  0  0  0  0  0  0  0  0  0
   32.4570   14.4050   -3.4530 C   0  0  0  0  0  0  0  0  0  0  0  0
   33.5620   14.3830   -2.7360 N   0  0  0  0  0  0  0  0  0  0  0  0
   33.4130   15.2490   -1.6890 N   0  0  0  0  0  0  0  0  0  0  0  0
   32.2180   15.7920   -1.7820 C   0  0  0  0  0  0  0  0  0  0  0  0
   31.5760   15.3260   -2.9090 N   0  0  0  0  0  0  0  0  0  0  0  0
   30.3300   15.7970   -3.3970 C   0  0  0  0  0  0  0  0  0  0  0  0
   30.1310   15.9000   -4.7850 C   0  0  0  0  0  0  0  0  0  0  0  0
   28.9510   16.4490   -5.2920 C   0  0  0  0  0  0  0  0  0  0  0  0
   27.9700   16.9110   -4.4220 C   0  0  0  0  0  0  0  0  0  0  0  0
   26.5270   17.6040   -5.0510 Cl  0  0  0  0  0  0  0  0  0  0  0  0
   28.1490   16.8140   -3.0450 C   0  0  0  0  0  0  0  0  0  0  0  0
   29.3190   16.2380   -2.5190 C   0  0  0  0  0  0  0  0  0  0  0  0
   29.3810   16.0620   -1.0310 C   0  0  0  0  0  0  0  0  0  0  0  0
   28.1730   15.5160   -0.3280 C   0  0  0  0  0  0  0  0  0  0  0  0
   27.1500   14.8710   -1.0340 C   0  0  0  0  0  0  0  0  0  0  0  0
   26.0380   14.3730   -0.3500 C   0  0  0  0  0  0  0  0  0  0  0  0
   25.9510   14.5070    1.0360 C   0  0  0  0  0  0  0  0  0  0  0  0
   26.9770   15.1310    1.7430 C   0  0  0  0  0  0  0  0  0  0  0  0
   28.0910   15.6310    1.0660 C   0  0  0  0  0  0  0  0  0  0  0  0
   30.4030   16.3420   -0.2960 N   0  0  0  0  0  0  0  0  0  0  0  0
   31.6340   16.8290   -0.9020 C   0  0  0  0  0  0  0  0  0  0  0  0
   31.8945   12.5048   -4.2044 H   0  0  0  0  0  0  0  0  0  0  0  0
   31.3718   13.9035   -5.2030 H   0  0  0  0  0  0  0  0  0  0  0  0
   33.0942   13.3936   -5.2030 H   0  0  0  0  0  0  0  0  0  0  0  0
   30.9099   15.5458   -5.4763 H   0  0  0  0  0  0  0  0  0  0  0  0
   28.7980   16.5158   -6.3793 H   0  0  0  0  0  0  0  0  0  0  0  0
   27.3709   17.1900   -2.3645 H   0  0  0  0  0  0  0  0  0  0  0  0
   27.2217   14.7565   -2.1257 H   0  0  0  0  0  0  0  0  0  0  0  0
   25.2298   13.8745   -0.9052 H   0  0  0  0  0  0  0  0  0  0  0  0
   25.0715   14.1197    1.5713 H   0  0  0  0  0  0  0  0  0  0  0  0
   26.9091   15.2298    2.8364 H   0  0  0  0  0  0  0  0  0  0  0  0
   28.9041   16.1151    1.6269 H   0  0  0  0  0  0  0  0  0  0  0  0
   31.4149   17.7282   -1.4965 H   0  0  0  0  0  0  0  0  0  0  0  0
   32.3540   17.0700   -0.1060 H   0  0  0  0  0  0  0  0  0  0  0  0
  1  2  1  0
  2  3  2  0
  3  4  1  0
  4  5  2  0
  5  6  1  0
  6  7  1  0
  7  8  2  0
  8  9  1  0
  9 10  2  0
 10 11  1  0
 10 12  1  0
 12 13  2  0
 13 14  1  0
 14 15  1  0
 15 16  2  0
 16 17  1  0
 17 18  2  0
 18 19  1  0
 19 20  2  0
 14 21  2  0
 21 22  1  0
  6  2  1  0
 13  7  1  0
 20 15  1  0
 22  5  1  0
  1 23  1  0
  1 24  1  0
  1 25  1  0
  8 26  1  0
  9 27  1  0
 12 28  1  0
 16 29  1  0
 17 30  1  0
 18 31  1  0
 19 32  1  0
 20 33  1  0
 22 34  1  0
 22 35  1  0
M  END
>  <meeko>  (2) 
{"is_sidechain": [false], "free_energy": -8.239, "intermolecular_energy": -8.827, "internal_energy": -0.004}

$$$$
3u5j_ligand
     RDKit          3D

 35 38  0  0  0  0  0  0  0  0999 V2000
   30.5800   18.9530    1.1930 C   0  0  0  0  0  0  0  0  0  0  0  0
   31.6220   18.0050    0.7340 C   0  0  0  0  0  0  0  0  0  0  0  0
   32.9080   18.1450    0.9810 N   0  0  0  0  0  0  0  0  0  0  0  0
   33.5870   17.1820    0.2900 N   0  0  0  0  0  0  0  0  0  0  0  0
   32.7060   16.4620   -0.3700 C   0  0  0  0  0  0  0  0  0  0  0  0
   31.4320   16.9100   -0.0950 N   0  0  0  0  0  0  0  0  0  0  0  0
   30.2320   16.2870   -0.5240 C   0  0  0  0  0  0  0  0  0  0  0  0
   29.1210   16.2690    0.3380 C   0  0  0  0  0  0  0  0  0  0  0  0
   27.9600   15.5800   -0.0170 C   0  0  0  0  0  0  0  0  0  0  0  0
   27.9020   14.8930   -1.2250 C   0  0  0  0  0  0  0  0  0  0  0  0
   26.4760   14.0310   -1.6510 Cl  0  0  0  0  0  0  0  0  0  0  0  0
   28.9910   14.9020   -2.0920 C   0  0  0  0  0  0  0  0  0  0  0  0
   30.1570   15.6140   -1.7610 C   0  0  0  0  0  0  0  0  0  0  0  0
   31.2370   15.6730   -2.8000 C   0  0  0  0  0  0  0  0  0  0  0  0
   30.8430   15.9540   -4.2200 C   0  0  0  0  0  0  0  0  0  0  0  0
   31.7120   15.6790   -5.2850 C   0  0  0  0  0  0  0  0  0  0  0  0
   31.3150   15.9510   -6.5960 C   0  0  0  0  0  0  0  0  0  0  0  0
   30.0520   16.4860   -6.8480 C   0  0  0  0  0  0  0  0  0  0  0  0
   29.1770   16.7420   -5.7930 C   0  0  0  0  0  0  0  0  0  0  0  0
   29.5680   16.4720   -4.4810 C   0  0  0  0  0  0  0  0  0  0  0  0
   32.4940   15.5020   -2.5700 N   0  0  0  0  0  0  0  0  0  0  0  0
   32.9690   15.2740   -1.2130 C   0  0  0  0  0  0  0  0  0  0  0  0
   30.5598   18.9714    2.2927 H   0  0  0  0  0  0  0  0  0  0  0  0
   30.8077   19.9601    0.8136 H   0  0  0  0  0  0  0  0  0  0  0  0
   29.5989   18.6314    0.8136 H   0  0  0  0  0  0  0  0  0  0  0  0
   29.1672   16.8019    1.2992 H   0  0  0  0  0  0  0  0  0  0  0  0
   27.0916   15.5804    0.6582 H   0  0  0  0  0  0  0  0  0  0  0  0
   28.9389   14.3489   -3.0414 H   0  0  0  0  0  0  0  0  0  0  0  0
   32.7054   15.2495   -5.0883 H   0  0  0  0  0  0  0  0  0  0  0  0
   31.9997   15.7429   -7.4314 H   0  0  0  0  0  0  0  0  0  0  0  0
   29.7455   16.7065   -7.8812 H   0  0  0  0  0  0  0  0  0  0  0  0
   28.1784   17.1568   -5.9950 H   0  0  0  0  0  0  0  0  0  0  0  0
   28.8737   16.6663   -3.6502 H   0  0  0  0  0  0  0  0  0  0  0  0
   32.4472   14.4043   -0.7872 H   0  0  0  0  0  0  0  0  0  0  0  0
   34.0527   15.0873   -1.2400 H   0  0  0  0  0  0  0  0  0  0  0  0
  1  2  1  0
  2  3  2  0
  3  4  1  0
  4  5  2  0
  5  6  1  0
  6  7  1  0
  7  8  2  0
  8  9  1  0
  9 10  2  0
 10 11  1  0
 10 12  1  0
 12 13  2  0
 13 14  1  0
 14 15  1  0
 15 16  2  0
 16 17  1  0
 17 18  2  0
 18 19  1  0
 19 20  2  0
 14 21  2  0
 21 22  1  0
  6  2  1  0
 13  7  1  0
 20 15  1  0
 22  5  1  0
  1 23  1  0
  1 24  1  0
  1 25  1  0
  8 26  1  0
  9 27  1  0
 12 28  1  0
 16 29  1  0
 17 30  1  0
 18 31  1  0
 19 32  1  0
 20 33  1  0
 22 34  1  0
 22 35  1  0
M  END
>  <meeko>  (3) 
{"is_sidechain": [false], "free_energy": -7.853, "intermolecular_energy": -8.478, "internal_energy": 0.056}

$$$$
3u5j_ligand
     RDKit          3D

 35 38  0  0  0  0  0  0  0  0999 V2000
   29.8810   16.5460   -7.2210 C   0  0  0  0  0  0  0  0  0  0  0  0
   28.9920   16.8730   -6.0820 C   0  0  0  0  0  0  0  0  0  0  0  0
   28.2420   17.9540   -6.0170 N   0  0  0  0  0  0  0  0  0  0  0  0
   27.6730   18.0090   -4.7760 N   0  0  0  0  0  0  0  0  0  0  0  0
   28.0790   16.9580   -4.0980 C   0  0  0  0  0  0  0  0  0  0  0  0
   28.8890   16.1730   -4.8900 N   0  0  0  0  0  0  0  0  0  0  0  0
   29.3960   14.8960   -4.5340 C   0  0  0  0  0  0  0  0  0  0  0  0
   29.4950   13.8980   -5.5190 C   0  0  0  0  0  0  0  0  0  0  0  0
   29.9000   12.6050   -5.1790 C   0  0  0  0  0  0  0  0  0  0  0  0
   30.1940   12.2950   -3.8550 C   0  0  0  0  0  0  0  0  0  0  0  0
   30.6740   10.6970   -3.4380 Cl  0  0  0  0  0  0  0  0  0  0  0  0
   30.1040   13.2720   -2.8670 C   0  0  0  0  0  0  0  0  0  0  0  0
   29.7250   14.5850   -3.1990 C   0  0  0  0  0  0  0  0  0  0  0  0
   29.7700   15.6040   -2.0990 C   0  0  0  0  0  0  0  0  0  0  0  0
   30.9660   15.6220   -1.1930 C   0  0  0  0  0  0  0  0  0  0  0  0
   30.8330   15.4450    0.1900 C   0  0  0  0  0  0  0  0  0  0  0  0
   31.9660   15.4670    1.0070 C   0  0  0  0  0  0  0  0  0  0  0  0
   33.2300   15.6510    0.4460 C   0  0  0  0  0  0  0  0  0  0  0  0
   33.3670   15.8060   -0.9330 C   0  0  0  0  0  0  0  0  0  0  0  0
   32.2380   15.7870   -1.7540 C   0  0  0  0  0  0  0  0  0  0  0  0
   28.8530   16.4800   -1.8670 N   0  0  0  0  0  0  0  0  0  0  0  0
   27.6820   16.5660   -2.7270 C   0  0  0  0  0  0  0  0  0  0  0  0
   30.8494   16.1898   -6.8398 H   0  0  0  0  0  0  0  0  0  0  0  0
   29.4168   15.7598   -7.8345 H   0  0  0  0  0  0  0  0  0  0  0  0
   30.0369   17.4456   -7.8345 H   0  0  0  0  0  0  0  0  0  0  0  0
   29.2519   14.1369   -6.5649 H   0  0  0  0  0  0  0  0  0  0  0  0
   29.9864   11.8326   -5.9574 H   0  0  0  0  0  0  0  0  0  0  0  0
   30.3305   13.0156   -1.8216 H   0  0  0  0  0  0  0  0  0  0  0  0
   29.8380   15.2889    0.6322 H   0  0  0  0  0  0  0  0  0  0  0  0
   31.8613   15.3390    2.0945 H   0  0  0  0  0  0  0  0  0  0  0  0
   34.1198   15.6738    1.0924 H   0  0  0  0  0  0  0  0  0  0  0  0
   34.3652   15.9433   -1.3742 H   0  0  0  0  0  0  0  0  0  0  0  0
   32.3480   15.9018   -2.8425 H   0  0  0  0  0  0  0  0  0  0  0  0
   27.1832   15.5861   -2.7599 H   0  0  0  0  0  0  0  0  0  0  0  0
   26.9960   17.3248   -2.3225 H   0  0  0  0  0  0  0  0  0  0  0  0
  1  2  1  0
  2  3  2  0
  3  4  1  0
  4  5  2  0
  5  6  1  0
  6  7  1  0
  7  8  2  0
  8  9  1  0
  9 10  2  0
 10 11  1  0
 10 12  1  0
 12 13  2  0
 13 14  1  0
 14 15  1  0
 15 16  2  0
 16 17  1  0
 17 18  2  0
 18 19  1  0
 19 20  2  0
 14 21  2  0
 21 22  1  0
  6  2  1  0
 13  7  1  0
 20 15  1  0
 22  5  1  0
  1 23  1  0
  1 24  1  0
  1 25  1  0
  8 26  1  0
  9 27  1  0
 12 28  1  0
 16 29  1  0
 17 30  1  0
 18 31  1  0
 19 32  1  0
 20 33  1  0
 22 34  1  0
 22 35  1  0
M  END
>  <meeko>  (4) 
{"is_sidechain": [false], "free_energy": -7.193, "intermolecular_energy": -7.266, "internal_energy": -0.458}

$$$$
3u5j_ligand
     RDKit          3D

 35 38  0  0  0  0  0  0  0  0999 V2000
   33.4410   15.1780   -7.3700 C   0  0  0  0  0  0  0  0  0  0  0  0
   32.1320   15.8530   -7.2150 C   0  0  0  0  0  0  0  0  0  0  0  0
   31.7780   16.9380   -7.8740 N   0  0  0  0  0  0  0  0  0  0  0  0
   30.5790   17.3690   -7.3810 N   0  0  0  0  0  0  0  0  0  0  0  0
   30.2130   16.5400   -6.4270 C   0  0  0  0  0  0  0  0  0  0  0  0
   31.1400   15.5290   -6.3020 N   0  0  0  0  0  0  0  0  0  0  0  0
   31.0030   14.3880   -5.4700 C   0  0  0  0  0  0  0  0  0  0  0  0
   31.4820   13.1460   -5.9220 C   0  0  0  0  0  0  0  0  0  0  0  0
   31.2760   11.9890   -5.1670 C   0  0  0  0  0  0  0  0  0  0  0  0
   30.5800   12.0600   -3.9650 C   0  0  0  0  0  0  0  0  0  0  0  0
   30.3130   10.6300   -3.0480 Cl  0  0  0  0  0  0  0  0  0  0  0  0
   30.1010   13.2810   -3.5000 C   0  0  0  0  0  0  0  0  0  0  0  0
   30.3250   14.4590   -4.2360 C   0  0  0  0  0  0  0  0  0  0  0  0
   29.8830   15.7470   -3.6080 C   0  0  0  0  0  0  0  0  0  0  0  0
   30.1910   15.9750   -2.1570 C   0  0  0  0  0  0  0  0  0  0  0  0
   31.5100   16.1260   -1.7080 C   0  0  0  0  0  0  0  0  0  0  0  0
   31.7630   16.3370   -0.3510 C   0  0  0  0  0  0  0  0  0  0  0  0
   30.7060   16.4110    0.5560 C   0  0  0  0  0  0  0  0  0  0  0  0
   29.3920   16.2820    0.1090 C   0  0  0  0  0  0  0  0  0  0  0  0
   29.1320   16.0700   -1.2460 C   0  0  0  0  0  0  0  0  0  0  0  0
   29.2540   16.6910   -4.2220 N   0  0  0  0  0  0  0  0  0  0  0  0
   28.9580   16.5740   -5.6430 C   0  0  0  0  0  0  0  0  0  0  0  0
   33.8616   14.9611   -6.3770 H   0  0  0  0  0  0  0  0  0  0  0  0
   33.3052   14.2375   -7.9241 H   0  0  0  0  0  0  0  0  0  0  0  0
   34.1285   15.8340   -7.9241 H   0  0  0  0  0  0  0  0  0  0  0  0
   32.0232   13.0848   -6.8777 H   0  0  0  0  0  0  0  0  0  0  0  0
   31.6637   11.0230   -5.5227 H   0  0  0  0  0  0  0  0  0  0  0  0
   29.5444   13.3254   -2.5522 H   0  0  0  0  0  0  0  0  0  0  0  0
   32.3444   16.0784   -2.4232 H   0  0  0  0  0  0  0  0  0  0  0  0
   32.7987   16.4451    0.0036 H   0  0  0  0  0  0  0  0  0  0  0  0
   30.9095   16.5713    1.6251 H   0  0  0  0  0  0  0  0  0  0  0  0
   28.5592   16.3473    0.8247 H   0  0  0  0  0  0  0  0  0  0  0  0
   28.0941   15.9775   -1.5984 H   0  0  0  0  0  0  0  0  0  0  0  0
   28.3934   15.6469   -5.8211 H   0  0  0  0  0  0  0  0  0  0  0  0
   28.3624   17.4436   -5.9577 H   0  0  0  0  0  0  0  0  0  0  0  0
  1  2  1  0
  2  3  2  0
  3  4  1  0
  4  5  2  0
  5  6  1  0
  6  7  1  0
  7  8  2  0
  8  9  1  0
  9 10  2  0
 10 11  1  0
 10 12  1  0
 12 13  2  0
 13 14  1  0
 14 15  1  0
 15 16  2  0
 16 17  1  0
 17 18  2  0
 18 19  1  0
 19 20  2  0
 14 21  2  0
 21 22  1  0
  6  2  1  0
 13  7  1  0
 20 15  1  0
 22  5  1  0
  1 23  1  0
  1 24  1  0
  1 25  1  0
  8 26  1  0
  9 27  1  0
 12 28  1  0
 16 29  1  0
 17 30  1  0
 18 31  1  0
 19 32  1  0
 20 33  1  0
 22 34  1  0
 22 35  1  0
M  END
>  <meeko>  (5) 
{"is_sidechain": [false], "free_energy": -7.049, "intermolecular_energy": -7.068, "internal_energy": -0.503}

$$$$
3u5j_ligand
     RDKit          3D

 35 38  0  0  0  0  0  0  0  0999 V2000
   28.7860   17.4220   -5.7590 C   0  0  0  0  0  0  0  0  0  0  0  0
   28.2470   16.9230   -4.4730 C   0  0  0  0  0  0  0  0  0  0  0  0
   27.0300   17.1770   -4.0340 N   0  0  0  0  0  0  0  0  0  0  0  0
   26.9220   16.6900   -2.7610 N   0  0  0  0  0  0  0  0  0  0  0  0
   28.0730   16.1430   -2.4390 C   0  0  0  0  0  0  0  0  0  0  0  0
   28.9450   16.2210   -3.5030 N   0  0  0  0  0  0  0  0  0  0  0  0
   30.2270   15.6150   -3.5600 C   0  0  0  0  0  0  0  0  0  0  0  0
   30.6760   15.0720   -4.7760 C   0  0  0  0  0  0  0  0  0  0  0  0
   31.8910   14.3850   -4.8400 C   0  0  0  0  0  0  0  0  0  0  0  0
   32.6580   14.2230   -3.6910 C   0  0  0  0  0  0  0  0  0  0  0  0
   34.1430   13.3610   -3.7710 Cl  0  0  0  0  0  0  0  0  0  0  0  0
   32.2300   14.7560   -2.4790 C   0  0  0  0  0  0  0  0  0  0  0  0
   31.0230   15.4740   -2.4050 C   0  0  0  0  0  0  0  0  0  0  0  0
   30.6940   16.1180   -1.0910 C   0  0  0  0  0  0  0  0  0  0  0  0
   31.7820   16.8550   -0.3670 C   0  0  0  0  0  0  0  0  0  0  0  0
   33.1080   16.4040   -0.3920 C   0  0  0  0  0  0  0  0  0  0  0  0
   34.0980   17.1140    0.2920 C   0  0  0  0  0  0  0  0  0  0  0  0
   33.7710   18.2780    0.9880 C   0  0  0  0  0  0  0  0  0  0  0  0
   32.4560   18.7410    0.9970 C   0  0  0  0  0  0  0  0  0  0  0  0
   31.4620   18.0350    0.3160 C   0  0  0  0  0  0  0  0  0  0  0  0
   29.5350   16.0920   -0.5240 N   0  0  0  0  0  0  0  0  0  0  0  0
   28.4100   15.4400   -1.1800 C   0  0  0  0  0  0  0  0  0  0  0  0
   29.5803   18.1573   -5.5630 H   0  0  0  0  0  0  0  0  0  0  0  0
   29.1992   16.5806   -6.3346 H   0  0  0  0  0  0  0  0  0  0  0  0
   27.9789   17.8987   -6.3346 H   0  0  0  0  0  0  0  0  0  0  0  0
   30.0664   15.1887   -5.6841 H   0  0  0  0  0  0  0  0  0  0  0  0
   32.2406   13.9727   -5.7980 H   0  0  0  0  0  0  0  0  0  0  0  0
   32.8390   14.6150   -1.5739 H   0  0  0  0  0  0  0  0  0  0  0  0
   33.3694   15.4923   -0.9493 H   0  0  0  0  0  0  0  0  0  0  0  0
   35.1375   16.7544    0.2817 H   0  0  0  0  0  0  0  0  0  0  0  0
   34.5518   18.8313    1.5304 H   0  0  0  0  0  0  0  0  0  0  0  0
   32.2013   19.6627    1.5407 H   0  0  0  0  0  0  0  0  0  0  0  0
   30.4265   18.4062    0.3161 H   0  0  0  0  0  0  0  0  0  0  0  0
   28.6765   14.3971   -1.4066 H   0  0  0  0  0  0  0  0  0  0  0  0
   27.5385   15.4684   -0.5094 H   0  0  0  0  0  0  0  0  0  0  0  0
  1  2  1  0
  2  3  2  0
  3  4  1  0
  4  5  2  0
  5  6  1  0
  6  7  1  0
  7  8  2  0
  8  9  1  0
  9 10  2  0
 10 11  1  0
 10 12  1  0
 12 13  2  0
 13 14  1  0
 14 15  1  0
 15 16  2  0
 16 17  1  0
 17 18  2  0
 18 19  1  0
 19 20  2  0
 14 21  2  0
 21 22  1  0
  6  2  1  0
 13  7  1  0
 20 15  1  0
 22  5  1  0
  1 23  1  0
  1 24  1  0
  1 25  1  0
  8 26  1  0
  9 27  1  0
 12 28  1  0
 16 29  1  0
 17 30  1  0
 18 31  1  0
 19 32  1  0
 20 33  1  0
 22 34  1  0
 22 35  1  0
M  END
>  <meeko>  (6) 
{"is_sidechain": [false], "free_energy": -6.991, "intermolecular_energy": -7.806, "internal_energy": 0.296}

$$$$
3u5j_ligand
     RDKit          3D

 35 38  0  0  0  0  0  0  0  0999 V2000
   28.8250   10.9550   -4.1260 C   0  0  0  0  0  0  0  0  0  0  0  0
   30.1380   11.5490   -4.4700 C   0  0  0  0  0  0  0  0  0  0  0  0
   31.2080   10.8450   -4.7810 N   0  0  0  0  0  0  0  0  0  0  0  0
   32.2680   11.7010   -4.8940 N   0  0  0  0  0  0  0  0  0  0  0  0
   31.8310   12.9180   -4.6540 C   0  0  0  0  0  0  0  0  0  0  0  0
   30.4740   12.8930   -4.4190 N   0  0  0  0  0  0  0  0  0  0  0  0
   29.6470   14.0350   -4.2600 C   0  0  0  0  0  0  0  0  0  0  0  0
   28.3450   14.0190   -4.7900 C   0  0  0  0  0  0  0  0  0  0  0  0
   27.5430   15.1610   -4.7330 C   0  0  0  0  0  0  0  0  0  0  0  0
   28.0370   16.3290   -4.1610 C   0  0  0  0  0  0  0  0  0  0  0  0
   27.0530   17.7380   -4.1100 Cl  0  0  0  0  0  0  0  0  0  0  0  0
   29.3230   16.3620   -3.6290 C   0  0  0  0  0  0  0  0  0  0  0  0
   30.1320   15.2120   -3.6540 C   0  0  0  0  0  0  0  0  0  0  0  0
   31.4560   15.2960   -2.9540 C   0  0  0  0  0  0  0  0  0  0  0  0
   31.5040   15.9350   -1.5970 C   0  0  0  0  0  0  0  0  0  0  0  0
   30.5230   15.6690   -0.6320 C   0  0  0  0  0  0  0  0  0  0  0  0
   30.5970   16.2790    0.6220 C   0  0  0  0  0  0  0  0  0  0  0  0
   31.6510   17.1430    0.9190 C   0  0  0  0  0  0  0  0  0  0  0  0
   32.6390   17.3930   -0.0310 C   0  0  0  0  0  0  0  0  0  0  0  0
   32.5710   16.7870   -1.2870 C   0  0  0  0  0  0  0  0  0  0  0  0
   32.5710   14.8560   -3.4270 N   0  0  0  0  0  0  0  0  0  0  0  0
   32.6080   14.1770   -4.7150 C   0  0  0  0  0  0  0  0  0  0  0  0
   28.7195   10.9072   -3.0321 H   0  0  0  0  0  0  0  0  0  0  0  0
   28.0202   11.5767   -4.5452 H   0  0  0  0  0  0  0  0  0  0  0  0
   28.7606    9.9401   -4.5452 H   0  0  0  0  0  0  0  0  0  0  0  0
   27.9551   13.1005   -5.2529 H   0  0  0  0  0  0  0  0  0  0  0  0
   26.5214   15.1369   -5.1401 H   0  0  0  0  0  0  0  0  0  0  0  0
   29.7084   17.2925   -3.1867 H   0  0  0  0  0  0  0  0  0  0  0  0
   29.6962   14.9809   -0.8620 H   0  0  0  0  0  0  0  0  0  0  0  0
   29.8227   16.0778    1.3769 H   0  0  0  0  0  0  0  0  0  0  0  0
   31.7022   17.6279    1.9050 H   0  0  0  0  0  0  0  0  0  0  0  0
   33.4734   18.0685    0.2087 H   0  0  0  0  0  0  0  0  0  0  0  0
   33.3560   16.9790   -2.0333 H   0  0  0  0  0  0  0  0  0  0  0  0
   32.1753   14.8337   -5.4841 H   0  0  0  0  0  0  0  0  0  0  0  0
   33.6528   13.9412   -4.9656 H   0  0  0  0  0  0  0  0  0  0  0  0
  1  2  1  0
  2  3  2  0
  3  4  1  0
  4  5  2  0
  5  6  1  0
  6  7  1  0
  7  8  2  0
  8  9  1  0
  9 10  2  0
 10 11  1  0
 10 12  1  0
 12 13  2  0
 13 14  1  0
 14 15  1  0
 15 16  2  0
 16 17  1  0
 17 18  2  0
 18 19  1  0
 19 20  2  0
 14 21  2  0
 21 22  1  0
  6  2  1  0
 13  7  1  0
 20 15  1  0
 22  5  1  0
  1 23  1  0
  1 24  1  0
  1 25  1  0
  8 26  1  0
  9 27  1  0
 12 28  1  0
 16 29  1  0
 17 30  1  0
 18 31  1  0
 19 32  1  0
 20 33  1  0
 22 34  1  0
 22 35  1  0
M  END
>  <meeko>  (7) 
{"is_sidechain": [false], "free_energy": -6.879, "intermolecular_energy": -7.054, "internal_energy": -0.337}

$$$$
3u5j_ligand
     RDKit          3D

 35 38  0  0  0  0  0  0  0  0999 V2000
   34.4450   13.3540   -5.0920 C   0  0  0  0  0  0  0  0  0  0  0  0
   33.1860   12.6360   -4.7840 C   0  0  0  0  0  0  0  0  0  0  0  0
   32.8380   11.4880   -5.3300 N   0  0  0  0  0  0  0  0  0  0  0  0
   31.5640   11.1920   -4.9340 N   0  0  0  0  0  0  0  0  0  0  0  0
   31.1500   12.1620   -4.1480 C   0  0  0  0  0  0  0  0  0  0  0  0
   32.1530   13.0910   -3.9800 N   0  0  0  0  0  0  0  0  0  0  0  0
   32.1070   14.1960   -3.0920 C   0  0  0  0  0  0  0  0  0  0  0  0
   33.2760   14.5800   -2.4110 C   0  0  0  0  0  0  0  0  0  0  0  0
   33.2390   15.6020   -1.4590 C   0  0  0  0  0  0  0  0  0  0  0  0
   32.0360   16.2380   -1.1710 C   0  0  0  0  0  0  0  0  0  0  0  0
   31.9920   17.4830    0.0140 Cl  0  0  0  0  0  0  0  0  0  0  0  0
   30.8700   15.8740   -1.8370 C   0  0  0  0  0  0  0  0  0  0  0  0
   30.8970   14.8660   -2.8180 C   0  0  0  0  0  0  0  0  0  0  0  0
   29.6250   14.6170   -3.5730 C   0  0  0  0  0  0  0  0  0  0  0  0
   28.8480   15.8010   -4.0680 C   0  0  0  0  0  0  0  0  0  0  0  0
   27.8220   16.3700   -3.3020 C   0  0  0  0  0  0  0  0  0  0  0  0
   27.1170   17.4730   -3.7900 C   0  0  0  0  0  0  0  0  0  0  0  0
   27.4420   18.0160   -5.0340 C   0  0  0  0  0  0  0  0  0  0  0  0
   28.4760   17.4650   -5.7890 C   0  0  0  0  0  0  0  0  0  0  0  0
   29.1830   16.3630   -5.3060 C   0  0  0  0  0  0  0  0  0  0  0  0
   29.1390   13.4530   -3.8380 N   0  0  0  0  0  0  0  0  0  0  0  0
   29.8540   12.2480   -3.4390 C   0  0  0  0  0  0  0  0  0  0  0  0
   34.9438   13.6385   -4.1538 H   0  0  0  0  0  0  0  0  0  0  0  0
   35.1079   12.6981   -5.6754 H   0  0  0  0  0  0  0  0  0  0  0  0
   34.2180   14.2585   -5.6754 H   0  0  0  0  0  0  0  0  0  0  0  0
   34.2268   14.0718   -2.6295 H   0  0  0  0  0  0  0  0  0  0  0  0
   34.1598   15.9032   -0.9381 H   0  0  0  0  0  0  0  0  0  0  0  0
   29.9221   16.3770   -1.5953 H   0  0  0  0  0  0  0  0  0  0  0  0
   27.5718   15.9486   -2.3172 H   0  0  0  0  0  0  0  0  0  0  0  0
   26.3050   17.9139   -3.1932 H   0  0  0  0  0  0  0  0  0  0  0  0
   26.8811   18.8803   -5.4193 H   0  0  0  0  0  0  0  0  0  0  0  0
   28.7349   17.8990   -6.7660 H   0  0  0  0  0  0  0  0  0  0  0  0
   30.0049   15.9351   -5.8988 H   0  0  0  0  0  0  0  0  0  0  0  0
   30.0348   12.2756   -2.3543 H   0  0  0  0  0  0  0  0  0  0  0  0
   29.2456   11.3687   -3.6971 H   0  0  0  0  0  0  0  0  0  0  0  0
  1  2  1  0
  2  3  2  0
  3  4  1  0
  4  5  2  0
  5  6  1  0
  6  7  1  0
  7  8  2  0
  8  9  1  0
  9 10  2  0
 10 11  1  0
 10 12  1  0
 12 13  2  0
 13 14  1  0
 14 15  1  0
 15 16  2  0
 16 17  1  0
 17 18  2  0
 18 19  1  0
 19 20  2  0
 14 21  2  0
 21 22  1  0
  6  2  1  0
 13  7  1  0
 20 15  1  0
 22  5  1  0
  1 23  1  0
  1 24  1  0
  1 25  1  0
  8 26  1  0
  9 27  1  0
 12 28  1  0
 16 29  1  0
 17 30  1  0
 18 31  1  0
 19 32  1  0
 20 33  1  0
 22 34  1  0
 22 35  1  0
M  END
>  <meeko>  (8) 
{"is_sidechain": [false], "free_energy": -6.815, "intermolecular_energy": -6.941, "internal_energy": -0.383}

$$$$
3u5j_ligand
     RDKit          3D

 35 38  0  0  0  0  0  0  0  0999 V2000
   35.0030   12.6930   -4.9920 C   0  0  0  0  0  0  0  0  0  0  0  0
   34.1600   13.7710   -5.5580 C   0  0  0  0  0  0  0  0  0  0  0  0
   34.6310   14.7950   -6.2410 N   0  0  0  0  0  0  0  0  0  0  0  0
   33.6020   15.6620   -6.4800 N   0  0  0  0  0  0  0  0  0  0  0  0
   32.5140   15.1570   -5.9410 C   0  0  0  0  0  0  0  0  0  0  0  0
   32.7950   13.9320   -5.3750 N   0  0  0  0  0  0  0  0  0  0  0  0
   31.8370   13.0430   -4.8250 C   0  0  0  0  0  0  0  0  0  0  0  0
   32.0050   11.6580   -5.0000 C   0  0  0  0  0  0  0  0  0  0  0  0
   31.0300   10.7630   -4.5540 C   0  0  0  0  0  0  0  0  0  0  0  0
   29.8750   11.2420   -3.9440 C   0  0  0  0  0  0  0  0  0  0  0  0
   28.6690   10.1390   -3.4130 Cl  0  0  0  0  0  0  0  0  0  0  0  0
   29.6930   12.6100   -3.7590 C   0  0  0  0  0  0  0  0  0  0  0  0
   30.6790   13.5210   -4.1780 C   0  0  0  0  0  0  0  0  0  0  0  0
   30.4610   14.9650   -3.8350 C   0  0  0  0  0  0  0  0  0  0  0  0
   29.9950   15.3050   -2.4500 C   0  0  0  0  0  0  0  0  0  0  0  0
   28.6570   15.6320   -2.1920 C   0  0  0  0  0  0  0  0  0  0  0  0
   28.2550   15.9430   -0.8900 C   0  0  0  0  0  0  0  0  0  0  0  0
   29.1800   15.9170    0.1540 C   0  0  0  0  0  0  0  0  0  0  0  0
   30.5070   15.5710   -0.0970 C   0  0  0  0  0  0  0  0  0  0  0  0
   30.9160   15.2600   -1.3950 C   0  0  0  0  0  0  0  0  0  0  0  0
   30.6460   15.9530   -4.6430 N   0  0  0  0  0  0  0  0  0  0  0  0
   31.1450   15.7170   -5.9910 C   0  0  0  0  0  0  0  0  0  0  0  0
   34.9675   12.7383   -3.8935 H   0  0  0  0  0  0  0  0  0  0  0  0
   34.6263   11.7167   -5.3310 H   0  0  0  0  0  0  0  0  0  0  0  0
   36.0413   12.8232   -5.3310 H   0  0  0  0  0  0  0  0  0  0  0  0
   32.9117   11.2763   -5.4922 H   0  0  0  0  0  0  0  0  0  0  0  0
   31.1751    9.6805   -4.6849 H   0  0  0  0  0  0  0  0  0  0  0  0
   28.7732   12.9801   -3.2826 H   0  0  0  0  0  0  0  0  0  0  0  0
   27.9245   15.6439   -3.0126 H   0  0  0  0  0  0  0  0  0  0  0  0
   27.2069   16.2089   -0.6880 H   0  0  0  0  0  0  0  0  0  0  0  0
   28.8620   16.1698    1.1763 H   0  0  0  0  0  0  0  0  0  0  0  0
   31.2329   15.5430    0.7290 H   0  0  0  0  0  0  0  0  0  0  0  0
   31.9617   14.9795   -1.5896 H   0  0  0  0  0  0  0  0  0  0  0  0
   30.4808   15.0064   -6.5046 H   0  0  0  0  0  0  0  0  0  0  0  0
   31.1687   16.6721   -6.5362 H   0  0  0  0  0  0  0  0  0  0  0  0
  1  2  1  0
  2  3  2  0
  3  4  1  0
  4  5  2  0
  5  6  1  0
  6  7  1  0
  7  8  2  0
  8  9  1  0
  9 10  2  0
 10 11  1  0
 10 12  1  0
 12 13  2  0
 13 14  1  0
 14 15  1  0
 15 16  2  0
 16 17  1  0
 17 18  2  0
 18 19  1  0
 19 20  2  0
 14 21  2  0
 21 22  1  0
  6  2  1  0
 13  7  1  0
 20 15  1  0
 22  5  1  0
  1 23  1  0
  1 24  1  0
  1 25  1  0
  8 26  1  0
  9 27  1  0
 12 28  1  0
 16 29  1  0
 17 30  1  0
 18 31  1  0
 19 32  1  0
 20 33  1  0
 22 34  1  0
 22 35  1  0
M  END
>  <meeko>  (9) 
{"is_sidechain": [false], "free_energy": -6.812, "intermolecular_energy": -6.848, "internal_energy": -0.472}

$$$$
