4m0z_ligand
     RDKit          3D

 39 41  0  0  0  0  0  0  0  0999 V2000
   -8.1770   10.6420   16.7280 C   0  0  0  0  0  0  0  0  0  0  0  0
   -8.0530   11.9430   16.1660 O   0  0  0  0  0  0  0  0  0  0  0  0
   -7.4050   12.0390   14.9650 C   0  0  0  0  0  0  0  0  0  0  0  0
   -7.3720   13.1530   14.1430 C   0  0  0  0  0  0  0  0  0  0  0  0
   -6.6830   13.0920   12.9320 C   0  0  0  0  0  0  0  0  0  0  0  0
   -6.0060   11.9280   12.5290 C   0  0  0  0  0  0  0  0  0  0  0  0
   -5.3650   11.9290   11.2840 C   0  0  0  0  0  0  0  0  0  0  0  0
   -4.6950   10.8060   10.8220 C   0  0  0  0  0  0  0  0  0  0  0  0
   -4.6370    9.6630   11.6120 C   0  0  0  0  0  0  0  0  0  0  0  0
   -5.2510    9.6280   12.8820 C   0  0  0  0  0  0  0  0  0  0  0  0
   -5.0790    8.4320   13.6580 N   0  0  0  0  0  0  0  0  0  0  0  0
   -3.9020    7.9550   14.2020 C   0  0  0  0  0  0  0  0  0  0  0  0
   -4.2000    6.8280   14.9250 C   0  0  0  0  0  0  0  0  0  0  0  0
   -3.3460    6.0070   15.6420 N   0  0  0  0  0  0  0  0  0  0  0  0
   -1.9860    6.1370   15.7150 C   0  0  0  0  0  0  0  0  0  0  0  0
   -1.4200    5.1910   16.5180 N   0  0  0  0  0  0  0  0  0  0  0  0
   -1.2800    6.9650   15.1540 O   0  0  0  0  0  0  0  0  0  0  0  0
   -5.5990    6.6730   14.7810 C   0  0  0  0  0  0  0  0  0  0  0  0
   -6.4290    5.6150   15.3660 C   0  0  0  0  0  0  0  0  0  0  0  0
   -7.7060    5.5600   14.8830 N   0  0  0  0  0  0  0  0  0  0  0  0
   -6.0230    4.8350   16.2250 O   0  0  0  0  0  0  0  0  0  0  0  0
   -6.1250    7.6430   14.0140 N   0  0  0  0  0  0  0  0  0  0  0  0
   -5.9810   10.7740   13.3590 C   0  0  0  0  0  0  0  0  0  0  0  0
   -6.7260   10.8780   14.5690 C   0  0  0  0  0  0  0  0  0  0  0  0
   -8.1701   10.7145   17.8256 H   0  0  0  0  0  0  0  0  0  0  0  0
   -9.1225   10.1880   16.3965 H   0  0  0  0  0  0  0  0  0  0  0  0
   -7.3343   10.0175   16.3965 H   0  0  0  0  0  0  0  0  0  0  0  0
   -7.8851   14.0786   14.4429 H   0  0  0  0  0  0  0  0  0  0  0  0
   -6.6690   13.9755   12.2769 H   0  0  0  0  0  0  0  0  0  0  0  0
   -5.3934   12.8358   10.6619 H   0  0  0  0  0  0  0  0  0  0  0  0
   -4.2112   10.8194    9.8342 H   0  0  0  0  0  0  0  0  0  0  0  0
   -4.1052    8.7741   11.2418 H   0  0  0  0  0  0  0  0  0  0  0  0
   -2.9037    8.3998   14.0775 H   0  0  0  0  0  0  0  0  0  0  0  0
   -3.7700    5.1980   16.0850 H   0  0  0  0  0  0  0  0  0  0  0  0
   -0.4300    5.3470   16.6650 H   0  0  0  0  0  0  0  0  0  0  0  0
   -1.9270    4.9310   17.3520 H   0  0  0  0  0  0  0  0  0  0  0  0
   -7.9920    6.2330   14.1800 H   0  0  0  0  0  0  0  0  0  0  0  0
   -8.3500    4.8660   15.2290 H   0  0  0  0  0  0  0  0  0  0  0  0
   -6.7709    9.9990   15.2288 H   0  0  0  0  0  0  0  0  0  0  0  0
  1  2  1  0
  2  3  1  0
  3  4  2  0
  4  5  1  0
  5  6  2  0
  6  7  1  0
  7  8  2  0
  8  9  1  0
  9 10  2  0
 10 11  1  0
 11 12  1  0
 12 13  2  0
 13 14  1  0
 14 15  1  0
 15 16  1  0
 15 17  2  0
 13 18  1  0
 18 19  1  0
 19 20  1  0
 19 21  2  0
 18 22  2  0
 10 23  1  0
 23 24  2  0
 24  3  1  0
 23  6  1  0
 22 11  1  0
  1 25  1  0
  1 26  1  0
  1 27  1  0
  4 28  1  0
  5 29  1  0
  7 30  1  0
  8 31  1  0
  9 32  1  0
 12 33  1  0
 14 34  1  0
 16 35  1  0
 16 36  1  0
 20 37  1  0
 20 38  1  0
 24 39  1  0
M  END
>  <meeko>  (1) 
{"is_sidechain": [false], "free_energy": -10.885, "intermolecular_energy": -13.431, "internal_energy": -0.423}

$$$$
4m0z_ligand
     RDKit          3D

 39 41  0  0  0  0  0  0  0  0999 V2000
   -8.7110   11.0730   16.3220 C   0  0  0  0  0  0  0  0  0  0  0  0
   -7.6800   12.0270   16.0920 O   0  0  0  0  0  0  0  0  0  0  0  0
   -7.1570   12.0790   14.8290 C   0  0  0  0  0  0  0  0  0  0  0  0
   -7.3480   13.0960   13.9090 C   0  0  0  0  0  0  0  0  0  0  0  0
   -6.7640   12.9980   12.6460 C   0  0  0  0  0  0  0  0  0  0  0  0
   -5.9710   11.8950   12.2870 C   0  0  0  0  0  0  0  0  0  0  0  0
   -5.4460   11.8480   10.9890 C   0  0  0  0  0  0  0  0  0  0  0  0
   -4.6690   10.7770   10.5690 C   0  0  0  0  0  0  0  0  0  0  0  0
   -4.3880    9.7400   11.4510 C   0  0  0  0  0  0  0  0  0  0  0  0
   -4.8800    9.7590   12.7730 C   0  0  0  0  0  0  0  0  0  0  0  0
   -4.4800    8.6830   13.6350 N   0  0  0  0  0  0  0  0  0  0  0  0
   -5.2940    7.7160   14.1940 C   0  0  0  0  0  0  0  0  0  0  0  0
   -4.4940    6.8430   14.8870 C   0  0  0  0  0  0  0  0  0  0  0  0
   -4.8610    5.7220   15.6120 N   0  0  0  0  0  0  0  0  0  0  0  0
   -5.9730    4.9560   15.3930 C   0  0  0  0  0  0  0  0  0  0  0  0
   -6.0520    3.9030   16.2560 N   0  0  0  0  0  0  0  0  0  0  0  0
   -6.8480    5.1260   14.5540 O   0  0  0  0  0  0  0  0  0  0  0  0
   -3.1830    7.3420   14.7060 C   0  0  0  0  0  0  0  0  0  0  0  0
   -1.9450    6.7680   15.2430 C   0  0  0  0  0  0  0  0  0  0  0  0
   -1.0220    7.6880   15.6530 N   0  0  0  0  0  0  0  0  0  0  0  0
   -1.7390    5.5590   15.3210 O   0  0  0  0  0  0  0  0  0  0  0  0
   -3.1790    8.4530   13.9500 N   0  0  0  0  0  0  0  0  0  0  0  0
   -5.7160   10.8470   13.2130 C   0  0  0  0  0  0  0  0  0  0  0  0
   -6.3620   10.9800   14.4760 C   0  0  0  0  0  0  0  0  0  0  0  0
   -8.8536   10.9411   17.4047 H   0  0  0  0  0  0  0  0  0  0  0  0
   -9.6481   11.4296   15.8695 H   0  0  0  0  0  0  0  0  0  0  0  0
   -8.4281   10.1111   15.8695 H   0  0  0  0  0  0  0  0  0  0  0  0
   -7.9556   13.9744   14.1720 H   0  0  0  0  0  0  0  0  0  0  0  0
   -6.9281   13.8027   11.9142 H   0  0  0  0  0  0  0  0  0  0  0  0
   -5.6528   12.6730   10.2914 H   0  0  0  0  0  0  0  0  0  0  0  0
   -4.2770   10.7491    9.5416 H   0  0  0  0  0  0  0  0  0  0  0  0
   -3.7733    8.8926   11.1134 H   0  0  0  0  0  0  0  0  0  0  0  0
   -6.3884    7.6568   14.1000 H   0  0  0  0  0  0  0  0  0  0  0  0
   -4.2870    5.5050   16.4210 H   0  0  0  0  0  0  0  0  0  0  0  0
   -6.8110    3.2710   16.0300 H   0  0  0  0  0  0  0  0  0  0  0  0
   -5.1870    3.4420   16.5020 H   0  0  0  0  0  0  0  0  0  0  0  0
   -1.2390    8.6750   15.5590 H   0  0  0  0  0  0  0  0  0  0  0  0
   -0.1390    7.3860   16.0350 H   0  0  0  0  0  0  0  0  0  0  0  0
   -6.2295   10.1758   15.2147 H   0  0  0  0  0  0  0  0  0  0  0  0
  1  2  1  0
  2  3  1  0
  3  4  2  0
  4  5  1  0
  5  6  2  0
  6  7  1  0
  7  8  2  0
  8  9  1  0
  9 10  2  0
 10 11  1  0
 11 12  1  0
 12 13  2  0
 13 14  1  0
 14 15  1  0
 15 16  1  0
 15 17  2  0
 13 18  1  0
 18 19  1  0
 19 20  1  0
 19 21  2  0
 18 22  2  0
 10 23  1  0
 23 24  2  0
 24  3  1  0
 23  6  1  0
 22 11  1  0
  1 25  1  0
  1 26  1  0
  1 27  1  0
  4 28  1  0
  5 29  1  0
  7 30  1  0
  8 31  1  0
  9 32  1  0
 12 33  1  0
 14 34  1  0
 16 35  1  0
 16 36  1  0
 20 37  1  0
 20 38  1  0
 24 39  1  0
M  END
>  <meeko>  (2) 
{"is_sidechain": [false], "free_energy": -9.808, "intermolecular_energy": -12.04, "internal_energy": -0.485}

$$$$
4m0z_ligand
     RDKit          3D

 39 41  0  0  0  0  0  0  0  0999 V2000
   -4.1540   10.3650    9.0130 C   0  0  0  0  0  0  0  0  0  0  0  0
   -3.7280   10.7820   10.3050 O   0  0  0  0  0  0  0  0  0  0  0  0
   -4.6990   11.2110   11.1680 C   0  0  0  0  0  0  0  0  0  0  0  0
   -5.4680   12.3540   11.0270 C   0  0  0  0  0  0  0  0  0  0  0  0
   -6.4090   12.6730   12.0060 C   0  0  0  0  0  0  0  0  0  0  0  0
   -6.6080   11.8530   13.1300 C   0  0  0  0  0  0  0  0  0  0  0  0
   -7.5460   12.2560   14.0890 C   0  0  0  0  0  0  0  0  0  0  0  0
   -7.7740   11.4990   15.2290 C   0  0  0  0  0  0  0  0  0  0  0  0
   -7.0790   10.3100   15.4190 C   0  0  0  0  0  0  0  0  0  0  0  0
   -6.1410    9.8580   14.4670 C   0  0  0  0  0  0  0  0  0  0  0  0
   -5.5250    8.5850   14.7100 N   0  0  0  0  0  0  0  0  0  0  0  0
   -6.1620    7.3720   14.8950 C   0  0  0  0  0  0  0  0  0  0  0  0
   -5.1970    6.4060   15.0230 C   0  0  0  0  0  0  0  0  0  0  0  0
   -5.3550    5.0450   15.2280 N   0  0  0  0  0  0  0  0  0  0  0  0
   -6.2760    4.4630   16.0550 C   0  0  0  0  0  0  0  0  0  0  0  0
   -6.2040    3.1010   16.0280 N   0  0  0  0  0  0  0  0  0  0  0  0
   -7.0970    5.0180   16.7730 O   0  0  0  0  0  0  0  0  0  0  0  0
   -3.9740    7.1070   14.9030 C   0  0  0  0  0  0  0  0  0  0  0  0
   -2.6250    6.5330   14.9630 C   0  0  0  0  0  0  0  0  0  0  0  0
   -2.3340    5.8870   16.1310 N   0  0  0  0  0  0  0  0  0  0  0  0
   -1.8110    6.6220   14.0460 O   0  0  0  0  0  0  0  0  0  0  0  0
   -4.1770    8.4220   14.7150 N   0  0  0  0  0  0  0  0  0  0  0  0
   -5.8670   10.6510   13.2960 C   0  0  0  0  0  0  0  0  0  0  0  0
   -4.8980   10.3880   12.2860 C   0  0  0  0  0  0  0  0  0  0  0  0
   -4.9367    9.5988    9.1146 H   0  0  0  0  0  0  0  0  0  0  0  0
   -4.5556   11.2287    8.4628 H   0  0  0  0  0  0  0  0  0  0  0  0
   -3.2990    9.9451    8.4628 H   0  0  0  0  0  0  0  0  0  0  0  0
   -5.3378   13.0051   10.1500 H   0  0  0  0  0  0  0  0  0  0  0  0
   -7.0095   13.5880   11.8957 H   0  0  0  0  0  0  0  0  0  0  0  0
   -8.1108   13.1874   13.9358 H   0  0  0  0  0  0  0  0  0  0  0  0
   -8.5024   11.8384   15.9802 H   0  0  0  0  0  0  0  0  0  0  0  0
   -7.2631    9.7132   16.3245 H   0  0  0  0  0  0  0  0  0  0  0  0
   -7.2494    7.2104   14.9328 H   0  0  0  0  0  0  0  0  0  0  0  0
   -4.6720    4.4440   14.7790 H   0  0  0  0  0  0  0  0  0  0  0  0
   -6.9520    2.6620   16.5510 H   0  0  0  0  0  0  0  0  0  0  0  0
   -6.0090    2.6660   15.1380 H   0  0  0  0  0  0  0  0  0  0  0  0
   -3.0390    5.8500   16.8590 H   0  0  0  0  0  0  0  0  0  0  0  0
   -1.4290    5.4620   16.2640 H   0  0  0  0  0  0  0  0  0  0  0  0
   -4.2711    9.4899   12.3884 H   0  0  0  0  0  0  0  0  0  0  0  0
  1  2  1  0
  2  3  1  0
  3  4  2  0
  4  5  1  0
  5  6  2  0
  6  7  1  0
  7  8  2  0
  8  9  1  0
  9 10  2  0
 10 11  1  0
 11 12  1  0
 12 13  2  0
 13 14  1  0
 14 15  1  0
 15 16  1  0
 15 17  2  0
 13 18  1  0
 18 19  1  0
 19 20  1  0
 19 21  2  0
 18 22  2  0
 10 23  1  0
 23 24  2  0
 24  3  1  0
 23  6  1  0
 22 11  1  0
  1 25  1  0
  1 26  1  0
  1 27  1  0
  4 28  1  0
  5 29  1  0
  7 30  1  0
  8 31  1  0
  9 32  1  0
 12 33  1  0
 14 34  1  0
 16 35  1  0
 16 36  1  0
 20 37  1  0
 20 38  1  0
 24 39  1  0
M  END
>  <meeko>  (3) 
{"is_sidechain": [false], "free_energy": -9.347, "intermolecular_energy": -11.759, "internal_energy": -0.196}

$$$$
4m0z_ligand
     RDKit          3D

 39 41  0  0  0  0  0  0  0  0999 V2000
   -4.1640    9.9760    8.6250 C   0  0  0  0  0  0  0  0  0  0  0  0
   -3.7820   10.0830    9.9910 O   0  0  0  0  0  0  0  0  0  0  0  0
   -4.6300   10.7670   10.8180 C   0  0  0  0  0  0  0  0  0  0  0  0
   -5.1690   12.0200   10.5790 C   0  0  0  0  0  0  0  0  0  0  0  0
   -6.0050   12.6010   11.5320 C   0  0  0  0  0  0  0  0  0  0  0  0
   -6.3290   11.9380   12.7280 C   0  0  0  0  0  0  0  0  0  0  0  0
   -7.1470   12.5990   13.6540 C   0  0  0  0  0  0  0  0  0  0  0  0
   -7.4880   12.0040   14.8600 C   0  0  0  0  0  0  0  0  0  0  0  0
   -7.0300   10.7250   15.1530 C   0  0  0  0  0  0  0  0  0  0  0  0
   -6.2210   10.0170   14.2390 C   0  0  0  0  0  0  0  0  0  0  0  0
   -5.8540    8.6750   14.5940 N   0  0  0  0  0  0  0  0  0  0  0  0
   -4.5750    8.1760   14.7550 C   0  0  0  0  0  0  0  0  0  0  0  0
   -4.6830    6.8710   15.1640 C   0  0  0  0  0  0  0  0  0  0  0  0
   -3.6730    5.9660   15.4470 N   0  0  0  0  0  0  0  0  0  0  0  0
   -2.3390    6.2560   15.5260 C   0  0  0  0  0  0  0  0  0  0  0  0
   -1.5920    5.1600   15.8440 N   0  0  0  0  0  0  0  0  0  0  0  0
   -1.7920    7.3350   15.3400 O   0  0  0  0  0  0  0  0  0  0  0  0
   -6.0760    6.6340   15.2370 C   0  0  0  0  0  0  0  0  0  0  0  0
   -6.7330    5.3850   15.6330 C   0  0  0  0  0  0  0  0  0  0  0  0
   -6.8490    4.4610   14.6330 N   0  0  0  0  0  0  0  0  0  0  0  0
   -7.1540    5.1730   16.7680 O   0  0  0  0  0  0  0  0  0  0  0  0
   -6.7790    7.7260   14.8910 N   0  0  0  0  0  0  0  0  0  0  0  0
   -5.8300   10.6350   12.9980 C   0  0  0  0  0  0  0  0  0  0  0  0
   -4.9540   10.1010   12.0090 C   0  0  0  0  0  0  0  0  0  0  0  0
   -5.2215    9.6798    8.5621 H   0  0  0  0  0  0  0  0  0  0  0  0
   -4.0252   10.9476    8.1283 H   0  0  0  0  0  0  0  0  0  0  0  0
   -3.5407    9.2179    8.1283 H   0  0  0  0  0  0  0  0  0  0  0  0
   -4.9395   12.5530    9.6445 H   0  0  0  0  0  0  0  0  0  0  0  0
   -6.4206   13.6018   11.3431 H   0  0  0  0  0  0  0  0  0  0  0  0
   -7.5247   13.6055   13.4210 H   0  0  0  0  0  0  0  0  0  0  0  0
   -8.1190   12.5429   15.5821 H   0  0  0  0  0  0  0  0  0  0  0  0
   -7.3020   10.2579   16.1111 H   0  0  0  0  0  0  0  0  0  0  0  0
   -3.6381    8.7268   14.5855 H   0  0  0  0  0  0  0  0  0  0  0  0
   -3.9540    4.9940   15.5250 H   0  0  0  0  0  0  0  0  0  0  0  0
   -0.6190    5.3870   16.0110 H   0  0  0  0  0  0  0  0  0  0  0  0
   -1.9860    4.5090   16.5080 H   0  0  0  0  0  0  0  0  0  0  0  0
   -6.4920    4.6910   13.7110 H   0  0  0  0  0  0  0  0  0  0  0  0
   -7.2890    3.5720   14.8120 H   0  0  0  0  0  0  0  0  0  0  0  0
   -4.5074    9.1121   12.1896 H   0  0  0  0  0  0  0  0  0  0  0  0
  1  2  1  0
  2  3  1  0
  3  4  2  0
  4  5  1  0
  5  6  2  0
  6  7  1  0
  7  8  2  0
  8  9  1  0
  9 10  2  0
 10 11  1  0
 11 12  1  0
 12 13  2  0
 13 14  1  0
 14 15  1  0
 15 16  1  0
 15 17  2  0
 13 18  1  0
 18 19  1  0
 19 20  1  0
 19 21  2  0
 18 22  2  0
 10 23  1  0
 23 24  2  0
 24  3  1  0
 23  6  1  0
 22 11  1  0
  1 25  1  0
  1 26  1  0
  1 27  1  0
  4 28  1  0
  5 29  1  0
  7 30  1  0
  8 31  1  0
  9 32  1  0
 12 33  1  0
 14 34  1  0
 16 35  1  0
 16 36  1  0
 20 37  1  0
 20 38  1  0
 24 39  1  0
M  END
>  <meeko>  (4) 
{"is_sidechain": [false], "free_energy": -9.034, "intermolecular_energy": -11.386, "internal_energy": -0.183}

$$$$
