4jfs_ligand
     RDKit          3D

 37 38  0  0  0  0  0  0  0  0999 V2000
  -17.5130   17.0850   35.4350 C   0  0  0  0  0  0  0  0  0  0  0  0
  -16.9960   15.8660   35.9570 O   0  0  0  0  0  0  0  0  0  0  0  0
  -16.7900   14.8460   35.0730 C   0  0  0  0  0  0  0  0  0  0  0  0
  -17.6700   14.8290   33.9900 C   0  0  0  0  0  0  0  0  0  0  0  0
  -17.5760   13.8430   33.0040 C   0  0  0  0  0  0  0  0  0  0  0  0
  -16.5930   12.8460   33.0840 C   0  0  0  0  0  0  0  0  0  0  0  0
  -16.4430   11.7670   32.0320 C   0  0  1  0  0  0  0  0  0  0  0  0
  -14.9610   11.3330   31.8050 C   0  0  2  0  0  0  0  0  0  0  0  0
  -14.3720   11.9390   30.6540 O   0  0  0  0  0  0  0  0  0  0  0  0
  -15.0670    9.8270   31.5680 C   0  0  2  0  0  0  0  0  0  0  0  0
  -15.5500    9.6040   30.2330 O   0  0  0  0  0  0  0  0  0  0  0  0
  -16.1400    9.4090   32.5770 C   0  0  2  0  0  0  0  0  0  0  0  0
  -16.6920    8.0090   32.3510 C   0  0  0  0  0  0  0  0  0  0  0  0
  -17.2070   10.4590   32.3050 N   0  0  1  0  0  0  0  0  0  0  0  0
  -18.3650   10.5080   33.2400 C   0  0  0  0  0  0  0  0  0  0  0  0
  -15.7100   12.8730   34.1770 C   0  0  0  0  0  0  0  0  0  0  0  0
  -15.8090   13.8630   35.1630 C   0  0  0  0  0  0  0  0  0  0  0  0
  -17.7947   17.7492   36.2653 H   0  0  0  0  0  0  0  0  0  0  0  0
  -16.7451   17.5746   34.8181 H   0  0  0  0  0  0  0  0  0  0  0  0
  -18.3988   16.8733   34.8181 H   0  0  0  0  0  0  0  0  0  0  0  0
  -18.4483   15.6023   33.9113 H   0  0  0  0  0  0  0  0  0  0  0  0
  -18.2790   13.8490   32.1580 H   0  0  0  0  0  0  0  0  0  0  0  0
  -16.8716   12.2698   31.1525 H   0  0  0  0  0  0  0  0  0  0  0  0
  -14.3288   11.6281   32.6555 H   0  0  0  0  0  0  0  0  0  0  0  0
  -14.1340   11.2350   30.0190 H   0  0  0  0  0  0  0  0  0  0  0  0
  -14.1188    9.2809   31.6806 H   0  0  0  0  0  0  0  0  0  0  0  0
  -14.8080    9.1750   29.7520 H   0  0  0  0  0  0  0  0  0  0  0  0
  -15.7602    9.3639   33.6084 H   0  0  0  0  0  0  0  0  0  0  0  0
  -16.8815    7.5284   33.3221 H   0  0  0  0  0  0  0  0  0  0  0  0
  -17.6323    8.0728   31.7838 H   0  0  0  0  0  0  0  0  0  0  0  0
  -15.9612    7.4139   31.7838 H   0  0  0  0  0  0  0  0  0  0  0  0
  -17.5760   10.1980   31.3750 H   0  0  0  0  0  0  0  0  0  0  0  0
  -17.9995   10.4925   34.2774 H   0  0  0  0  0  0  0  0  0  0  0  0
  -18.9374   11.4312   33.0666 H   0  0  0  0  0  0  0  0  0  0  0  0
  -19.0134    9.6365   33.0666 H   0  0  0  0  0  0  0  0  0  0  0  0
  -14.9280   12.1038   34.2596 H   0  0  0  0  0  0  0  0  0  0  0  0
  -15.1089   13.8635   36.0114 H   0  0  0  0  0  0  0  0  0  0  0  0
  1  2  1  0
  2  3  1  0
  3  4  2  0
  4  5  1  0
  5  6  2  0
  6  7  1  0
  7  8  1  0
  8  9  1  0
  8 10  1  0
 10 11  1  0
 10 12  1  0
 12 13  1  0
 12 14  1  0
 14 15  1  0
  6 16  1  0
 16 17  2  0
 17  3  1  0
 14  7  1  0
  1 18  1  0
  1 19  1  0
  1 20  1  0
  4 21  1  0
  5 22  1  0
  7 23  1  6
  8 24  1  1
  9 25  1  0
 10 26  1  1
 11 27  1  0
 12 28  1  1
 13 29  1  0
 13 30  1  0
 13 31  1  0
 14 32  1  6
 15 33  1  0
 15 34  1  0
 15 35  1  0
 16 36  1  0
 17 37  1  0
M  CHG  1  14   1
M  END
>  <meeko>  (1) 
{"is_sidechain": [false], "free_energy": -6.974, "intermolecular_energy": -8.197, "internal_energy": -0.237}

$$$$
4jfs_ligand
     RDKit          3D

 37 38  0  0  0  0  0  0  0  0999 V2000
  -22.1190   17.3850   35.8440 C   0  0  0  0  0  0  0  0  0  0  0  0
  -20.9790   17.5410   35.0070 O   0  0  0  0  0  0  0  0  0  0  0  0
  -20.1900   16.4430   34.8150 C   0  0  0  0  0  0  0  0  0  0  0  0
  -20.7890   15.2300   35.1550 C   0  0  0  0  0  0  0  0  0  0  0  0
  -20.1010   14.0230   35.0080 C   0  0  0  0  0  0  0  0  0  0  0  0
  -18.7880   14.0070   34.5150 C   0  0  0  0  0  0  0  0  0  0  0  0
  -18.0090   12.7220   34.3240 C   0  0  1  0  0  0  0  0  0  0  0  0
  -17.1940   12.6920   32.9930 C   0  0  2  0  0  0  0  0  0  0  0  0
  -17.8410   11.9500   31.9590 O   0  0  0  0  0  0  0  0  0  0  0  0
  -15.9060   11.9680   33.3850 C   0  0  2  0  0  0  0  0  0  0  0  0
  -16.1820   10.5610   33.4860 O   0  0  0  0  0  0  0  0  0  0  0  0
  -15.6200   12.5340   34.7780 C   0  0  2  0  0  0  0  0  0  0  0  0
  -14.5690   11.7590   35.5590 C   0  0  0  0  0  0  0  0  0  0  0  0
  -16.9890   12.3910   35.4270 N   0  0  1  0  0  0  0  0  0  0  0  0
  -17.1760   13.0210   36.7640 C   0  0  0  0  0  0  0  0  0  0  0  0
  -18.1930   15.2330   34.1730 C   0  0  0  0  0  0  0  0  0  0  0  0
  -18.8880   16.4410   34.3230 C   0  0  0  0  0  0  0  0  0  0  0  0
  -21.8083   17.4275   36.8984 H   0  0  0  0  0  0  0  0  0  0  0  0
  -22.8368   18.1933   35.6404 H   0  0  0  0  0  0  0  0  0  0  0  0
  -22.5932   16.4136   35.6404 H   0  0  0  0  0  0  0  0  0  0  0  0
  -21.8177   15.2237   35.5444 H   0  0  0  0  0  0  0  0  0  0  0  0
  -20.5929   13.0778   35.2810 H   0  0  0  0  0  0  0  0  0  0  0  0
  -18.8205   11.9794   34.3356 H   0  0  0  0  0  0  0  0  0  0  0  0
  -17.0557   13.7069   32.5920 H   0  0  0  0  0  0  0  0  0  0  0  0
  -18.0770   11.0690   32.3090 H   0  0  0  0  0  0  0  0  0  0  0  0
  -15.0756   12.1007   32.6759 H   0  0  0  0  0  0  0  0  0  0  0  0
  -17.0170   10.4910   33.9980 H   0  0  0  0  0  0  0  0  0  0  0  0
  -15.2058   13.5526   34.7470 H   0  0  0  0  0  0  0  0  0  0  0  0
  -14.7442   11.8882   36.6373 H   0  0  0  0  0  0  0  0  0  0  0  0
  -14.6345   10.6914   35.3022 H   0  0  0  0  0  0  0  0  0  0  0  0
  -13.5685   12.1371   35.3022 H   0  0  0  0  0  0  0  0  0  0  0  0
  -17.0940   11.3700   35.5530 H   0  0  0  0  0  0  0  0  0  0  0  0
  -16.9572   12.2838   37.5505 H   0  0  0  0  0  0  0  0  0  0  0  0
  -16.4934   13.8778   36.8643 H   0  0  0  0  0  0  0  0  0  0  0  0
  -18.2155   13.3666   36.8643 H   0  0  0  0  0  0  0  0  0  0  0  0
  -17.1652   15.2451   33.7812 H   0  0  0  0  0  0  0  0  0  0  0  0
  -18.4030   17.3901   34.0511 H   0  0  0  0  0  0  0  0  0  0  0  0
  1  2  1  0
  2  3  1  0
  3  4  2  0
  4  5  1  0
  5  6  2  0
  6  7  1  0
  7  8  1  0
  8  9  1  0
  8 10  1  0
 10 11  1  0
 10 12  1  0
 12 13  1  0
 12 14  1  0
 14 15  1  0
  6 16  1  0
 16 17  2  0
 17  3  1  0
 14  7  1  0
  1 18  1  0
  1 19  1  0
  1 20  1  0
  4 21  1  0
  5 22  1  0
  7 23  1  6
  8 24  1  6
  9 25  1  0
 10 26  1  6
 11 27  1  0
 12 28  1  6
 13 29  1  0
 13 30  1  0
 13 31  1  0
 14 32  1  1
 15 33  1  0
 15 34  1  0
 15 35  1  0
 16 36  1  0
 17 37  1  0
M  CHG  1  14   1
M  END
>  <meeko>  (2) 
{"is_sidechain": [false], "free_energy": -5.826, "intermolecular_energy": -6.824, "internal_energy": -0.26}

$$$$
4jfs_ligand
     RDKit          3D

 37 38  0  0  0  0  0  0  0  0999 V2000
  -16.8210    6.0890   32.0530 C   0  0  0  0  0  0  0  0  0  0  0  0
  -16.0890    6.9620   31.2000 O   0  0  0  0  0  0  0  0  0  0  0  0
  -15.9750    8.2650   31.5900 C   0  0  0  0  0  0  0  0  0  0  0  0
  -17.0110    8.7210   32.4060 C   0  0  0  0  0  0  0  0  0  0  0  0
  -17.0240   10.0340   32.8830 C   0  0  0  0  0  0  0  0  0  0  0  0
  -15.9930   10.9250   32.5490 C   0  0  0  0  0  0  0  0  0  0  0  0
  -15.9570   12.3520   33.0560 C   0  0  1  0  0  0  0  0  0  0  0  0
  -17.3470   13.0590   32.9940 C   0  0  2  0  0  0  0  0  0  0  0  0
  -17.4850   13.9180   31.8620 O   0  0  0  0  0  0  0  0  0  0  0  0
  -17.3640   13.9120   34.2620 C   0  0  2  0  0  0  0  0  0  0  0  0
  -16.5380   15.0690   34.0510 O   0  0  0  0  0  0  0  0  0  0  0  0
  -16.7010   12.9900   35.2890 C   0  0  2  0  0  0  0  0  0  0  0  0
  -16.2870   13.6890   36.5750 C   0  0  0  0  0  0  0  0  0  0  0  0
  -15.4790   12.5310   34.5080 N   0  0  1  0  0  0  0  0  0  0  0  0
  -14.6550   11.4470   35.1110 C   0  0  0  0  0  0  0  0  0  0  0  0
  -14.9520   10.4560   31.7300 C   0  0  0  0  0  0  0  0  0  0  0  0
  -14.9440    9.1380   31.2540 C   0  0  0  0  0  0  0  0  0  0  0  0
  -16.6102    6.3404   33.1029 H   0  0  0  0  0  0  0  0  0  0  0  0
  -17.8975    6.2030   31.8577 H   0  0  0  0  0  0  0  0  0  0  0  0
  -16.5210    5.0489   31.8577 H   0  0  0  0  0  0  0  0  0  0  0  0
  -17.8288    8.0372   32.6774 H   0  0  0  0  0  0  0  0  0  0  0  0
  -17.8498   10.3722   33.5261 H   0  0  0  0  0  0  0  0  0  0  0  0
  -15.2267   12.8028   32.3679 H   0  0  0  0  0  0  0  0  0  0  0  0
  -18.1613   12.3238   32.9144 H   0  0  0  0  0  0  0  0  0  0  0  0
  -16.7540   14.5670   31.8710 H   0  0  0  0  0  0  0  0  0  0  0  0
  -18.3633   14.2604   34.5619 H   0  0  0  0  0  0  0  0  0  0  0  0
  -16.3690   15.4400   34.9460 H   0  0  0  0  0  0  0  0  0  0  0  0
  -17.3733   12.1948   35.6435 H   0  0  0  0  0  0  0  0  0  0  0  0
  -16.6340   13.1031   37.4389 H   0  0  0  0  0  0  0  0  0  0  0  0
  -15.1910   13.7770   36.6080 H   0  0  0  0  0  0  0  0  0  0  0  0
  -16.7366   14.6924   36.6080 H   0  0  0  0  0  0  0  0  0  0  0  0
  -14.8860   13.3770   34.4620 H   0  0  0  0  0  0  0  0  0  0  0  0
  -14.7062   11.5144   36.2077 H   0  0  0  0  0  0  0  0  0  0  0  0
  -15.0401   10.4694   34.7853 H   0  0  0  0  0  0  0  0  0  0  0  0
  -13.6100   11.5565   34.7853 H   0  0  0  0  0  0  0  0  0  0  0  0
  -14.1300   11.1345   31.4581 H   0  0  0  0  0  0  0  0  0  0  0  0
  -14.1201    8.7920   30.6126 H   0  0  0  0  0  0  0  0  0  0  0  0
  1  2  1  0
  2  3  1  0
  3  4  2  0
  4  5  1  0
  5  6  2  0
  6  7  1  0
  7  8  1  0
  8  9  1  0
  8 10  1  0
 10 11  1  0
 10 12  1  0
 12 13  1  0
 12 14  1  0
 14 15  1  0
  6 16  1  0
 16 17  2  0
 17  3  1  0
 14  7  1  0
  1 18  1  0
  1 19  1  0
  1 20  1  0
  4 21  1  0
  5 22  1  0
  7 23  1  6
  8 24  1  1
  9 25  1  0
 10 26  1  1
 11 27  1  0
 12 28  1  1
 13 29  1  0
 13 30  1  0
 13 31  1  0
 14 32  1  6
 15 33  1  0
 15 34  1  0
 15 35  1  0
 16 36  1  0
 17 37  1  0
M  CHG  1  14   1
M  END
>  <meeko>  (3) 
{"is_sidechain": [false], "free_energy": -5.685, "intermolecular_energy": -6.676, "internal_energy": -0.243}

$$$$
4jfs_ligand
     RDKit          3D

 37 38  0  0  0  0  0  0  0  0999 V2000
  -16.4270   13.9570   33.9290 C   0  0  0  0  0  0  0  0  0  0  0  0
  -17.4470   14.9420   34.0540 O   0  0  0  0  0  0  0  0  0  0  0  0
  -18.6920   14.5100   34.4130 C   0  0  0  0  0  0  0  0  0  0  0  0
  -18.9020   13.1400   34.2480 C   0  0  0  0  0  0  0  0  0  0  0  0
  -20.1280   12.5570   34.5760 C   0  0  0  0  0  0  0  0  0  0  0  0
  -21.1780   13.3400   35.0790 C   0  0  0  0  0  0  0  0  0  0  0  0
  -22.5190   12.7500   35.4640 C   0  0  1  0  0  0  0  0  0  0  0  0
  -23.0080   11.6450   34.4760 C   0  0  2  0  0  0  0  0  0  0  0  0
  -23.9710   12.1240   33.5370 O   0  0  0  0  0  0  0  0  0  0  0  0
  -23.6830   10.6260   35.3940 C   0  0  2  0  0  0  0  0  0  0  0  0
  -24.9690   11.1350   35.7820 O   0  0  0  0  0  0  0  0  0  0  0  0
  -22.7510   10.6090   36.6090 C   0  0  2  0  0  0  0  0  0  0  0  0
  -23.3380    9.9200   37.8320 C   0  0  0  0  0  0  0  0  0  0  0  0
  -22.5860   12.1010   36.8580 N   0  0  1  0  0  0  0  0  0  0  0  0
  -21.5730   12.5120   37.8690 C   0  0  0  0  0  0  0  0  0  0  0  0
  -20.9560   14.7170   35.2450 C   0  0  0  0  0  0  0  0  0  0  0  0
  -19.7250   15.2970   34.9130 C   0  0  0  0  0  0  0  0  0  0  0  0
  -16.0988   13.6400   34.9299 H   0  0  0  0  0  0  0  0  0  0  0  0
  -16.8209   13.0888   33.3803 H   0  0  0  0  0  0  0  0  0  0  0  0
  -15.5731   14.3810   33.3803 H   0  0  0  0  0  0  0  0  0  0  0  0
  -18.0904   12.5106   33.8541 H   0  0  0  0  0  0  0  0  0  0  0  0
  -20.2716   11.4751   34.4389 H   0  0  0  0  0  0  0  0  0  0  0  0
  -23.1581   13.6450   35.4416 H   0  0  0  0  0  0  0  0  0  0  0  0
  -22.1729   11.2530   33.8769 H   0  0  0  0  0  0  0  0  0  0  0  0
  -23.5270   12.2610   32.6770 H   0  0  0  0  0  0  0  0  0  0  0  0
  -23.8349    9.6357   34.9400 H   0  0  0  0  0  0  0  0  0  0  0  0
  -25.6280   10.5680   35.3230 H   0  0  0  0  0  0  0  0  0  0  0  0
  -21.8241   10.0453   36.4269 H   0  0  0  0  0  0  0  0  0  0  0  0
  -22.9388   10.3885   38.7437 H   0  0  0  0  0  0  0  0  0  0  0  0
  -24.4334   10.0191   37.8182 H   0  0  0  0  0  0  0  0  0  0  0  0
  -23.0661    8.8542   37.8182 H   0  0  0  0  0  0  0  0  0  0  0  0
  -23.5100   12.3930   37.2150 H   0  0  0  0  0  0  0  0  0  0  0  0
  -21.9760   12.3485   38.8794 H   0  0  0  0  0  0  0  0  0  0  0  0
  -20.6596   11.9133   37.7373 H   0  0  0  0  0  0  0  0  0  0  0  0
  -21.3350   13.5778   37.7373 H   0  0  0  0  0  0  0  0  0  0  0  0
  -21.7626   15.3506   35.6425 H   0  0  0  0  0  0  0  0  0  0  0  0
  -19.5743   16.3782   35.0480 H   0  0  0  0  0  0  0  0  0  0  0  0
  1  2  1  0
  2  3  1  0
  3  4  2  0
  4  5  1  0
  5  6  2  0
  6  7  1  0
  7  8  1  0
  8  9  1  0
  8 10  1  0
 10 11  1  0
 10 12  1  0
 12 13  1  0
 12 14  1  0
 14 15  1  0
  6 16  1  0
 16 17  2  0
 17  3  1  0
 14  7  1  0
  1 18  1  0
  1 19  1  0
  1 20  1  0
  4 21  1  0
  5 22  1  0
  7 23  1  1
  8 24  1  6
  9 25  1  0
 10 26  1  6
 11 27  1  0
 12 28  1  6
 13 29  1  0
 13 30  1  0
 13 31  1  0
 14 32  1  1
 15 33  1  0
 15 34  1  0
 15 35  1  0
 16 36  1  0
 17 37  1  0
M  CHG  1  14   1
M  END
>  <meeko>  (4) 
{"is_sidechain": [false], "free_energy": -5.655, "intermolecular_energy": -6.647, "internal_energy": -0.237}

$$$$
4jfs_ligand
     RDKit          3D

 37 38  0  0  0  0  0  0  0  0999 V2000
  -16.4270    6.2660   31.0370 C   0  0  0  0  0  0  0  0  0  0  0  0
  -16.3790    7.5680   30.4660 O   0  0  0  0  0  0  0  0  0  0  0  0
  -16.0660    8.6040   31.2990 C   0  0  0  0  0  0  0  0  0  0  0  0
  -16.6680    8.5410   32.5560 C   0  0  0  0  0  0  0  0  0  0  0  0
  -16.4370    9.5320   33.5130 C   0  0  0  0  0  0  0  0  0  0  0  0
  -15.5930   10.6160   33.2280 C   0  0  0  0  0  0  0  0  0  0  0  0
  -15.3000   11.7050   34.2390 C   0  0  1  0  0  0  0  0  0  0  0  0
  -14.0400   12.5520   33.8790 C   0  0  2  0  0  0  0  0  0  0  0  0
  -12.8760   12.1580   34.6070 O   0  0  0  0  0  0  0  0  0  0  0  0
  -14.4310   13.9660   34.3080 C   0  0  2  0  0  0  0  0  0  0  0  0
  -14.3350   14.0560   35.7390 O   0  0  0  0  0  0  0  0  0  0  0  0
  -15.9020   14.0420   33.8880 C   0  0  2  0  0  0  0  0  0  0  0  0
  -16.6550   15.2250   34.4790 C   0  0  0  0  0  0  0  0  0  0  0  0
  -16.4260   12.7320   34.4570 N   0  0  1  0  0  0  0  0  0  0  0  0
  -17.8130   12.3370   34.0850 C   0  0  0  0  0  0  0  0  0  0  0  0
  -14.9890   10.6690   31.9600 C   0  0  0  0  0  0  0  0  0  0  0  0
  -15.2250    9.6730   31.0040 C   0  0  0  0  0  0  0  0  0  0  0  0
  -16.4240    6.3464   32.1341 H   0  0  0  0  0  0  0  0  0  0  0  0
  -17.3446    5.7555   30.7092 H   0  0  0  0  0  0  0  0  0  0  0  0
  -15.5495    5.6893   30.7092 H   0  0  0  0  0  0  0  0  0  0  0  0
  -17.3338    7.6992   32.7968 H   0  0  0  0  0  0  0  0  0  0  0  0
  -16.9209    9.4619   34.4984 H   0  0  0  0  0  0  0  0  0  0  0  0
  -15.1581   11.1113   35.1541 H   0  0  0  0  0  0  0  0  0  0  0  0
  -13.7813   12.4412   32.8156 H   0  0  0  0  0  0  0  0  0  0  0  0
  -13.0890   11.3550   35.1220 H   0  0  0  0  0  0  0  0  0  0  0  0
  -13.8065   14.7620   33.8762 H   0  0  0  0  0  0  0  0  0  0  0  0
  -14.6030   14.9750   35.9650 H   0  0  0  0  0  0  0  0  0  0  0  0
  -16.0286   14.1814   32.8042 H   0  0  0  0  0  0  0  0  0  0  0  0
  -16.6202   15.1703   35.5771 H   0  0  0  0  0  0  0  0  0  0  0  0
  -16.1869   16.1622   34.1436 H   0  0  0  0  0  0  0  0  0  0  0  0
  -17.7022   15.1977   34.1436 H   0  0  0  0  0  0  0  0  0  0  0  0
  -16.4150   12.8860   35.4790 H   0  0  0  0  0  0  0  0  0  0  0  0
  -18.4036   12.1688   34.9976 H   0  0  0  0  0  0  0  0  0  0  0  0
  -18.2759   13.1390   33.4913 H   0  0  0  0  0  0  0  0  0  0  0  0
  -17.7839   11.4114   33.4913 H   0  0  0  0  0  0  0  0  0  0  0  0
  -14.3198   11.5067   31.7143 H   0  0  0  0  0  0  0  0  0  0  0  0
  -14.7441    9.7359   30.0167 H   0  0  0  0  0  0  0  0  0  0  0  0
  1  2  1  0
  2  3  1  0
  3  4  2  0
  4  5  1  0
  5  6  2  0
  6  7  1  0
  7  8  1  0
  8  9  1  0
  8 10  1  0
 10 11  1  0
 10 12  1  0
 12 13  1  0
 12 14  1  0
 14 15  1  0
  6 16  1  0
 16 17  2  0
 17  3  1  0
 14  7  1  0
  1 18  1  0
  1 19  1  0
  1 20  1  0
  4 21  1  0
  5 22  1  0
  7 23  1  1
  8 24  1  6
  9 25  1  0
 10 26  1  6
 11 27  1  0
 12 28  1  6
 13 29  1  0
 13 30  1  0
 13 31  1  0
 14 32  1  1
 15 33  1  0
 15 34  1  0
 15 35  1  0
 16 36  1  0
 17 37  1  0
M  CHG  1  14   1
M  END
>  <meeko>  (5) 
{"is_sidechain": [false], "free_energy": -5.602, "intermolecular_energy": -6.791, "internal_energy": -0.031}

$$$$
4jfs_ligand
     RDKit          3D

 37 38  0  0  0  0  0  0  0  0999 V2000
  -22.6420   11.9320   35.0270 C   0  0  0  0  0  0  0  0  0  0  0  0
  -21.5650   11.7810   34.1080 O   0  0  0  0  0  0  0  0  0  0  0  0
  -20.3080   12.0440   34.5720 C   0  0  0  0  0  0  0  0  0  0  0  0
  -19.3130   12.0260   33.5940 C   0  0  0  0  0  0  0  0  0  0  0  0
  -17.9790   12.2800   33.9220 C   0  0  0  0  0  0  0  0  0  0  0  0
  -17.6110   12.5570   35.2470 C   0  0  0  0  0  0  0  0  0  0  0  0
  -16.1810   12.8540   35.6480 C   0  0  1  0  0  0  0  0  0  0  0  0
  -15.1300   12.1230   34.7550 C   0  0  2  0  0  0  0  0  0  0  0  0
  -14.6040   10.9440   35.3650 O   0  0  0  0  0  0  0  0  0  0  0  0
  -14.0060   13.1500   34.6220 C   0  0  2  0  0  0  0  0  0  0  0  0
  -13.2530   13.1710   35.8460 O   0  0  0  0  0  0  0  0  0  0  0  0
  -14.7770   14.4650   34.4730 C   0  0  2  0  0  0  0  0  0  0  0  0
  -13.9190   15.7100   34.6430 C   0  0  0  0  0  0  0  0  0  0  0  0
  -15.7740   14.3380   35.6150 N   0  0  1  0  0  0  0  0  0  0  0  0
  -16.8540   15.3600   35.6900 C   0  0  0  0  0  0  0  0  0  0  0  0
  -18.6200   12.5760   36.2250 C   0  0  0  0  0  0  0  0  0  0  0  0
  -19.9570   12.3200   35.8900 C   0  0  0  0  0  0  0  0  0  0  0  0
  -22.2564   11.8779   36.0558 H   0  0  0  0  0  0  0  0  0  0  0  0
  -23.1261   12.9068   34.8676 H   0  0  0  0  0  0  0  0  0  0  0  0
  -23.3755   11.1279   34.8676 H   0  0  0  0  0  0  0  0  0  0  0  0
  -19.5828   11.8087   32.5500 H   0  0  0  0  0  0  0  0  0  0  0  0
  -17.2109   12.2626   33.1348 H   0  0  0  0  0  0  0  0  0  0  0  0
  -16.1733   12.4913   36.6865 H   0  0  0  0  0  0  0  0  0  0  0  0
  -15.5781   11.7955   33.8053 H   0  0  0  0  0  0  0  0  0  0  0  0
  -15.1450   10.7310   36.1510 H   0  0  0  0  0  0  0  0  0  0  0  0
  -13.3053   12.9528   33.7973 H   0  0  0  0  0  0  0  0  0  0  0  0
  -13.9060   13.0000   36.5600 H   0  0  0  0  0  0  0  0  0  0  0  0
  -15.2079   14.5945   33.4692 H   0  0  0  0  0  0  0  0  0  0  0  0
  -13.7780   15.9146   35.7146 H   0  0  0  0  0  0  0  0  0  0  0  0
  -12.9398   15.5481   34.1687 H   0  0  0  0  0  0  0  0  0  0  0  0
  -14.4189   16.5674   34.1687 H   0  0  0  0  0  0  0  0  0  0  0  0
  -15.1920   14.4460   36.4620 H   0  0  0  0  0  0  0  0  0  0  0  0
  -17.0820   15.5758   36.7442 H   0  0  0  0  0  0  0  0  0  0  0  0
  -16.5216   16.2820   35.1906 H   0  0  0  0  0  0  0  0  0  0  0  0
  -17.7563   14.9773   35.1906 H   0  0  0  0  0  0  0  0  0  0  0  0
  -18.3565   12.7953   37.2702 H   0  0  0  0  0  0  0  0  0  0  0  0
  -20.7310   12.3374   36.6714 H   0  0  0  0  0  0  0  0  0  0  0  0
  1  2  1  0
  2  3  1  0
  3  4  2  0
  4  5  1  0
  5  6  2  0
  6  7  1  0
  7  8  1  0
  8  9  1  0
  8 10  1  0
 10 11  1  0
 10 12  1  0
 12 13  1  0
 12 14  1  0
 14 15  1  0
  6 16  1  0
 16 17  2  0
 17  3  1  0
 14  7  1  0
  1 18  1  0
  1 19  1  0
  1 20  1  0
  4 21  1  0
  5 22  1  0
  7 23  1  1
  8 24  1  6
  9 25  1  0
 10 26  1  6
 11 27  1  0
 12 28  1  6
 13 29  1  0
 13 30  1  0
 13 31  1  0
 14 32  1  1
 15 33  1  0
 15 34  1  0
 15 35  1  0
 16 36  1  0
 17 37  1  0
M  CHG  1  14   1
M  END
>  <meeko>  (6) 
{"is_sidechain": [false], "free_energy": -5.443, "intermolecular_energy": -6.477, "internal_energy": -0.157}

$$$$
4jfs_ligand
     RDKit          3D

 37 38  0  0  0  0  0  0  0  0999 V2000
  -21.9550   16.5310   35.7270 C   0  0  0  0  0  0  0  0  0  0  0  0
  -21.6350   15.1750   35.4430 O   0  0  0  0  0  0  0  0  0  0  0  0
  -20.3560   14.9040   35.0480 C   0  0  0  0  0  0  0  0  0  0  0  0
  -19.9740   13.5700   35.1870 C   0  0  0  0  0  0  0  0  0  0  0  0
  -18.6940   13.1470   34.8200 C   0  0  0  0  0  0  0  0  0  0  0  0
  -17.7620   14.0600   34.3050 C   0  0  0  0  0  0  0  0  0  0  0  0
  -16.3690   13.6450   33.8790 C   0  0  1  0  0  0  0  0  0  0  0  0
  -15.5600   12.9540   35.0210 C   0  0  2  0  0  0  0  0  0  0  0  0
  -14.6370   13.8340   35.6620 O   0  0  0  0  0  0  0  0  0  0  0  0
  -14.7730   11.8680   34.2870 C   0  0  2  0  0  0  0  0  0  0  0  0
  -13.6710   12.4820   33.6000 O   0  0  0  0  0  0  0  0  0  0  0  0
  -15.7920   11.3560   33.2650 C   0  0  2  0  0  0  0  0  0  0  0  0
  -15.1900   10.4860   32.1710 C   0  0  0  0  0  0  0  0  0  0  0  0
  -16.2980   12.6710   32.6900 N   0  0  1  0  0  0  0  0  0  0  0  0
  -17.4690   12.6030   31.7710 C   0  0  0  0  0  0  0  0  0  0  0  0
  -18.1560   15.4010   34.1660 C   0  0  0  0  0  0  0  0  0  0  0  0
  -19.4410   15.8200   34.5360 C   0  0  0  0  0  0  0  0  0  0  0  0
  -21.9899   16.6791   36.8164 H   0  0  0  0  0  0  0  0  0  0  0  0
  -21.1872   17.1878   35.2921 H   0  0  0  0  0  0  0  0  0  0  0  0
  -22.9354   16.7752   35.2921 H   0  0  0  0  0  0  0  0  0  0  0  0
  -20.6908   12.8402   35.5914 H   0  0  0  0  0  0  0  0  0  0  0  0
  -18.4149   12.0893   34.9359 H   0  0  0  0  0  0  0  0  0  0  0  0
  -15.9392   14.6150   33.5884 H   0  0  0  0  0  0  0  0  0  0  0  0
  -16.2293   12.5908   35.8148 H   0  0  0  0  0  0  0  0  0  0  0  0
  -14.6850   14.7080   35.2260 H   0  0  0  0  0  0  0  0  0  0  0  0
  -14.3681   11.0804   34.9395 H   0  0  0  0  0  0  0  0  0  0  0  0
  -13.3040   13.1440   34.2270 H   0  0  0  0  0  0  0  0  0  0  0  0
  -16.5533   10.7010   33.7136 H   0  0  0  0  0  0  0  0  0  0  0  0
  -14.6208    9.6633   32.6284 H   0  0  0  0  0  0  0  0  0  0  0  0
  -15.9956   10.0719   31.5469 H   0  0  0  0  0  0  0  0  0  0  0  0
  -14.5185   11.0940   31.5469 H   0  0  0  0  0  0  0  0  0  0  0  0
  -15.4970   13.0220   32.1390 H   0  0  0  0  0  0  0  0  0  0  0  0
  -18.3957   12.5492   32.3612 H   0  0  0  0  0  0  0  0  0  0  0  0
  -17.4899   13.5014   31.1367 H   0  0  0  0  0  0  0  0  0  0  0  0
  -17.3858   11.7082   31.1367 H   0  0  0  0  0  0  0  0  0  0  0  0
  -17.4440   16.1346   33.7599 H   0  0  0  0  0  0  0  0  0  0  0  0
  -19.7276   16.8758   34.4216 H   0  0  0  0  0  0  0  0  0  0  0  0
  1  2  1  0
  2  3  1  0
  3  4  2  0
  4  5  1  0
  5  6  2  0
  6  7  1  0
  7  8  1  0
  8  9  1  0
  8 10  1  0
 10 11  1  0
 10 12  1  0
 12 13  1  0
 12 14  1  0
 14 15  1  0
  6 16  1  0
 16 17  2  0
 17  3  1  0
 14  7  1  0
  1 18  1  0
  1 19  1  0
  1 20  1  0
  4 21  1  0
  5 22  1  0
  7 23  1  6
  8 24  1  1
  9 25  1  0
 10 26  1  1
 11 27  1  0
 12 28  1  1
 13 29  1  0
 13 30  1  0
 13 31  1  0
 14 32  1  6
 15 33  1  0
 15 34  1  0
 15 35  1  0
 16 36  1  0
 17 37  1  0
M  CHG  1  14   1
M  END
>  <meeko>  (7) 
{"is_sidechain": [false], "free_energy": -5.407, "intermolecular_energy": -6.451, "internal_energy": -0.141}

$$$$
4jfs_ligand
     RDKit          3D

 37 38  0  0  0  0  0  0  0  0999 V2000
  -18.0900   17.3480   35.8980 C   0  0  0  0  0  0  0  0  0  0  0  0
  -19.1220   17.2310   34.9240 O   0  0  0  0  0  0  0  0  0  0  0  0
  -20.0190   16.2150   35.0840 C   0  0  0  0  0  0  0  0  0  0  0  0
  -21.2900   16.6200   35.4940 C   0  0  0  0  0  0  0  0  0  0  0  0
  -22.3110   15.6880   35.6960 C   0  0  0  0  0  0  0  0  0  0  0  0
  -22.0780   14.3200   35.4900 C   0  0  0  0  0  0  0  0  0  0  0  0
  -23.1570   13.2750   35.6800 C   0  0  1  0  0  0  0  0  0  0  0  0
  -23.0760   12.1130   34.6410 C   0  0  2  0  0  0  0  0  0  0  0  0
  -24.0060   12.2600   33.5670 O   0  0  0  0  0  0  0  0  0  0  0  0
  -23.4610   10.8810   35.4580 C   0  0  2  0  0  0  0  0  0  0  0  0
  -24.8850   10.8820   35.6510 O   0  0  0  0  0  0  0  0  0  0  0  0
  -22.7640   11.1420   36.7970 C   0  0  2  0  0  0  0  0  0  0  0  0
  -23.2290   10.2360   37.9260 C   0  0  0  0  0  0  0  0  0  0  0  0
  -23.1800   12.5830   37.0550 N   0  0  1  0  0  0  0  0  0  0  0  0
  -22.5330   13.2820   38.2000 C   0  0  0  0  0  0  0  0  0  0  0  0
  -20.7960   13.9210   35.0740 C   0  0  0  0  0  0  0  0  0  0  0  0
  -19.7750   14.8600   34.8750 C   0  0  0  0  0  0  0  0  0  0  0  0
  -18.5292   17.2982   36.9053 H   0  0  0  0  0  0  0  0  0  0  0  0
  -17.3706   16.5257   35.7706 H   0  0  0  0  0  0  0  0  0  0  0  0
  -17.5730   18.3105   35.7706 H   0  0  0  0  0  0  0  0  0  0  0  0
  -21.4909   17.6886   35.6606 H   0  0  0  0  0  0  0  0  0  0  0  0
  -23.3055   16.0295   36.0191 H   0  0  0  0  0  0  0  0  0  0  0  0
  -24.0642   13.8847   35.5565 H   0  0  0  0  0  0  0  0  0  0  0  0
  -22.0811   12.0704   34.1737 H   0  0  0  0  0  0  0  0  0  0  0  0
  -24.9120   12.2360   33.9330 H   0  0  0  0  0  0  0  0  0  0  0  0
  -23.1828    9.9232   34.9940 H   0  0  0  0  0  0  0  0  0  0  0  0
  -25.2450   11.4740   34.9540 H   0  0  0  0  0  0  0  0  0  0  0  0
  -21.6811   10.9529   36.7572 H   0  0  0  0  0  0  0  0  0  0  0  0
  -22.9895   10.7026   38.8929 H   0  0  0  0  0  0  0  0  0  0  0  0
  -24.3160   10.0851   37.8510 H   0  0  0  0  0  0  0  0  0  0  0  0
  -22.7179    9.2648   37.8510 H   0  0  0  0  0  0  0  0  0  0  0  0
  -24.1890   12.5110   37.2700 H   0  0  0  0  0  0  0  0  0  0  0  0
  -22.9153   12.8690   39.1451 H   0  0  0  0  0  0  0  0  0  0  0  0
  -21.4438   13.1366   38.1503 H   0  0  0  0  0  0  0  0  0  0  0  0
  -22.7621   14.3567   38.1503 H   0  0  0  0  0  0  0  0  0  0  0  0
  -20.5908   12.8541   34.9018 H   0  0  0  0  0  0  0  0  0  0  0  0
  -18.7778   14.5257   34.5527 H   0  0  0  0  0  0  0  0  0  0  0  0
  1  2  1  0
  2  3  1  0
  3  4  2  0
  4  5  1  0
  5  6  2  0
  6  7  1  0
  7  8  1  0
  8  9  1  0
  8 10  1  0
 10 11  1  0
 10 12  1  0
 12 13  1  0
 12 14  1  0
 14 15  1  0
  6 16  1  0
 16 17  2  0
 17  3  1  0
 14  7  1  0
  1 18  1  0
  1 19  1  0
  1 20  1  0
  4 21  1  0
  5 22  1  0
  7 23  1  6
  8 24  1  6
  9 25  1  0
 10 26  1  6
 11 27  1  0
 12 28  1  6
 13 29  1  0
 13 30  1  0
 13 31  1  0
 14 32  1  1
 15 33  1  0
 15 34  1  0
 15 35  1  0
 16 36  1  0
 17 37  1  0
M  CHG  1  14   1
M  END
>  <meeko>  (8) 
{"is_sidechain": [false], "free_energy": -5.301, "intermolecular_energy": -6.232, "internal_energy": -0.235}

$$$$
4jfs_ligand
     RDKit          3D

 37 38  0  0  0  0  0  0  0  0999 V2000
  -11.7770   16.6400   37.3900 C   0  0  0  0  0  0  0  0  0  0  0  0
  -12.7270   15.6100   37.6390 O   0  0  0  0  0  0  0  0  0  0  0  0
  -13.5790   15.2870   36.6220 C   0  0  0  0  0  0  0  0  0  0  0  0
  -14.0980   13.9940   36.6860 C   0  0  0  0  0  0  0  0  0  0  0  0
  -14.9850   13.5260   35.7130 C   0  0  0  0  0  0  0  0  0  0  0  0
  -15.3720   14.3510   34.6470 C   0  0  0  0  0  0  0  0  0  0  0  0
  -16.3440   13.8940   33.5780 C   0  0  1  0  0  0  0  0  0  0  0  0
  -16.0280   12.4660   33.0330 C   0  0  2  0  0  0  0  0  0  0  0  0
  -15.3320   12.4860   31.7870 O   0  0  0  0  0  0  0  0  0  0  0  0
  -17.4130   11.8590   32.8120 C   0  0  2  0  0  0  0  0  0  0  0  0
  -17.9740   12.4150   31.6120 O   0  0  0  0  0  0  0  0  0  0  0  0
  -18.1950   12.3700   34.0260 C   0  0  2  0  0  0  0  0  0  0  0  0
  -19.7010   12.1920   33.9140 C   0  0  0  0  0  0  0  0  0  0  0  0
  -17.8230   13.8450   34.0000 N   0  0  1  0  0  0  0  0  0  0  0  0
  -18.2460   14.6730   35.1640 C   0  0  0  0  0  0  0  0  0  0  0  0
  -14.8470   15.6530   34.5920 C   0  0  0  0  0  0  0  0  0  0  0  0
  -13.9570   16.1160   35.5690 C   0  0  0  0  0  0  0  0  0  0  0  0
  -11.4092   17.0387   38.3469 H   0  0  0  0  0  0  0  0  0  0  0  0
  -10.9335   16.2298   36.8153 H   0  0  0  0  0  0  0  0  0  0  0  0
  -12.2540   17.4476   36.8153 H   0  0  0  0  0  0  0  0  0  0  0  0
  -13.8047   13.3328   37.5148 H   0  0  0  0  0  0  0  0  0  0  0  0
  -15.3827   12.5028   35.7837 H   0  0  0  0  0  0  0  0  0  0  0  0
  -16.2022   14.6742   32.8156 H   0  0  0  0  0  0  0  0  0  0  0  0
  -15.3810   11.9121   33.7292 H   0  0  0  0  0  0  0  0  0  0  0  0
  -14.5730   11.8730   31.8440 H   0  0  0  0  0  0  0  0  0  0  0  0
  -17.4182   10.7635   32.7122 H   0  0  0  0  0  0  0  0  0  0  0  0
  -17.9880   13.3880   31.7520 H   0  0  0  0  0  0  0  0  0  0  0  0
  -17.9487   11.8270   34.9504 H   0  0  0  0  0  0  0  0  0  0  0  0
  -20.1400   12.1401   34.9213 H   0  0  0  0  0  0  0  0  0  0  0  0
  -20.1316   13.0455   33.3699 H   0  0  0  0  0  0  0  0  0  0  0  0
  -19.9208   11.2616   33.3699 H   0  0  0  0  0  0  0  0  0  0  0  0
  -18.3210   14.2080   33.1690 H   0  0  0  0  0  0  0  0  0  0  0  0
  -17.9815   14.1552   36.0978 H   0  0  0  0  0  0  0  0  0  0  0  0
  -17.7346   15.6462   35.1269 H   0  0  0  0  0  0  0  0  0  0  0  0
  -19.3343   14.8290   35.1269 H   0  0  0  0  0  0  0  0  0  0  0  0
  -15.1400   16.3199   33.7677 H   0  0  0  0  0  0  0  0  0  0  0  0
  -13.5552   17.1379   35.5044 H   0  0  0  0  0  0  0  0  0  0  0  0
  1  2  1  0
  2  3  1  0
  3  4  2  0
  4  5  1  0
  5  6  2  0
  6  7  1  0
  7  8  1  0
  8  9  1  0
  8 10  1  0
 10 11  1  0
 10 12  1  0
 12 13  1  0
 12 14  1  0
 14 15  1  0
  6 16  1  0
 16 17  2  0
 17  3  1  0
 14  7  1  0
  1 18  1  0
  1 19  1  0
  1 20  1  0
  4 21  1  0
  5 22  1  0
  7 23  1  6
  8 24  1  1
  9 25  1  0
 10 26  1  6
 11 27  1  0
 12 28  1  1
 13 29  1  0
 13 30  1  0
 13 31  1  0
 14 32  1  6
 15 33  1  0
 15 34  1  0
 15 35  1  0
 16 36  1  0
 17 37  1  0
M  CHG  1  14   1
M  END
>  <meeko>  (9) 
{"is_sidechain": [false], "free_energy": -5.274, "intermolecular_energy": -6.218, "internal_energy": -0.218}

$$$$
