2y5h_ligand
     RDKit          3D

 60 64  0  0  0  0  0  0  0  0999 V2000
   -7.6250    7.3180   18.6360 C   0  0  0  0  0  0  0  0  0  0  0  0
   -6.1210    7.5660   18.6130 N   0  0  0  0  0  0  0  0  0  0  0  0
   -5.3880    6.2490   18.3690 C   0  0  0  0  0  0  0  0  0  0  0  0
   -5.8160    8.4970   17.4270 C   0  0  0  0  0  0  0  0  0  0  0  0
   -5.6320    8.2650   19.8950 C   0  0  0  0  0  0  0  0  0  0  0  0
   -4.6580    9.4200   19.6450 C   0  0  0  0  0  0  0  0  0  0  0  0
   -4.3370   10.1360   20.9630 C   0  0  0  0  0  0  0  0  0  0  0  0
   -3.2780   11.1240   20.8110 N   0  0  0  0  0  0  0  0  0  0  0  0
   -3.5190   12.4500   20.5880 C   0  0  0  0  0  0  0  0  0  0  0  0
   -4.6080   12.9790   20.4470 O   0  0  0  0  0  0  0  0  0  0  0  0
   -2.2040   13.1680   20.4880 C   0  0  2  0  0  0  0  0  0  0  0  0
   -1.1900   12.1560   21.0040 C   0  0  2  0  0  0  0  0  0  0  0  0
   -1.9550   10.8640   21.0250 C   0  0  0  0  0  0  0  0  0  0  0  0
   -1.4480    9.7810   21.2650 O   0  0  0  0  0  0  0  0  0  0  0  0
   -0.7490   12.6250   22.3860 C   0  0  2  0  0  0  0  0  0  0  0  0
   -1.5270   12.0660   23.5360 C   0  0  0  0  0  0  0  0  0  0  0  0
   -2.6970   12.4890   24.1170 C   0  0  0  0  0  0  0  0  0  0  0  0
   -2.9900   11.6350   25.1350 O   0  0  0  0  0  0  0  0  0  0  0  0
   -1.9690   10.7130   25.1410 C   0  0  0  0  0  0  0  0  0  0  0  0
   -1.8740    9.6510   26.1010 C   0  0  0  0  0  0  0  0  0  0  0  0
   -2.6710    9.4570   27.2170 C   0  0  0  0  0  0  0  0  0  0  0  0
   -2.2860    8.3020   27.9660 C   0  0  0  0  0  0  0  0  0  0  0  0
   -1.2120    7.6780   27.3900 C   0  0  0  0  0  0  0  0  0  0  0  0
   -0.4140    6.2700   27.9600 Cl  0  0  0  0  0  0  0  0  0  0  0  0
   -0.6680    8.4350   25.9790 S   0  0  0  0  0  0  0  0  0  0  0  0
   -1.0790   10.9350   24.1820 N   0  0  0  0  0  0  0  0  0  0  0  0
   -0.9700   14.1360   22.3280 N   0  0  1  0  0  0  0  0  0  0  0  0
    0.1980   14.9920   21.8950 C   0  0  0  0  0  0  0  0  0  0  0  0
   -0.2220   15.5590   20.5520 C   0  0  0  0  0  0  0  0  0  0  0  0
   -1.7310   15.6720   20.6650 C   0  0  0  0  0  0  0  0  0  0  0  0
   -2.1460   14.3950   21.3840 C   0  0  1  0  0  0  0  0  0  0  0  0
   -7.9713    7.2609   19.6785 H   0  0  0  0  0  0  0  0  0  0  0  0
   -8.1406    8.1433   18.1230 H   0  0  0  0  0  0  0  0  0  0  0  0
   -7.8483    6.3709   18.1230 H   0  0  0  0  0  0  0  0  0  0  0  0
   -5.1314    5.7879   19.3342 H   0  0  0  0  0  0  0  0  0  0  0  0
   -6.0371    5.5684   17.7985 H   0  0  0  0  0  0  0  0  0  0  0  0
   -4.4675    6.4419   17.7985 H   0  0  0  0  0  0  0  0  0  0  0  0
   -5.4944    9.4787   17.8048 H   0  0  0  0  0  0  0  0  0  0  0  0
   -5.0143    8.0594   16.8141 H   0  0  0  0  0  0  0  0  0  0  0  0
   -6.7213    8.6186   16.8141 H   0  0  0  0  0  0  0  0  0  0  0  0
   -6.5087    8.6617   20.4280 H   0  0  0  0  0  0  0  0  0  0  0  0
   -5.0853    7.5100   20.4790 H   0  0  0  0  0  0  0  0  0  0  0  0
   -3.7282    9.0239   19.2107 H   0  0  0  0  0  0  0  0  0  0  0  0
   -5.1210   10.1364   18.9505 H   0  0  0  0  0  0  0  0  0  0  0  0
   -5.2453   10.6431   21.3206 H   0  0  0  0  0  0  0  0  0  0  0  0
   -3.9905    9.3789   21.6818 H   0  0  0  0  0  0  0  0  0  0  0  0
   -2.0265   13.5152   19.4594 H   0  0  0  0  0  0  0  0  0  0  0  0
   -0.2755   12.0406   20.4038 H   0  0  0  0  0  0  0  0  0  0  0  0
    0.2821   12.2924   22.5764 H   0  0  0  0  0  0  0  0  0  0  0  0
   -3.2918   13.3631   23.8134 H   0  0  0  0  0  0  0  0  0  0  0  0
   -3.5058   10.1170   27.4954 H   0  0  0  0  0  0  0  0  0  0  0  0
   -2.7864    7.9597   28.8838 H   0  0  0  0  0  0  0  0  0  0  0  0
   -1.2600   14.4410   23.2720 H   0  0  0  0  0  0  0  0  0  0  0  0
    0.3769   15.8004   22.6193 H   0  0  0  0  0  0  0  0  0  0  0  0
    1.1350   14.4192   21.8320 H   0  0  0  0  0  0  0  0  0  0  0  0
    0.2337   16.5458   20.3831 H   0  0  0  0  0  0  0  0  0  0  0  0
    0.0963   14.9318   19.7062 H   0  0  0  0  0  0  0  0  0  0  0  0
   -2.0134   16.5593   21.2506 H   0  0  0  0  0  0  0  0  0  0  0  0
   -2.2206   15.7838   19.6863 H   0  0  0  0  0  0  0  0  0  0  0  0
   -3.1438   14.5322   21.8262 H   0  0  0  0  0  0  0  0  0  0  0  0
  1  2  1  0
  2  3  1  0
  2  4  1  0
  2  5  1  0
  5  6  1  0
  6  7  1  0
  7  8  1  0
  8  9  1  0
  9 10  2  0
  9 11  1  0
 11 12  1  0
 12 13  1  0
 13 14  2  0
 12 15  1  0
 15 16  1  0
 16 17  2  0
 17 18  1  0
 18 19  1  0
 19 20  1  0
 20 21  2  0
 21 22  1  0
 22 23  2  0
 23 24  1  0
 23 25  1  0
 19 26  2  0
 15 27  1  0
 27 28  1  0
 28 29  1  0
 29 30  1  0
 30 31  1  0
 13  8  1  0
 26 16  1  0
 31 27  1  0
 31 11  1  0
 25 20  1  0
  1 32  1  0
  1 33  1  0
  1 34  1  0
  3 35  1  0
  3 36  1  0
  3 37  1  0
  4 38  1  0
  4 39  1  0
  4 40  1  0
  5 41  1  0
  5 42  1  0
  6 43  1  0
  6 44  1  0
  7 45  1  0
  7 46  1  0
 11 47  1  6
 12 48  1  6
 15 49  1  1
 17 50  1  0
 21 51  1  0
 22 52  1  0
 27 53  1  1
 28 54  1  0
 28 55  1  0
 29 56  1  0
 29 57  1  0
 30 58  1  0
 30 59  1  0
 31 60  1  1
M  CHG  2   2   1  27   1
M  END
>  <meeko>  (1) 
{"is_sidechain": [false], "free_energy": -8.511, "intermolecular_energy": -11.496, "internal_energy": -0.636}

$$$$
2y5h_ligand
     RDKit          3D

 60 64  0  0  0  0  0  0  0  0999 V2000
   -5.8620    8.0920   17.0530 C   0  0  0  0  0  0  0  0  0  0  0  0
   -6.1210    7.3910   18.3820 N   0  0  0  0  0  0  0  0  0  0  0  0
   -7.6170    7.1310   18.5410 C   0  0  0  0  0  0  0  0  0  0  0  0
   -5.4120    6.0270   18.3390 C   0  0  0  0  0  0  0  0  0  0  0  0
   -5.5470    8.1800   19.5720 C   0  0  0  0  0  0  0  0  0  0  0  0
   -4.6880    9.3820   19.1700 C   0  0  0  0  0  0  0  0  0  0  0  0
   -3.9480    9.9370   20.3940 C   0  0  0  0  0  0  0  0  0  0  0  0
   -4.1900   11.3600   20.5870 N   0  0  0  0  0  0  0  0  0  0  0  0
   -5.2220   11.8480   21.3380 C   0  0  0  0  0  0  0  0  0  0  0  0
   -6.0850   11.1960   21.9010 O   0  0  0  0  0  0  0  0  0  0  0  0
   -5.1620   13.3480   21.3200 C   0  0  2  0  0  0  0  0  0  0  0  0
   -3.7880   13.6570   20.7430 C   0  0  2  0  0  0  0  0  0  0  0  0
   -3.3350   12.3430   20.1750 C   0  0  0  0  0  0  0  0  0  0  0  0
   -2.3240   12.2050   19.5090 O   0  0  0  0  0  0  0  0  0  0  0  0
   -2.9180   14.1550   21.8930 C   0  0  2  0  0  0  0  0  0  0  0  0
   -2.1170   13.1050   22.5970 C   0  0  0  0  0  0  0  0  0  0  0  0
   -0.8550   12.6240   22.3490 C   0  0  0  0  0  0  0  0  0  0  0  0
   -0.5830   11.6690   23.2800 O   0  0  0  0  0  0  0  0  0  0  0  0
   -1.7080   11.5990   24.0680 C   0  0  0  0  0  0  0  0  0  0  0  0
   -1.8500   10.6730   25.1550 C   0  0  0  0  0  0  0  0  0  0  0  0
   -2.8520   10.6490   26.1100 C   0  0  0  0  0  0  0  0  0  0  0  0
   -2.6740    9.5950   27.0590 C   0  0  0  0  0  0  0  0  0  0  0  0
   -1.5430    8.8720   26.7850 C   0  0  0  0  0  0  0  0  0  0  0  0
   -0.9390    7.5330   27.6720 Cl  0  0  0  0  0  0  0  0  0  0  0  0
   -0.7050    9.4210   25.4230 S   0  0  0  0  0  0  0  0  0  0  0  0
   -2.6460   12.4610   23.6940 N   0  0  0  0  0  0  0  0  0  0  0  0
   -3.9360   14.7400   22.8710 N   0  0  1  0  0  0  0  0  0  0  0  0
   -4.2500   16.2130   22.7480 C   0  0  0  0  0  0  0  0  0  0  0  0
   -5.6900   16.2570   22.2730 C   0  0  0  0  0  0  0  0  0  0  0  0
   -6.3090   15.0120   22.8830 C   0  0  0  0  0  0  0  0  0  0  0  0
   -5.2340   13.9450   22.7170 C   0  0  1  0  0  0  0  0  0  0  0  0
   -5.4864    9.1085   17.2417 H   0  0  0  0  0  0  0  0  0  0  0  0
   -5.1139    7.5253   16.4792 H   0  0  0  0  0  0  0  0  0  0  0  0
   -6.7988    8.1479   16.4792 H   0  0  0  0  0  0  0  0  0  0  0  0
   -7.8699    7.0871   19.6106 H   0  0  0  0  0  0  0  0  0  0  0  0
   -8.1833    7.9442   18.0635 H   0  0  0  0  0  0  0  0  0  0  0  0
   -7.8757    6.1744   18.0635 H   0  0  0  0  0  0  0  0  0  0  0  0
   -5.2296    5.6761   19.3654 H   0  0  0  0  0  0  0  0  0  0  0  0
   -6.0466    5.3004   17.8104 H   0  0  0  0  0  0  0  0  0  0  0  0
   -4.4527    6.1289   17.8104 H   0  0  0  0  0  0  0  0  0  0  0  0
   -6.3867    8.5443   20.1821 H   0  0  0  0  0  0  0  0  0  0  0  0
   -4.8896    7.4905   20.1219 H   0  0  0  0  0  0  0  0  0  0  0  0
   -3.9541    9.0674   18.4134 H   0  0  0  0  0  0  0  0  0  0  0  0
   -5.3392   10.1669   18.7577 H   0  0  0  0  0  0  0  0  0  0  0  0
   -4.2885    9.3956   21.2889 H   0  0  0  0  0  0  0  0  0  0  0  0
   -2.8696    9.7983   20.2271 H   0  0  0  0  0  0  0  0  0  0  0  0
   -6.0051   13.7653   20.7499 H   0  0  0  0  0  0  0  0  0  0  0  0
   -3.7562   14.4330   19.9640 H   0  0  0  0  0  0  0  0  0  0  0  0
   -2.1599   14.8526   21.5074 H   0  0  0  0  0  0  0  0  0  0  0  0
   -0.1835   12.9520   21.5418 H   0  0  0  0  0  0  0  0  0  0  0  0
   -3.6904   11.3606   26.1356 H   0  0  0  0  0  0  0  0  0  0  0  0
   -3.3551    9.3913   27.8984 H   0  0  0  0  0  0  0  0  0  0  0  0
   -3.5800   14.5650   23.8260 H   0  0  0  0  0  0  0  0  0  0  0  0
   -4.1463   16.7151   23.7212 H   0  0  0  0  0  0  0  0  0  0  0  0
   -3.5665   16.7298   22.0583 H   0  0  0  0  0  0  0  0  0  0  0  0
   -6.1951   17.1642   22.6360 H   0  0  0  0  0  0  0  0  0  0  0  0
   -5.7764   16.2824   21.1767 H   0  0  0  0  0  0  0  0  0  0  0  0
   -6.5403   15.1715   23.9465 H   0  0  0  0  0  0  0  0  0  0  0  0
   -7.2588   14.7335   22.4032 H   0  0  0  0  0  0  0  0  0  0  0  0
   -5.4232   13.1221   23.4220 H   0  0  0  0  0  0  0  0  0  0  0  0
  1  2  1  0
  2  3  1  0
  2  4  1  0
  2  5  1  0
  5  6  1  0
  6  7  1  0
  7  8  1  0
  8  9  1  0
  9 10  2  0
  9 11  1  0
 11 12  1  0
 12 13  1  0
 13 14  2  0
 12 15  1  0
 15 16  1  0
 16 17  2  0
 17 18  1  0
 18 19  1  0
 19 20  1  0
 20 21  2  0
 21 22  1  0
 22 23  2  0
 23 24  1  0
 23 25  1  0
 19 26  2  0
 15 27  1  0
 27 28  1  0
 28 29  1  0
 29 30  1  0
 30 31  1  0
 13  8  1  0
 26 16  1  0
 31 27  1  0
 31 11  1  0
 25 20  1  0
  1 32  1  0
  1 33  1  0
  1 34  1  0
  3 35  1  0
  3 36  1  0
  3 37  1  0
  4 38  1  0
  4 39  1  0
  4 40  1  0
  5 41  1  0
  5 42  1  0
  6 43  1  0
  6 44  1  0
  7 45  1  0
  7 46  1  0
 11 47  1  6
 12 48  1  6
 15 49  1  6
 17 50  1  0
 21 51  1  0
 22 52  1  0
 27 53  1  1
 28 54  1  0
 28 55  1  0
 29 56  1  0
 29 57  1  0
 30 58  1  0
 30 59  1  0
 31 60  1  1
M  CHG  2   2   1  27   1
M  END
>  <meeko>  (2) 
{"is_sidechain": [false], "free_energy": -7.928, "intermolecular_energy": -10.733, "internal_energy": -0.612}

$$$$
2y5h_ligand
     RDKit          3D

 60 64  0  0  0  0  0  0  0  0999 V2000
   -7.6950   17.1390   25.6100 C   0  0  0  0  0  0  0  0  0  0  0  0
   -6.8980   15.9450   25.0950 N   0  0  0  0  0  0  0  0  0  0  0  0
   -5.6500   15.7520   25.9550 C   0  0  0  0  0  0  0  0  0  0  0  0
   -7.7750   14.6910   25.2550 C   0  0  0  0  0  0  0  0  0  0  0  0
   -6.5490   16.0850   23.6030 C   0  0  0  0  0  0  0  0  0  0  0  0
   -5.1080   15.6990   23.2570 C   0  0  0  0  0  0  0  0  0  0  0  0
   -5.0540   14.2510   22.7530 C   0  0  0  0  0  0  0  0  0  0  0  0
   -3.9500   13.5030   23.3370 N   0  0  0  0  0  0  0  0  0  0  0  0
   -4.1090   12.6140   24.3620 C   0  0  0  0  0  0  0  0  0  0  0  0
   -5.1470   12.3520   24.9460 O   0  0  0  0  0  0  0  0  0  0  0  0
   -2.7690   12.0300   24.7050 C   0  0  2  0  0  0  0  0  0  0  0  0
   -1.8770   12.4440   23.5430 C   0  0  2  0  0  0  0  0  0  0  0  0
   -2.6810   13.4930   22.8310 C   0  0  0  0  0  0  0  0  0  0  0  0
   -2.2530   14.1650   21.9080 O   0  0  0  0  0  0  0  0  0  0  0  0
   -1.6240   11.1970   22.7020 C   0  0  2  0  0  0  0  0  0  0  0  0
   -2.5790   10.9770   21.5710 C   0  0  0  0  0  0  0  0  0  0  0  0
   -2.7150   11.6310   20.3720 C   0  0  0  0  0  0  0  0  0  0  0  0
   -3.7380   11.0460   19.6910 O   0  0  0  0  0  0  0  0  0  0  0  0
   -4.1980   10.0460   20.5170 C   0  0  0  0  0  0  0  0  0  0  0  0
   -5.3150    9.2060   20.1870 C   0  0  0  0  0  0  0  0  0  0  0  0
   -6.6020    9.2890   20.6900 C   0  0  0  0  0  0  0  0  0  0  0  0
   -7.4610    8.2810   20.1540 C   0  0  0  0  0  0  0  0  0  0  0  0
   -6.7860    7.4750   19.2760 C   0  0  0  0  0  0  0  0  0  0  0  0
   -7.4200    6.1320   18.4160 Cl  0  0  0  0  0  0  0  0  0  0  0  0
   -5.1630    7.9050   19.0770 S   0  0  0  0  0  0  0  0  0  0  0  0
   -3.5130    9.9670   21.6510 N   0  0  0  0  0  0  0  0  0  0  0  0
   -1.7800   10.0600   23.7110 N   0  0  1  0  0  0  0  0  0  0  0  0
   -0.5330    9.5810   24.4170 C   0  0  0  0  0  0  0  0  0  0  0  0
   -0.7330    9.9900   25.8640 C   0  0  0  0  0  0  0  0  0  0  0  0
   -2.2380    9.9250   26.0510 C   0  0  0  0  0  0  0  0  0  0  0  0
   -2.7980   10.5110   24.7610 C   0  0  1  0  0  0  0  0  0  0  0  0
   -7.6922   17.1348   26.7100 H   0  0  0  0  0  0  0  0  0  0  0  0
   -7.2368   18.0703   25.2457 H   0  0  0  0  0  0  0  0  0  0  0  0
   -8.7308   17.0731   25.2457 H   0  0  0  0  0  0  0  0  0  0  0  0
   -5.9274   15.7949   27.0186 H   0  0  0  0  0  0  0  0  0  0  0  0
   -5.1993   14.7735   25.7328 H   0  0  0  0  0  0  0  0  0  0  0  0
   -4.9248   16.5487   25.7328 H   0  0  0  0  0  0  0  0  0  0  0  0
   -7.9222   14.4805   26.3246 H   0  0  0  0  0  0  0  0  0  0  0  0
   -8.7509   14.8627   24.7774 H   0  0  0  0  0  0  0  0  0  0  0  0
   -7.2789   13.8332   24.7774 H   0  0  0  0  0  0  0  0  0  0  0  0
   -7.2272   15.4376   23.0278 H   0  0  0  0  0  0  0  0  0  0  0  0
   -6.6605   17.1498   23.3506 H   0  0  0  0  0  0  0  0  0  0  0  0
   -4.7301   16.3711   22.4725 H   0  0  0  0  0  0  0  0  0  0  0  0
   -4.4858   15.7883   24.1597 H   0  0  0  0  0  0  0  0  0  0  0  0
   -5.9979   13.7502   23.0143 H   0  0  0  0  0  0  0  0  0  0  0  0
   -4.9021   14.2794   21.6639 H   0  0  0  0  0  0  0  0  0  0  0  0
   -2.4324   12.3796   25.6922 H   0  0  0  0  0  0  0  0  0  0  0  0
   -0.8902   12.8475   23.8139 H   0  0  0  0  0  0  0  0  0  0  0  0
   -0.6439   11.2765   22.2089 H   0  0  0  0  0  0  0  0  0  0  0  0
   -2.1054   12.4777   20.0233 H   0  0  0  0  0  0  0  0  0  0  0  0
   -6.9266   10.0454   21.4197 H   0  0  0  0  0  0  0  0  0  0  0  0
   -8.5242    8.1672   20.4123 H   0  0  0  0  0  0  0  0  0  0  0  0
   -2.1930    9.2570   23.2070 H   0  0  0  0  0  0  0  0  0  0  0  0
   -0.4337    8.4888   24.3321 H   0  0  0  0  0  0  0  0  0  0  0  0
    0.3828   10.0102   23.9844 H   0  0  0  0  0  0  0  0  0  0  0  0
   -0.2227    9.2913   26.5433 H   0  0  0  0  0  0  0  0  0  0  0  0
   -0.3180   10.9839   26.0876 H   0  0  0  0  0  0  0  0  0  0  0  0
   -2.5705    8.8849   26.1841 H   0  0  0  0  0  0  0  0  0  0  0  0
   -2.5765   10.4702   26.9444 H   0  0  0  0  0  0  0  0  0  0  0  0
   -3.8438   10.1930   24.6379 H   0  0  0  0  0  0  0  0  0  0  0  0
  1  2  1  0
  2  3  1  0
  2  4  1  0
  2  5  1  0
  5  6  1  0
  6  7  1  0
  7  8  1  0
  8  9  1  0
  9 10  2  0
  9 11  1  0
 11 12  1  0
 12 13  1  0
 13 14  2  0
 12 15  1  0
 15 16  1  0
 16 17  2  0
 17 18  1  0
 18 19  1  0
 19 20  1  0
 20 21  2  0
 21 22  1  0
 22 23  2  0
 23 24  1  0
 23 25  1  0
 19 26  2  0
 15 27  1  0
 27 28  1  0
 28 29  1  0
 29 30  1  0
 30 31  1  0
 13  8  1  0
 26 16  1  0
 31 27  1  0
 31 11  1  0
 25 20  1  0
  1 32  1  0
  1 33  1  0
  1 34  1  0
  3 35  1  0
  3 36  1  0
  3 37  1  0
  4 38  1  0
  4 39  1  0
  4 40  1  0
  5 41  1  0
  5 42  1  0
  6 43  1  0
  6 44  1  0
  7 45  1  0
  7 46  1  0
 11 47  1  1
 12 48  1  1
 15 49  1  6
 17 50  1  0
 21 51  1  0
 22 52  1  0
 27 53  1  6
 28 54  1  0
 28 55  1  0
 29 56  1  0
 29 57  1  0
 30 58  1  0
 30 59  1  0
 31 60  1  6
M  CHG  2   2   1  27   1
M  END
>  <meeko>  (3) 
{"is_sidechain": [false], "free_energy": -7.661, "intermolecular_energy": -10.469, "internal_energy": -0.515}

$$$$
2y5h_ligand
     RDKit          3D

 60 64  0  0  0  0  0  0  0  0999 V2000
   -9.5150   11.3590   21.8040 C   0  0  0  0  0  0  0  0  0  0  0  0
   -8.5860   12.5330   21.5140 N   0  0  0  0  0  0  0  0  0  0  0  0
   -8.1530   12.4940   20.0500 C   0  0  0  0  0  0  0  0  0  0  0  0
   -9.3870   13.8290   21.7300 C   0  0  0  0  0  0  0  0  0  0  0  0
   -7.3790   12.5640   22.4680 C   0  0  0  0  0  0  0  0  0  0  0  0
   -6.1460   13.2670   21.8950 C   0  0  0  0  0  0  0  0  0  0  0  0
   -5.4370   14.0720   22.9920 C   0  0  0  0  0  0  0  0  0  0  0  0
   -4.2390   13.4050   23.4810 N   0  0  0  0  0  0  0  0  0  0  0  0
   -4.2610   12.4520   24.4590 C   0  0  0  0  0  0  0  0  0  0  0  0
   -5.2380   12.0620   25.0760 O   0  0  0  0  0  0  0  0  0  0  0  0
   -2.8560   11.9820   24.7050 C   0  0  2  0  0  0  0  0  0  0  0  0
   -2.0680   12.5400   23.5270 C   0  0  2  0  0  0  0  0  0  0  0  0
   -3.0030   13.5430   22.9150 C   0  0  0  0  0  0  0  0  0  0  0  0
   -2.6890   14.3000   22.0130 O   0  0  0  0  0  0  0  0  0  0  0  0
   -1.7450   11.3690   22.6060 C   0  0  2  0  0  0  0  0  0  0  0  0
   -2.7330   11.1160   21.5110 C   0  0  0  0  0  0  0  0  0  0  0  0
   -2.9800   11.8060   20.3500 C   0  0  0  0  0  0  0  0  0  0  0  0
   -3.9840   11.1670   19.6910 O   0  0  0  0  0  0  0  0  0  0  0  0
   -4.3220   10.1000   20.4900 C   0  0  0  0  0  0  0  0  0  0  0  0
   -5.3820    9.1850   20.1740 C   0  0  0  0  0  0  0  0  0  0  0  0
   -6.6610    9.1720   20.7020 C   0  0  0  0  0  0  0  0  0  0  0  0
   -7.4570    8.1090   20.1730 C   0  0  0  0  0  0  0  0  0  0  0  0
   -6.7430    7.3600   19.2750 C   0  0  0  0  0  0  0  0  0  0  0  0
   -7.2980    5.9820   18.4160 Cl  0  0  0  0  0  0  0  0  0  0  0  0
   -5.1590    7.9060   19.0490 S   0  0  0  0  0  0  0  0  0  0  0  0
   -3.5780   10.0310   21.5870 N   0  0  0  0  0  0  0  0  0  0  0  0
   -1.7410   10.1710   23.5550 N   0  0  1  0  0  0  0  0  0  0  0  0
   -0.4190    9.7780   24.1740 C   0  0  0  0  0  0  0  0  0  0  0  0
   -0.5810   10.0890   25.6490 C   0  0  0  0  0  0  0  0  0  0  0  0
   -2.0620    9.8700   25.9030 C   0  0  0  0  0  0  0  0  0  0  0  0
   -2.7400   10.4670   24.6760 C   0  0  1  0  0  0  0  0  0  0  0  0
   -9.6160   11.2314   22.8919 H   0  0  0  0  0  0  0  0  0  0  0  0
  -10.5039   11.5567   21.3646 H   0  0  0  0  0  0  0  0  0  0  0  0
   -9.0953   10.4421   21.3646 H   0  0  0  0  0  0  0  0  0  0  0  0
   -7.0589   12.3955   19.9937 H   0  0  0  0  0  0  0  0  0  0  0  0
   -8.6247   11.6347   19.5509 H   0  0  0  0  0  0  0  0  0  0  0  0
   -8.4636   13.4238   19.5509 H   0  0  0  0  0  0  0  0  0  0  0  0
   -9.5013   14.0140   22.8083 H   0  0  0  0  0  0  0  0  0  0  0  0
   -8.8521   14.6719   21.2681 H   0  0  0  0  0  0  0  0  0  0  0  0
  -10.3801   13.7275   21.2681 H   0  0  0  0  0  0  0  0  0  0  0  0
   -7.6790   13.0880   23.3874 H   0  0  0  0  0  0  0  0  0  0  0  0
   -7.0915   11.5178   22.6491 H   0  0  0  0  0  0  0  0  0  0  0  0
   -5.4531   12.5139   21.4917 H   0  0  0  0  0  0  0  0  0  0  0  0
   -6.4631   13.9524   21.0952 H   0  0  0  0  0  0  0  0  0  0  0  0
   -5.1536   15.0532   22.5834 H   0  0  0  0  0  0  0  0  0  0  0  0
   -6.1335   14.1743   23.8372 H   0  0  0  0  0  0  0  0  0  0  0  0
   -2.5026   12.3103   25.6936 H   0  0  0  0  0  0  0  0  0  0  0  0
   -1.1101   13.0215   23.7730 H   0  0  0  0  0  0  0  0  0  0  0  0
   -0.8042   11.5689   22.0722 H   0  0  0  0  0  0  0  0  0  0  0  0
   -2.4588   12.7140   20.0127 H   0  0  0  0  0  0  0  0  0  0  0  0
   -7.0241    9.8976   21.4448 H   0  0  0  0  0  0  0  0  0  0  0  0
   -8.5042    7.9177   20.4502 H   0  0  0  0  0  0  0  0  0  0  0  0
   -2.1030    9.3590   23.0270 H   0  0  0  0  0  0  0  0  0  0  0  0
   -0.2222    8.7064   24.0222 H   0  0  0  0  0  0  0  0  0  0  0  0
    0.4288   10.3158   23.7245 H   0  0  0  0  0  0  0  0  0  0  0  0
    0.0270    9.4079   26.2625 H   0  0  0  0  0  0  0  0  0  0  0  0
   -0.2498   11.1052   25.9091 H   0  0  0  0  0  0  0  0  0  0  0  0
   -2.2888    8.7973   25.9917 H   0  0  0  0  0  0  0  0  0  0  0  0
   -2.4030   10.3320   26.8413 H   0  0  0  0  0  0  0  0  0  0  0  0
   -3.7567   10.0572   24.5845 H   0  0  0  0  0  0  0  0  0  0  0  0
  1  2  1  0
  2  3  1  0
  2  4  1  0
  2  5  1  0
  5  6  1  0
  6  7  1  0
  7  8  1  0
  8  9  1  0
  9 10  2  0
  9 11  1  0
 11 12  1  0
 12 13  1  0
 13 14  2  0
 12 15  1  0
 15 16  1  0
 16 17  2  0
 17 18  1  0
 18 19  1  0
 19 20  1  0
 20 21  2  0
 21 22  1  0
 22 23  2  0
 23 24  1  0
 23 25  1  0
 19 26  2  0
 15 27  1  0
 27 28  1  0
 28 29  1  0
 29 30  1  0
 30 31  1  0
 13  8  1  0
 26 16  1  0
 31 27  1  0
 31 11  1  0
 25 20  1  0
  1 32  1  0
  1 33  1  0
  1 34  1  0
  3 35  1  0
  3 36  1  0
  3 37  1  0
  4 38  1  0
  4 39  1  0
  4 40  1  0
  5 41  1  0
  5 42  1  0
  6 43  1  0
  6 44  1  0
  7 45  1  0
  7 46  1  0
 11 47  1  1
 12 48  1  1
 15 49  1  6
 17 50  1  0
 21 51  1  0
 22 52  1  0
 27 53  1  6
 28 54  1  0
 28 55  1  0
 29 56  1  0
 29 57  1  0
 30 58  1  0
 30 59  1  0
 31 60  1  6
M  CHG  2   2   1  27   1
M  END
>  <meeko>  (4) 
{"is_sidechain": [false], "free_energy": -7.441, "intermolecular_energy": -9.822, "internal_energy": -0.866}

$$$$
2y5h_ligand
     RDKit          3D

 60 64  0  0  0  0  0  0  0  0999 V2000
    0.5930   13.0400   15.4750 C   0  0  0  0  0  0  0  0  0  0  0  0
   -0.6100   13.7490   16.0890 N   0  0  0  0  0  0  0  0  0  0  0  0
   -0.5540   15.2380   15.7530 C   0  0  0  0  0  0  0  0  0  0  0  0
   -1.8780   13.1710   15.4370 C   0  0  0  0  0  0  0  0  0  0  0  0
   -0.7110   13.5070   17.6050 C   0  0  0  0  0  0  0  0  0  0  0  0
   -1.7970   14.3330   18.3000 C   0  0  0  0  0  0  0  0  0  0  0  0
   -2.9230   13.4180   18.7960 C   0  0  0  0  0  0  0  0  0  0  0  0
   -2.8950   13.2400   20.2410 N   0  0  0  0  0  0  0  0  0  0  0  0
   -3.4880   14.1090   21.1120 C   0  0  0  0  0  0  0  0  0  0  0  0
   -4.0710   15.1430   20.8280 O   0  0  0  0  0  0  0  0  0  0  0  0
   -3.2650   13.6150   22.5120 C   0  0  2  0  0  0  0  0  0  0  0  0
   -2.7560   12.1920   22.3250 C   0  0  2  0  0  0  0  0  0  0  0  0
   -2.4160   12.1240   20.8640 C   0  0  0  0  0  0  0  0  0  0  0  0
   -1.8550   11.1750   20.3430 O   0  0  0  0  0  0  0  0  0  0  0  0
   -3.8870   11.2530   22.7300 C   0  0  2  0  0  0  0  0  0  0  0  0
   -4.7920   10.8160   21.6210 C   0  0  0  0  0  0  0  0  0  0  0  0
   -5.8290   11.4680   21.0000 C   0  0  0  0  0  0  0  0  0  0  0  0
   -6.3350   10.6360   20.0490 O   0  0  0  0  0  0  0  0  0  0  0  0
   -5.5790    9.4890   20.1310 C   0  0  0  0  0  0  0  0  0  0  0  0
   -5.8190    8.3300   19.3180 C   0  0  0  0  0  0  0  0  0  0  0  0
   -4.8900    7.3920   18.9040 C   0  0  0  0  0  0  0  0  0  0  0  0
   -5.4720    6.3730   18.0880 C   0  0  0  0  0  0  0  0  0  0  0  0
   -6.8140    6.5890   17.9140 C   0  0  0  0  0  0  0  0  0  0  0  0
   -7.9000    5.6280   16.9970 Cl  0  0  0  0  0  0  0  0  0  0  0  0
   -7.3830    7.9690   18.7080 S   0  0  0  0  0  0  0  0  0  0  0  0
   -4.6320    9.5690   21.0570 N   0  0  0  0  0  0  0  0  0  0  0  0
   -4.6930   12.0870   23.7250 N   0  0  1  0  0  0  0  0  0  0  0  0
   -4.3400   11.9550   25.1890 C   0  0  0  0  0  0  0  0  0  0  0  0
   -3.7550   13.3030   25.5640 C   0  0  0  0  0  0  0  0  0  0  0  0
   -4.4850   14.2770   24.6570 C   0  0  0  0  0  0  0  0  0  0  0  0
   -4.5530   13.5550   23.3170 C   0  0  1  0  0  0  0  0  0  0  0  0
    1.2418   12.6576   16.2768 H   0  0  0  0  0  0  0  0  0  0  0  0
    0.2463   12.2018   14.8527 H   0  0  0  0  0  0  0  0  0  0  0  0
    1.1584   13.7493   14.8527 H   0  0  0  0  0  0  0  0  0  0  0  0
   -0.5320   15.8234   16.6840 H   0  0  0  0  0  0  0  0  0  0  0  0
    0.3527   15.4477   15.1665 H   0  0  0  0  0  0  0  0  0  0  0  0
   -1.4424   15.5152   15.1665 H   0  0  0  0  0  0  0  0  0  0  0  0
   -2.5801   12.8510   16.2210 H   0  0  0  0  0  0  0  0  0  0  0  0
   -2.3528   13.9416   14.8119 H   0  0  0  0  0  0  0  0  0  0  0  0
   -1.6077   12.3072   14.8119 H   0  0  0  0  0  0  0  0  0  0  0  0
   -0.9285   12.4415   17.7708 H   0  0  0  0  0  0  0  0  0  0  0  0
    0.2503   13.8177   18.0401 H   0  0  0  0  0  0  0  0  0  0  0  0
   -1.3568   14.8644   19.1567 H   0  0  0  0  0  0  0  0  0  0  0  0
   -2.2122   15.0559   17.5823 H   0  0  0  0  0  0  0  0  0  0  0  0
   -3.8893   13.8610   18.5129 H   0  0  0  0  0  0  0  0  0  0  0  0
   -2.7824   12.4303   18.3327 H   0  0  0  0  0  0  0  0  0  0  0  0
   -2.5804   14.2823   23.0560 H   0  0  0  0  0  0  0  0  0  0  0  0
   -1.8800   11.9102   22.9277 H   0  0  0  0  0  0  0  0  0  0  0  0
   -3.4649   10.3127   23.1144 H   0  0  0  0  0  0  0  0  0  0  0  0
   -6.1870   12.4823   21.2302 H   0  0  0  0  0  0  0  0  0  0  0  0
   -3.8238    7.4266   19.1725 H   0  0  0  0  0  0  0  0  0  0  0  0
   -4.9162    5.5273   17.6568 H   0  0  0  0  0  0  0  0  0  0  0  0
   -5.6870   11.8290   23.6090 H   0  0  0  0  0  0  0  0  0  0  0  0
   -5.2380   11.7413   25.7873 H   0  0  0  0  0  0  0  0  0  0  0  0
   -3.6383   11.1288   25.3763 H   0  0  0  0  0  0  0  0  0  0  0  0
   -3.9471   13.5332   26.6223 H   0  0  0  0  0  0  0  0  0  0  0  0
   -2.6626   13.3428   25.4409 H   0  0  0  0  0  0  0  0  0  0  0  0
   -5.4948   14.4858   25.0400 H   0  0  0  0  0  0  0  0  0  0  0  0
   -3.9782   15.2508   24.5873 H   0  0  0  0  0  0  0  0  0  0  0  0
   -5.3502   13.9993   22.7030 H   0  0  0  0  0  0  0  0  0  0  0  0
  1  2  1  0
  2  3  1  0
  2  4  1  0
  2  5  1  0
  5  6  1  0
  6  7  1  0
  7  8  1  0
  8  9  1  0
  9 10  2  0
  9 11  1  0
 11 12  1  0
 12 13  1  0
 13 14  2  0
 12 15  1  0
 15 16  1  0
 16 17  2  0
 17 18  1  0
 18 19  1  0
 19 20  1  0
 20 21  2  0
 21 22  1  0
 22 23  2  0
 23 24  1  0
 23 25  1  0
 19 26  2  0
 15 27  1  0
 27 28  1  0
 28 29  1  0
 29 30  1  0
 30 31  1  0
 13  8  1  0
 26 16  1  0
 31 27  1  0
 31 11  1  0
 25 20  1  0
  1 32  1  0
  1 33  1  0
  1 34  1  0
  3 35  1  0
  3 36  1  0
  3 37  1  0
  4 38  1  0
  4 39  1  0
  4 40  1  0
  5 41  1  0
  5 42  1  0
  6 43  1  0
  6 44  1  0
  7 45  1  0
  7 46  1  0
 11 47  1  1
 12 48  1  1
 15 49  1  1
 17 50  1  0
 21 51  1  0
 22 52  1  0
 27 53  1  1
 28 54  1  0
 28 55  1  0
 29 56  1  0
 29 57  1  0
 30 58  1  0
 30 59  1  0
 31 60  1  6
M  CHG  2   2   1  27   1
M  END
>  <meeko>  (5) 
{"is_sidechain": [false], "free_energy": -7.14, "intermolecular_energy": -9.59, "internal_energy": -0.69}

$$$$
2y5h_ligand
     RDKit          3D

 60 64  0  0  0  0  0  0  0  0999 V2000
  -10.4000   11.4180   23.0190 C   0  0  0  0  0  0  0  0  0  0  0  0
   -9.9270   12.7890   22.5500 N   0  0  0  0  0  0  0  0  0  0  0  0
  -10.6860   13.8790   23.3040 C   0  0  0  0  0  0  0  0  0  0  0  0
   -8.4380   12.9220   22.9100 C   0  0  0  0  0  0  0  0  0  0  0  0
  -10.0560   12.9530   21.0250 C   0  0  0  0  0  0  0  0  0  0  0  0
  -10.1080   11.6300   20.2550 C   0  0  0  0  0  0  0  0  0  0  0  0
   -8.8140   11.4330   19.4540 C   0  0  0  0  0  0  0  0  0  0  0  0
   -8.4120   10.0350   19.3920 N   0  0  0  0  0  0  0  0  0  0  0  0
   -8.5280    9.2730   18.2640 C   0  0  0  0  0  0  0  0  0  0  0  0
   -9.0040    9.6190   17.1960 O   0  0  0  0  0  0  0  0  0  0  0  0
   -8.0150    7.8930   18.5600 C   0  0  2  0  0  0  0  0  0  0  0  0
   -7.2920    8.0450   19.8910 C   0  0  2  0  0  0  0  0  0  0  0  0
   -7.7420    9.3880   20.3900 C   0  0  0  0  0  0  0  0  0  0  0  0
   -7.4750    9.8220   21.4980 O   0  0  0  0  0  0  0  0  0  0  0  0
   -5.7960    7.9740   19.6010 C   0  0  2  0  0  0  0  0  0  0  0  0
   -5.1220    9.2880   19.3620 C   0  0  0  0  0  0  0  0  0  0  0  0
   -5.0550   10.0700   18.2350 C   0  0  0  0  0  0  0  0  0  0  0  0
   -4.3180   11.1730   18.5360 O   0  0  0  0  0  0  0  0  0  0  0  0
   -3.9530   11.0180   19.8530 C   0  0  0  0  0  0  0  0  0  0  0  0
   -3.1210   11.9550   20.5540 C   0  0  0  0  0  0  0  0  0  0  0  0
   -3.4640   13.2290   20.9710 C   0  0  0  0  0  0  0  0  0  0  0  0
   -2.3830   13.8950   21.6290 C   0  0  0  0  0  0  0  0  0  0  0  0
   -1.2690   13.0990   21.6730 C   0  0  0  0  0  0  0  0  0  0  0  0
    0.2550   13.5010   22.3510 Cl  0  0  0  0  0  0  0  0  0  0  0  0
   -1.4940   11.5830   20.9580 S   0  0  0  0  0  0  0  0  0  0  0  0
   -4.4320    9.9010   20.3850 N   0  0  0  0  0  0  0  0  0  0  0  0
   -5.7290    7.1430   18.3200 N   0  0  1  0  0  0  0  0  0  0  0  0
   -5.5590    5.6490   18.4680 C   0  0  0  0  0  0  0  0  0  0  0  0
   -6.8700    5.0650   17.9770 C   0  0  0  0  0  0  0  0  0  0  0  0
   -7.3320    6.0550   16.9230 C   0  0  0  0  0  0  0  0  0  0  0  0
   -7.0090    7.4160   17.5260 C   0  0  1  0  0  0  0  0  0  0  0  0
  -10.4097   11.3899   24.1186 H   0  0  0  0  0  0  0  0  0  0  0  0
  -11.4149   11.2303   22.6384 H   0  0  0  0  0  0  0  0  0  0  0  0
   -9.7168   10.6444   22.6384 H   0  0  0  0  0  0  0  0  0  0  0  0
  -10.5756   13.7205   24.3869 H   0  0  0  0  0  0  0  0  0  0  0  0
  -10.2774   14.8640   23.0341 H   0  0  0  0  0  0  0  0  0  0  0  0
  -11.7516   13.8375   23.0341 H   0  0  0  0  0  0  0  0  0  0  0  0
   -8.3248   12.9321   24.0041 H   0  0  0  0  0  0  0  0  0  0  0  0
   -7.8821   12.0699   22.4917 H   0  0  0  0  0  0  0  0  0  0  0  0
   -8.0419   13.8591   22.4917 H   0  0  0  0  0  0  0  0  0  0  0  0
  -10.9801   13.5114   20.8147 H   0  0  0  0  0  0  0  0  0  0  0  0
   -9.1530   13.4817   20.6857 H   0  0  0  0  0  0  0  0  0  0  0  0
  -10.2250   10.7995   20.9667 H   0  0  0  0  0  0  0  0  0  0  0  0
  -10.9608   11.6517   19.5605 H   0  0  0  0  0  0  0  0  0  0  0  0
   -8.9720   11.8018   18.4298 H   0  0  0  0  0  0  0  0  0  0  0  0
   -8.0143   11.9917   19.9623 H   0  0  0  0  0  0  0  0  0  0  0  0
   -8.8383    7.1635   18.5634 H   0  0  0  0  0  0  0  0  0  0  0  0
   -7.5045    7.2737   20.6460 H   0  0  0  0  0  0  0  0  0  0  0  0
   -5.2700    7.5617   20.4747 H   0  0  0  0  0  0  0  0  0  0  0  0
   -5.5155    9.8445   17.2618 H   0  0  0  0  0  0  0  0  0  0  0  0
   -4.4556   13.6785   20.8142 H   0  0  0  0  0  0  0  0  0  0  0  0
   -2.4387   14.9119   22.0448 H   0  0  0  0  0  0  0  0  0  0  0  0
   -4.9380    7.5040   17.7610 H   0  0  0  0  0  0  0  0  0  0  0  0
   -4.7199    5.2908   17.8536 H   0  0  0  0  0  0  0  0  0  0  0  0
   -5.3330    5.3551   19.5036 H   0  0  0  0  0  0  0  0  0  0  0  0
   -6.7156    4.0682   17.5381 H   0  0  0  0  0  0  0  0  0  0  0  0
   -7.6046    4.9276   18.7842 H   0  0  0  0  0  0  0  0  0  0  0  0
   -6.7851    5.9056   15.9804 H   0  0  0  0  0  0  0  0  0  0  0  0
   -8.3985    5.9439   16.6776 H   0  0  0  0  0  0  0  0  0  0  0  0
   -6.9712    8.1704   16.7264 H   0  0  0  0  0  0  0  0  0  0  0  0
  1  2  1  0
  2  3  1  0
  2  4  1  0
  2  5  1  0
  5  6  1  0
  6  7  1  0
  7  8  1  0
  8  9  1  0
  9 10  2  0
  9 11  1  0
 11 12  1  0
 12 13  1  0
 13 14  2  0
 12 15  1  0
 15 16  1  0
 16 17  2  0
 17 18  1  0
 18 19  1  0
 19 20  1  0
 20 21  2  0
 21 22  1  0
 22 23  2  0
 23 24  1  0
 23 25  1  0
 19 26  2  0
 15 27  1  0
 27 28  1  0
 28 29  1  0
 29 30  1  0
 30 31  1  0
 13  8  1  0
 26 16  1  0
 31 27  1  0
 31 11  1  0
 25 20  1  0
  1 32  1  0
  1 33  1  0
  1 34  1  0
  3 35  1  0
  3 36  1  0
  3 37  1  0
  4 38  1  0
  4 39  1  0
  4 40  1  0
  5 41  1  0
  5 42  1  0
  6 43  1  0
  6 44  1  0
  7 45  1  0
  7 46  1  0
 11 47  1  1
 12 48  1  1
 15 49  1  1
 17 50  1  0
 21 51  1  0
 22 52  1  0
 27 53  1  6
 28 54  1  0
 28 55  1  0
 29 56  1  0
 29 57  1  0
 30 58  1  0
 30 59  1  0
 31 60  1  6
M  CHG  2   2   1  27   1
M  END
>  <meeko>  (6) 
{"is_sidechain": [false], "free_energy": -7.077, "intermolecular_energy": -9.286, "internal_energy": -0.91}

$$$$
2y5h_ligand
     RDKit          3D

 60 64  0  0  0  0  0  0  0  0999 V2000
   -2.5540   13.8580   18.5140 C   0  0  0  0  0  0  0  0  0  0  0  0
   -1.0310   13.8170   18.5910 N   0  0  0  0  0  0  0  0  0  0  0  0
   -0.4570   13.5000   17.2120 C   0  0  0  0  0  0  0  0  0  0  0  0
   -0.5440   15.2210   18.9890 C   0  0  0  0  0  0  0  0  0  0  0  0
   -0.5340   12.8280   19.6600 C   0  0  0  0  0  0  0  0  0  0  0  0
   -1.6520   12.1800   20.4820 C   0  0  0  0  0  0  0  0  0  0  0  0
   -1.2730   12.1600   21.9680 C   0  0  0  0  0  0  0  0  0  0  0  0
   -2.3470   12.6540   22.8180 N   0  0  0  0  0  0  0  0  0  0  0  0
   -2.7030   13.9720   22.8820 C   0  0  0  0  0  0  0  0  0  0  0  0
   -2.1730   14.9000   22.2960 O   0  0  0  0  0  0  0  0  0  0  0  0
   -3.8430   14.1160   23.8500 C   0  0  2  0  0  0  0  0  0  0  0  0
   -4.3110   12.6860   24.0850 C   0  0  2  0  0  0  0  0  0  0  0  0
   -3.2030   11.8490   23.5140 C   0  0  0  0  0  0  0  0  0  0  0  0
   -3.1470   10.6360   23.6220 O   0  0  0  0  0  0  0  0  0  0  0  0
   -5.6380   12.5210   23.3510 C   0  0  2  0  0  0  0  0  0  0  0  0
   -5.5410   12.0010   21.9510 C   0  0  0  0  0  0  0  0  0  0  0  0
   -5.3190   12.6550   20.7650 C   0  0  0  0  0  0  0  0  0  0  0  0
   -5.3220   11.7270   19.7700 O   0  0  0  0  0  0  0  0  0  0  0  0
   -5.5560   10.5240   20.3960 C   0  0  0  0  0  0  0  0  0  0  0  0
   -5.6800    9.2810   19.6890 C   0  0  0  0  0  0  0  0  0  0  0  0
   -4.9610    8.8750   18.5780 C   0  0  0  0  0  0  0  0  0  0  0  0
   -5.3540    7.5790   18.1200 C   0  0  0  0  0  0  0  0  0  0  0  0
   -6.3580    7.0660   18.8980 C   0  0  0  0  0  0  0  0  0  0  0  0
   -7.1410    5.5520   18.7000 Cl  0  0  0  0  0  0  0  0  0  0  0  0
   -6.8260    8.0920   20.1590 S   0  0  0  0  0  0  0  0  0  0  0  0
   -5.6780   10.6510   21.7110 N   0  0  0  0  0  0  0  0  0  0  0  0
   -6.1940   13.9440   23.3120 N   0  0  1  0  0  0  0  0  0  0  0  0
   -7.1090   14.3640   24.4400 C   0  0  0  0  0  0  0  0  0  0  0  0
   -6.3210   15.4140   25.2000 C   0  0  0  0  0  0  0  0  0  0  0  0
   -5.4670   16.0680   24.1290 C   0  0  0  0  0  0  0  0  0  0  0  0
   -5.0030   14.9040   23.2630 C   0  0  1  0  0  0  0  0  0  0  0  0
   -2.9724   13.8693   19.5313 H   0  0  0  0  0  0  0  0  0  0  0  0
   -2.8697   14.7650   17.9776 H   0  0  0  0  0  0  0  0  0  0  0  0
   -2.9181   12.9693   17.9776 H   0  0  0  0  0  0  0  0  0  0  0  0
    0.5007   12.9711   17.3262 H   0  0  0  0  0  0  0  0  0  0  0  0
   -1.1633   12.8641   16.6582 H   0  0  0  0  0  0  0  0  0  0  0  0
   -0.2949   14.4365   16.6582 H   0  0  0  0  0  0  0  0  0  0  0  0
   -0.5159   15.3021   20.0856 H   0  0  0  0  0  0  0  0  0  0  0  0
    0.4646   15.3880   18.5830 H   0  0  0  0  0  0  0  0  0  0  0  0
   -1.2325   15.9767   18.5830 H   0  0  0  0  0  0  0  0  0  0  0  0
    0.0309   12.0300   19.1560 H   0  0  0  0  0  0  0  0  0  0  0  0
    0.0824   13.4061   20.3641 H   0  0  0  0  0  0  0  0  0  0  0  0
   -2.5799   12.7562   20.3513 H   0  0  0  0  0  0  0  0  0  0  0  0
   -1.7998   11.1466   20.1352 H   0  0  0  0  0  0  0  0  0  0  0  0
   -1.0383   11.1256   22.2595 H   0  0  0  0  0  0  0  0  0  0  0  0
   -0.4048   12.8218   22.1032 H   0  0  0  0  0  0  0  0  0  0  0  0
   -3.5208   14.6502   24.7560 H   0  0  0  0  0  0  0  0  0  0  0  0
   -4.4919   12.4040   25.1327 H   0  0  0  0  0  0  0  0  0  0  0  0
   -6.2554   11.7729   23.8698 H   0  0  0  0  0  0  0  0  0  0  0  0
   -5.1658   13.7372   20.6409 H   0  0  0  0  0  0  0  0  0  0  0  0
   -4.1762    9.4809   18.1015 H   0  0  0  0  0  0  0  0  0  0  0  0
   -4.9090    7.0621   17.2570 H   0  0  0  0  0  0  0  0  0  0  0  0
   -6.7100   14.0480   22.4230 H   0  0  0  0  0  0  0  0  0  0  0  0
   -8.0429   14.7899   24.0445 H   0  0  0  0  0  0  0  0  0  0  0  0
   -7.4002   13.5171   25.0787 H   0  0  0  0  0  0  0  0  0  0  0  0
   -6.9943   16.1478   25.6672 H   0  0  0  0  0  0  0  0  0  0  0  0
   -5.7242   14.9884   26.0202 H   0  0  0  0  0  0  0  0  0  0  0  0
   -6.0599   16.7821   23.5386 H   0  0  0  0  0  0  0  0  0  0  0  0
   -4.6284   16.6424   24.5495 H   0  0  0  0  0  0  0  0  0  0  0  0
   -4.6847   15.2836   22.2809 H   0  0  0  0  0  0  0  0  0  0  0  0
  1  2  1  0
  2  3  1  0
  2  4  1  0
  2  5  1  0
  5  6  1  0
  6  7  1  0
  7  8  1  0
  8  9  1  0
  9 10  2  0
  9 11  1  0
 11 12  1  0
 12 13  1  0
 13 14  2  0
 12 15  1  0
 15 16  1  0
 16 17  2  0
 17 18  1  0
 18 19  1  0
 19 20  1  0
 20 21  2  0
 21 22  1  0
 22 23  2  0
 23 24  1  0
 23 25  1  0
 19 26  2  0
 15 27  1  0
 27 28  1  0
 28 29  1  0
 29 30  1  0
 30 31  1  0
 13  8  1  0
 26 16  1  0
 31 27  1  0
 31 11  1  0
 25 20  1  0
  1 32  1  0
  1 33  1  0
  1 34  1  0
  3 35  1  0
  3 36  1  0
  3 37  1  0
  4 38  1  0
  4 39  1  0
  4 40  1  0
  5 41  1  0
  5 42  1  0
  6 43  1  0
  6 44  1  0
  7 45  1  0
  7 46  1  0
 11 47  1  1
 12 48  1  1
 15 49  1  1
 17 50  1  0
 21 51  1  0
 22 52  1  0
 27 53  1  6
 28 54  1  0
 28 55  1  0
 29 56  1  0
 29 57  1  0
 30 58  1  0
 30 59  1  0
 31 60  1  6
M  CHG  2   2   1  27   1
M  END
>  <meeko>  (7) 
{"is_sidechain": [false], "free_energy": -7.05, "intermolecular_energy": -9.097, "internal_energy": -1.062}

$$$$
2y5h_ligand
     RDKit          3D

 60 64  0  0  0  0  0  0  0  0999 V2000
   -7.5020   11.0470   17.1010 C   0  0  0  0  0  0  0  0  0  0  0  0
   -6.0930   11.0900   16.5200 N   0  0  0  0  0  0  0  0  0  0  0  0
   -5.6930    9.6960   16.0400 C   0  0  0  0  0  0  0  0  0  0  0  0
   -6.1190   12.0170   15.2920 C   0  0  0  0  0  0  0  0  0  0  0  0
   -5.0740   11.6660   17.5190 C   0  0  0  0  0  0  0  0  0  0  0  0
   -5.5960   12.8550   18.3310 C   0  0  0  0  0  0  0  0  0  0  0  0
   -4.4310   13.7510   18.7680 C   0  0  0  0  0  0  0  0  0  0  0  0
   -4.0320   13.5050   20.1460 N   0  0  0  0  0  0  0  0  0  0  0  0
   -4.5930   14.1470   21.2130 C   0  0  0  0  0  0  0  0  0  0  0  0
   -5.4470   15.0170   21.1740 O   0  0  0  0  0  0  0  0  0  0  0  0
   -3.9460   13.6460   22.4720 C   0  0  2  0  0  0  0  0  0  0  0  0
   -3.1800   12.4080   22.0260 C   0  0  2  0  0  0  0  0  0  0  0  0
   -3.1770   12.5100   20.5280 C   0  0  0  0  0  0  0  0  0  0  0  0
   -2.5480   11.7620   19.7990 O   0  0  0  0  0  0  0  0  0  0  0  0
   -3.9400   11.1940   22.5520 C   0  0  2  0  0  0  0  0  0  0  0  0
   -4.9490   10.6090   21.6140 C   0  0  0  0  0  0  0  0  0  0  0  0
   -6.2120   11.0310   21.2790 C   0  0  0  0  0  0  0  0  0  0  0  0
   -6.7220   10.1470   20.3790 O   0  0  0  0  0  0  0  0  0  0  0  0
   -5.7380    9.2020   20.2000 C   0  0  0  0  0  0  0  0  0  0  0  0
   -5.8930    8.0560   19.3510 C   0  0  0  0  0  0  0  0  0  0  0  0
   -4.8910    7.2430   18.8490 C   0  0  0  0  0  0  0  0  0  0  0  0
   -5.4030    6.1970   18.0200 C   0  0  0  0  0  0  0  0  0  0  0  0
   -6.7680    6.2690   17.9240 C   0  0  0  0  0  0  0  0  0  0  0  0
   -7.7910    5.2280   17.0220 Cl  0  0  0  0  0  0  0  0  0  0  0  0
   -7.4400    7.5450   18.8060 S   0  0  0  0  0  0  0  0  0  0  0  0
   -4.6510    9.4580   20.9180 N   0  0  0  0  0  0  0  0  0  0  0  0
   -4.6650   11.7430   23.7790 N   0  0  1  0  0  0  0  0  0  0  0  0
   -3.9650   11.6200   25.1130 C   0  0  0  0  0  0  0  0  0  0  0  0
   -3.6370   13.0480   25.5050 C   0  0  0  0  0  0  0  0  0  0  0  0
   -4.7600   13.8590   24.8840 C   0  0  0  0  0  0  0  0  0  0  0  0
   -4.9660   13.2200   23.5160 C   0  0  1  0  0  0  0  0  0  0  0  0
   -7.4458   11.0487   18.1996 H   0  0  0  0  0  0  0  0  0  0  0  0
   -8.0657   11.9284   16.7613 H   0  0  0  0  0  0  0  0  0  0  0  0
   -8.0110   10.1329   16.7613 H   0  0  0  0  0  0  0  0  0  0  0  0
   -5.5071    9.0482   16.9094 H   0  0  0  0  0  0  0  0  0  0  0  0
   -6.5052    9.2703   15.4325 H   0  0  0  0  0  0  0  0  0  0  0  0
   -4.7786    9.7657   15.4325 H   0  0  0  0  0  0  0  0  0  0  0  0
   -6.1484   13.0652   15.6244 H   0  0  0  0  0  0  0  0  0  0  0  0
   -5.2158   11.8494   14.6869 H   0  0  0  0  0  0  0  0  0  0  0  0
   -7.0114   11.7991   14.6869 H   0  0  0  0  0  0  0  0  0  0  0  0
   -4.7888   10.8678   18.2201 H   0  0  0  0  0  0  0  0  0  0  0  0
   -4.2241   12.0358   16.9266 H   0  0  0  0  0  0  0  0  0  0  0  0
   -6.2919   13.4402   17.7119 H   0  0  0  0  0  0  0  0  0  0  0  0
   -6.1141   12.4787   19.2254 H   0  0  0  0  0  0  0  0  0  0  0  0
   -3.5704   13.5580   18.1107 H   0  0  0  0  0  0  0  0  0  0  0  0
   -4.7650   14.7966   18.6958 H   0  0  0  0  0  0  0  0  0  0  0  0
   -3.3274   14.4309   22.9316 H   0  0  0  0  0  0  0  0  0  0  0  0
   -2.1485   12.3199   22.3977 H   0  0  0  0  0  0  0  0  0  0  0  0
   -3.2367   10.3680   22.7336 H   0  0  0  0  0  0  0  0  0  0  0  0
   -6.7210   11.9248   21.6689 H   0  0  0  0  0  0  0  0  0  0  0  0
   -3.8217    7.3858   19.0638 H   0  0  0  0  0  0  0  0  0  0  0  0
   -4.7832    5.4351   17.5247 H   0  0  0  0  0  0  0  0  0  0  0  0
   -5.5730   11.2520   23.8450 H   0  0  0  0  0  0  0  0  0  0  0  0
   -4.6275   11.1551   25.8579 H   0  0  0  0  0  0  0  0  0  0  0  0
   -3.0679   10.9859   25.0569 H   0  0  0  0  0  0  0  0  0  0  0  0
   -3.6292   13.1624   26.5990 H   0  0  0  0  0  0  0  0  0  0  0  0
   -2.6415   13.3661   25.1619 H   0  0  0  0  0  0  0  0  0  0  0  0
   -5.6750   13.7875   25.4903 H   0  0  0  0  0  0  0  0  0  0  0  0
   -4.5209   14.9307   24.8182 H   0  0  0  0  0  0  0  0  0  0  0  0
   -5.9635   13.4844   23.1350 H   0  0  0  0  0  0  0  0  0  0  0  0
  1  2  1  0
  2  3  1  0
  2  4  1  0
  2  5  1  0
  5  6  1  0
  6  7  1  0
  7  8  1  0
  8  9  1  0
  9 10  2  0
  9 11  1  0
 11 12  1  0
 12 13  1  0
 13 14  2  0
 12 15  1  0
 15 16  1  0
 16 17  2  0
 17 18  1  0
 18 19  1  0
 19 20  1  0
 20 21  2  0
 21 22  1  0
 22 23  2  0
 23 24  1  0
 23 25  1  0
 19 26  2  0
 15 27  1  0
 27 28  1  0
 28 29  1  0
 29 30  1  0
 30 31  1  0
 13  8  1  0
 26 16  1  0
 31 27  1  0
 31 11  1  0
 25 20  1  0
  1 32  1  0
  1 33  1  0
  1 34  1  0
  3 35  1  0
  3 36  1  0
  3 37  1  0
  4 38  1  0
  4 39  1  0
  4 40  1  0
  5 41  1  0
  5 42  1  0
  6 43  1  0
  6 44  1  0
  7 45  1  0
  7 46  1  0
 11 47  1  1
 12 48  1  1
 15 49  1  1
 17 50  1  0
 21 51  1  0
 22 52  1  0
 27 53  1  1
 28 54  1  0
 28 55  1  0
 29 56  1  0
 29 57  1  0
 30 58  1  0
 30 59  1  0
 31 60  1  6
M  CHG  2   2   1  27   1
M  END
>  <meeko>  (8) 
{"is_sidechain": [false], "free_energy": -7.041, "intermolecular_energy": -8.815, "internal_energy": -1.333}

$$$$
2y5h_ligand
     RDKit          3D

 60 64  0  0  0  0  0  0  0  0999 V2000
   -5.9650   12.7010   22.6050 C   0  0  0  0  0  0  0  0  0  0  0  0
   -6.1300   13.9800   21.7920 N   0  0  0  0  0  0  0  0  0  0  0  0
   -6.4390   15.1460   22.7290 C   0  0  0  0  0  0  0  0  0  0  0  0
   -4.7870   14.2770   21.1040 C   0  0  0  0  0  0  0  0  0  0  0  0
   -7.1960   13.8310   20.6920 C   0  0  0  0  0  0  0  0  0  0  0  0
   -7.0470   12.5660   19.8430 C   0  0  0  0  0  0  0  0  0  0  0  0
   -8.3800   11.8090   19.7800 C   0  0  0  0  0  0  0  0  0  0  0  0
   -8.1940   10.3760   19.6000 N   0  0  0  0  0  0  0  0  0  0  0  0
   -8.3170    9.7530   18.3910 C   0  0  0  0  0  0  0  0  0  0  0  0
   -8.6280   10.2700   17.3320 O   0  0  0  0  0  0  0  0  0  0  0  0
   -8.0550    8.2860   18.5780 C   0  0  2  0  0  0  0  0  0  0  0  0
   -7.4480    8.1920   19.9710 C   0  0  2  0  0  0  0  0  0  0  0  0
   -7.7320    9.5380   20.5740 C   0  0  0  0  0  0  0  0  0  0  0  0
   -7.5100    9.8170   21.7400 O   0  0  0  0  0  0  0  0  0  0  0  0
   -5.9610    7.9050   19.7970 C   0  0  2  0  0  0  0  0  0  0  0  0
   -5.0710    9.1080   19.7560 C   0  0  0  0  0  0  0  0  0  0  0  0
   -4.8370   10.0160   18.7520 C   0  0  0  0  0  0  0  0  0  0  0  0
   -3.9400   10.9280   19.2160 O   0  0  0  0  0  0  0  0  0  0  0  0
   -3.6530   10.5330   20.5030 C   0  0  0  0  0  0  0  0  0  0  0  0
   -2.7040   11.2110   21.3400 C   0  0  0  0  0  0  0  0  0  0  0  0
   -2.6200   11.1600   22.7210 C   0  0  0  0  0  0  0  0  0  0  0  0
   -1.5610   11.9740   23.2310 C   0  0  0  0  0  0  0  0  0  0  0  0
   -0.8960   12.6100   22.2160 C   0  0  0  0  0  0  0  0  0  0  0  0
    0.4260   13.6920   22.3730 Cl  0  0  0  0  0  0  0  0  0  0  0  0
   -1.5040   12.2470   20.6800 S   0  0  0  0  0  0  0  0  0  0  0  0
   -4.3280    9.4490   20.8640 N   0  0  0  0  0  0  0  0  0  0  0  0
   -5.8990    7.1990   18.4430 N   0  0  1  0  0  0  0  0  0  0  0  0
   -5.9770    5.6890   18.4430 C   0  0  0  0  0  0  0  0  0  0  0  0
   -7.3080    5.3760   17.7870 C   0  0  0  0  0  0  0  0  0  0  0  0
   -7.5080    6.5220   16.8120 C   0  0  0  0  0  0  0  0  0  0  0  0
   -7.0380    7.7500   17.5820 C   0  0  1  0  0  0  0  0  0  0  0  0
   -5.9961   12.9419   23.6778 H   0  0  0  0  0  0  0  0  0  0  0  0
   -6.7807   12.0042   22.3619 H   0  0  0  0  0  0  0  0  0  0  0  0
   -4.9992   12.2340   22.3619 H   0  0  0  0  0  0  0  0  0  0  0  0
   -6.3502   14.8109   23.7730 H   0  0  0  0  0  0  0  0  0  0  0  0
   -5.7265   15.9635   22.5444 H   0  0  0  0  0  0  0  0  0  0  0  0
   -7.4628   15.5033   22.5444 H   0  0  0  0  0  0  0  0  0  0  0  0
   -4.0138   14.4480   21.8675 H   0  0  0  0  0  0  0  0  0  0  0  0
   -4.4994   13.4208   20.4762 H   0  0  0  0  0  0  0  0  0  0  0  0
   -4.8872   15.1747   20.4762 H   0  0  0  0  0  0  0  0  0  0  0  0
   -8.1860   13.8106   21.1711 H   0  0  0  0  0  0  0  0  0  0  0  0
   -7.0703   14.6859   20.0113 H   0  0  0  0  0  0  0  0  0  0  0  0
   -6.7400   12.8462   18.8246 H   0  0  0  0  0  0  0  0  0  0  0  0
   -6.2864   11.9154   20.2994 H   0  0  0  0  0  0  0  0  0  0  0  0
   -8.9282   11.9794   20.7183 H   0  0  0  0  0  0  0  0  0  0  0  0
   -8.9409   12.1870   18.9125 H   0  0  0  0  0  0  0  0  0  0  0  0
   -8.9780    7.7044   18.4377 H   0  0  0  0  0  0  0  0  0  0  0  0
   -7.8480    7.3979   20.6186 H   0  0  0  0  0  0  0  0  0  0  0  0
   -5.5931    7.3321   20.6610 H   0  0  0  0  0  0  0  0  0  0  0  0
   -5.2935   10.0074   17.7512 H   0  0  0  0  0  0  0  0  0  0  0  0
   -3.2916   10.5613   23.3539 H   0  0  0  0  0  0  0  0  0  0  0  0
   -1.3129   12.0762   24.2978 H   0  0  0  0  0  0  0  0  0  0  0  0
   -5.0110    7.4750   17.9920 H   0  0  0  0  0  0  0  0  0  0  0  0
   -5.1474    5.2571   17.8641 H   0  0  0  0  0  0  0  0  0  0  0  0
   -5.9011    5.2669   19.4559 H   0  0  0  0  0  0  0  0  0  0  0  0
   -7.2671    4.4129   17.2571 H   0  0  0  0  0  0  0  0  0  0  0  0
   -8.1297    5.2859   18.5127 H   0  0  0  0  0  0  0  0  0  0  0  0
   -6.9026    6.3739   15.9056 H   0  0  0  0  0  0  0  0  0  0  0  0
   -8.5502    6.6101   16.4714 H   0  0  0  0  0  0  0  0  0  0  0  0
   -6.8064    8.5592   16.8738 H   0  0  0  0  0  0  0  0  0  0  0  0
  1  2  1  0
  2  3  1  0
  2  4  1  0
  2  5  1  0
  5  6  1  0
  6  7  1  0
  7  8  1  0
  8  9  1  0
  9 10  2  0
  9 11  1  0
 11 12  1  0
 12 13  1  0
 13 14  2  0
 12 15  1  0
 15 16  1  0
 16 17  2  0
 17 18  1  0
 18 19  1  0
 19 20  1  0
 20 21  2  0
 21 22  1  0
 22 23  2  0
 23 24  1  0
 23 25  1  0
 19 26  2  0
 15 27  1  0
 27 28  1  0
 28 29  1  0
 29 30  1  0
 30 31  1  0
 13  8  1  0
 26 16  1  0
 31 27  1  0
 31 11  1  0
 25 20  1  0
  1 32  1  0
  1 33  1  0
  1 34  1  0
  3 35  1  0
  3 36  1  0
  3 37  1  0
  4 38  1  0
  4 39  1  0
  4 40  1  0
  5 41  1  0
  5 42  1  0
  6 43  1  0
  6 44  1  0
  7 45  1  0
  7 46  1  0
 11 47  1  1
 12 48  1  1
 15 49  1  1
 17 50  1  0
 21 51  1  0
 22 52  1  0
 27 53  1  6
 28 54  1  0
 28 55  1  0
 29 56  1  0
 29 57  1  0
 30 58  1  0
 30 59  1  0
 31 60  1  6
M  CHG  2   2   1  27   1
M  END
>  <meeko>  (9) 
{"is_sidechain": [false], "free_energy": -6.921, "intermolecular_energy": -8.847, "internal_energy": -1.137}

$$$$
