2cbv_ligand
     RDKit          3D

 26 27  0  0  0  0  0  0  0  0999 V2000
   -3.0580    8.7140    8.3860 O   0  0  0  0  0  0  0  0  0  0  0  0
   -2.5000    9.9150    8.9020 C   0  0  2  0  0  0  0  0  0  0  0  0
   -1.4360   10.4550    7.9270 C   0  0  1  0  0  0  0  0  0  0  0  0
   -2.0480   10.9450    6.7300 O   0  0  0  0  0  0  0  0  0  0  0  0
   -0.5630   11.5460    8.5670 C   0  0  2  0  0  0  0  0  0  0  0  0
    0.6010   11.7770    7.7670 O   0  0  0  0  0  0  0  0  0  0  0  0
   -0.1300   11.1470   10.0100 C   0  0  2  0  0  0  0  0  0  0  0  0
    0.6810   12.1350   10.5780 O   0  0  0  0  0  0  0  0  0  0  0  0
    0.5290    9.7640   10.0890 C   0  0  0  0  0  0  0  0  0  0  0  0
   -0.6360    8.7800   10.2730 C   0  0  0  0  0  0  0  0  0  0  0  0
   -1.8960    9.6520   10.3040 C   0  0  1  0  0  0  0  0  0  0  0  0
   -1.3500   10.9440   10.8230 N   0  0  0  0  0  0  0  0  0  0  0  0
   -2.4360    8.3400    7.7280 H   0  0  0  0  0  0  0  0  0  0  0  0
   -3.2877   10.6758    9.0059 H   0  0  0  0  0  0  0  0  0  0  0  0
   -0.7759    9.6129    7.6719 H   0  0  0  0  0  0  0  0  0  0  0  0
   -1.4690   11.5800    6.2690 H   0  0  0  0  0  0  0  0  0  0  0  0
   -1.1619   12.4670    8.6237 H   0  0  0  0  0  0  0  0  0  0  0  0
    0.8100   10.9420    7.2950 H   0  0  0  0  0  0  0  0  0  0  0  0
    0.6500   11.9890   11.5480 H   0  0  0  0  0  0  0  0  0  0  0  0
    1.0786    9.5438    9.1619 H   0  0  0  0  0  0  0  0  0  0  0  0
    1.2585    9.6996   10.9098 H   0  0  0  0  0  0  0  0  0  0  0  0
   -0.6782    8.0706    9.4334 H   0  0  0  0  0  0  0  0  0  0  0  0
   -0.5277    8.1806   11.1890 H   0  0  0  0  0  0  0  0  0  0  0  0
   -2.7013    9.1826   10.8881 H   0  0  0  0  0  0  0  0  0  0  0  0
   -1.0430   10.8690   11.8020 H   0  0  0  0  0  0  0  0  0  0  0  0
   -1.9840   11.7510   10.7920 H   0  0  0  0  0  0  0  0  0  0  0  0
  1  2  1  0
  2  3  1  0
  3  4  1  0
  3  5  1  0
  5  6  1  0
  5  7  1  0
  7  8  1  1
  7  9  1  0
  9 10  1  0
 10 11  1  0
 11 12  1  0
 11  2  1  0
 12  7  1  0
  1 13  1  0
  2 14  1  1
  3 15  1  6
  4 16  1  0
  5 17  1  1
  6 18  1  0
  8 19  1  0
  9 20  1  0
  9 21  1  0
 10 22  1  0
 10 23  1  0
 11 24  1  1
 12 25  1  0
 12 26  1  0
M  CHG  1  12   1
M  END
>  <meeko>  (1) 
{"is_sidechain": [false], "free_energy": -6.949, "intermolecular_energy": -7.762, "internal_energy": 0.0}

$$$$
2cbv_ligand
     RDKit          3D

 26 27  0  0  0  0  0  0  0  0999 V2000
   -0.2190    9.0190   11.5520 O   0  0  0  0  0  0  0  0  0  0  0  0
   -0.0600    9.3820   10.1870 C   0  0  2  0  0  0  0  0  0  0  0  0
   -0.0120   10.9170   10.0600 C   0  0  1  0  0  0  0  0  0  0  0  0
    1.2040   11.4330   10.6110 O   0  0  0  0  0  0  0  0  0  0  0  0
   -0.1810   11.3830    8.6050 C   0  0  2  0  0  0  0  0  0  0  0  0
   -0.4650   12.7860    8.5670 O   0  0  0  0  0  0  0  0  0  0  0  0
   -1.3260   10.6030    7.8920 C   0  0  2  0  0  0  0  0  0  0  0  0
   -1.4880   11.0470    6.5750 O   0  0  0  0  0  0  0  0  0  0  0  0
   -2.6540   10.6280    8.6620 C   0  0  0  0  0  0  0  0  0  0  0  0
   -2.5760    9.4360    9.6260 C   0  0  0  0  0  0  0  0  0  0  0  0
   -1.2170    8.7830    9.3480 C   0  0  1  0  0  0  0  0  0  0  0  0
   -0.9940    9.1610    7.9180 N   0  0  0  0  0  0  0  0  0  0  0  0
   -0.8070    9.6750   11.9810 H   0  0  0  0  0  0  0  0  0  0  0  0
    0.8872    8.9765    9.8017 H   0  0  0  0  0  0  0  0  0  0  0  0
   -0.8613   11.3155   10.6344 H   0  0  0  0  0  0  0  0  0  0  0  0
    1.1050   11.6370   11.5590 H   0  0  0  0  0  0  0  0  0  0  0  0
    0.7618   11.1814    8.0754 H   0  0  0  0  0  0  0  0  0  0  0  0
   -1.2830   12.9380    9.0870 H   0  0  0  0  0  0  0  0  0  0  0  0
   -0.6400   11.4740    6.3260 H   0  0  0  0  0  0  0  0  0  0  0  0
   -2.7600   11.5702    9.2198 H   0  0  0  0  0  0  0  0  0  0  0  0
   -3.5226   10.5605    7.9905 H   0  0  0  0  0  0  0  0  0  0  0  0
   -2.6328    9.7794   10.6695 H   0  0  0  0  0  0  0  0  0  0  0  0
   -3.4084    8.7323    9.4781 H   0  0  0  0  0  0  0  0  0  0  0  0
   -1.2264    7.7085    9.5833 H   0  0  0  0  0  0  0  0  0  0  0  0
   -1.6580    8.6930    7.2870 H   0  0  0  0  0  0  0  0  0  0  0  0
   -0.0620    8.9640    7.5350 H   0  0  0  0  0  0  0  0  0  0  0  0
  1  2  1  0
  2  3  1  0
  3  4  1  0
  3  5  1  0
  5  6  1  0
  5  7  1  0
  7  8  1  6
  7  9  1  0
  9 10  1  0
 10 11  1  0
 11 12  1  0
 11  2  1  0
 12  7  1  0
  1 13  1  0
  2 14  1  6
  3 15  1  1
  4 16  1  0
  5 17  1  6
  6 18  1  0
  8 19  1  0
  9 20  1  0
  9 21  1  0
 10 22  1  0
 10 23  1  0
 11 24  1  6
 12 25  1  0
 12 26  1  0
M  CHG  1  12   1
M  END
>  <meeko>  (2) 
{"is_sidechain": [false], "free_energy": -6.52, "intermolecular_energy": -7.282, "internal_energy": 0.0}

$$$$
2cbv_ligand
     RDKit          3D

 26 27  0  0  0  0  0  0  0  0999 V2000
   -3.2050    8.6640   10.4140 O   0  0  0  0  0  0  0  0  0  0  0  0
   -2.4940    9.8370   10.0420 C   0  0  2  0  0  0  0  0  0  0  0  0
   -2.2780    9.8530    8.5170 C   0  0  1  0  0  0  0  0  0  0  0  0
   -3.5160   10.0700    7.8320 O   0  0  0  0  0  0  0  0  0  0  0  0
   -1.2380   10.9010    8.0900 C   0  0  2  0  0  0  0  0  0  0  0  0
   -0.8230   10.6620    6.7410 O   0  0  0  0  0  0  0  0  0  0  0  0
    0.0060   10.8760    9.0280 C   0  0  2  0  0  0  0  0  0  0  0  0
    0.9570   11.8190    8.6200 O   0  0  0  0  0  0  0  0  0  0  0  0
    0.6260    9.4810    9.1820 C   0  0  0  0  0  0  0  0  0  0  0  0
   -0.1390    8.8330   10.3440 C   0  0  0  0  0  0  0  0  0  0  0  0
   -1.1460    9.8940   10.8030 C   0  0  1  0  0  0  0  0  0  0  0  0
   -0.4460   11.1560   10.4090 N   0  0  0  0  0  0  0  0  0  0  0  0
   -3.2590    8.6300   11.3920 H   0  0  0  0  0  0  0  0  0  0  0  0
   -3.0784   10.7285   10.3135 H   0  0  0  0  0  0  0  0  0  0  0  0
   -1.8838    8.8651    8.2365 H   0  0  0  0  0  0  0  0  0  0  0  0
   -4.2770    9.9310    8.4250 H   0  0  0  0  0  0  0  0  0  0  0  0
   -1.7097   11.8921    8.1617 H   0  0  0  0  0  0  0  0  0  0  0  0
   -1.5510   10.9500    6.1500 H   0  0  0  0  0  0  0  0  0  0  0  0
    1.3950   11.4390    7.8290 H   0  0  0  0  0  0  0  0  0  0  0  0
    0.4961    8.8961    8.2595 H   0  0  0  0  0  0  0  0  0  0  0  0
    1.7079    9.5285    9.3748 H   0  0  0  0  0  0  0  0  0  0  0  0
   -0.6615    7.9266   10.0041 H   0  0  0  0  0  0  0  0  0  0  0  0
    0.5335    8.5248   11.1581 H   0  0  0  0  0  0  0  0  0  0  0  0
   -1.4028    9.7782   11.8663 H   0  0  0  0  0  0  0  0  0  0  0  0
    0.4010   11.3200   10.9700 H   0  0  0  0  0  0  0  0  0  0  0  0
   -0.9940   12.0210   10.4780 H   0  0  0  0  0  0  0  0  0  0  0  0
  1  2  1  0
  2  3  1  0
  3  4  1  0
  3  5  1  0
  5  6  1  0
  5  7  1  0
  7  8  1  6
  7  9  1  0
  9 10  1  0
 10 11  1  0
 11 12  1  0
 11  2  1  0
 12  7  1  0
  1 13  1  0
  2 14  1  1
  3 15  1  6
  4 16  1  0
  5 17  1  6
  6 18  1  0
  8 19  1  0
  9 20  1  0
  9 21  1  0
 10 22  1  0
 10 23  1  0
 11 24  1  1
 12 25  1  0
 12 26  1  0
M  CHG  1  12   1
M  END
>  <meeko>  (3) 
{"is_sidechain": [false], "free_energy": -6.11, "intermolecular_energy": -6.825, "internal_energy": 0.0}

$$$$
2cbv_ligand
     RDKit          3D

 26 27  0  0  0  0  0  0  0  0999 V2000
    1.3590   11.1730   10.4380 O   0  0  0  0  0  0  0  0  0  0  0  0
    0.4870   10.5230    9.5240 C   0  0  2  0  0  0  0  0  0  0  0  0
   -0.7890   11.3650    9.3320 C   0  0  1  0  0  0  0  0  0  0  0  0
   -0.4990   12.5650    8.6090 O   0  0  0  0  0  0  0  0  0  0  0  0
   -1.9060   10.5740    8.6330 C   0  0  2  0  0  0  0  0  0  0  0  0
   -3.1550   11.2580    8.7730 O   0  0  0  0  0  0  0  0  0  0  0  0
   -2.0320    9.1370    9.2210 C   0  0  2  0  0  0  0  0  0  0  0  0
   -3.0640    8.4300    8.5940 O   0  0  0  0  0  0  0  0  0  0  0  0
   -2.1800    9.1130   10.7480 C   0  0  0  0  0  0  0  0  0  0  0  0
   -0.7420    9.0990   11.2860 C   0  0  0  0  0  0  0  0  0  0  0  0
    0.1520    9.1010   10.0410 C   0  0  1  0  0  0  0  0  0  0  0  0
   -0.7390    8.4420    9.0360 N   0  0  0  0  0  0  0  0  0  0  0  0
    2.2400   11.2610   10.0180 H   0  0  0  0  0  0  0  0  0  0  0  0
    0.9809   10.4239    8.5461 H   0  0  0  0  0  0  0  0  0  0  0  0
   -1.1539   11.6319   10.3348 H   0  0  0  0  0  0  0  0  0  0  0  0
   -0.5770   12.4270    7.6470 H   0  0  0  0  0  0  0  0  0  0  0  0
   -1.6459   10.4935    7.5672 H   0  0  0  0  0  0  0  0  0  0  0  0
   -3.0010   12.2060    8.5720 H   0  0  0  0  0  0  0  0  0  0  0  0
   -2.7150    8.1580    7.7180 H   0  0  0  0  0  0  0  0  0  0  0  0
   -2.7154   10.0076   11.0987 H   0  0  0  0  0  0  0  0  0  0  0  0
   -2.7591    8.2440   11.0936 H   0  0  0  0  0  0  0  0  0  0  0  0
   -0.5509    9.9917   11.8997 H   0  0  0  0  0  0  0  0  0  0  0  0
   -0.5514    8.2264   11.9280 H   0  0  0  0  0  0  0  0  0  0  0  0
    1.1226    8.6213   10.2357 H   0  0  0  0  0  0  0  0  0  0  0  0
   -0.9010    7.4500    9.2560 H   0  0  0  0  0  0  0  0  0  0  0  0
   -0.4160    8.4600    8.0610 H   0  0  0  0  0  0  0  0  0  0  0  0
  1  2  1  0
  2  3  1  0
  3  4  1  0
  3  5  1  0
  5  6  1  0
  5  7  1  0
  7  8  1  6
  7  9  1  0
  9 10  1  0
 10 11  1  0
 11 12  1  0
 11  2  1  0
 12  7  1  0
  1 13  1  0
  2 14  1  6
  3 15  1  1
  4 16  1  0
  5 17  1  6
  6 18  1  0
  8 19  1  0
  9 20  1  0
  9 21  1  0
 10 22  1  0
 10 23  1  0
 11 24  1  1
 12 25  1  0
 12 26  1  0
M  CHG  1  12   1
M  END
>  <meeko>  (4) 
{"is_sidechain": [false], "free_energy": -5.944, "intermolecular_energy": -6.639, "internal_energy": 0.0}

$$$$
2cbv_ligand
     RDKit          3D

 26 27  0  0  0  0  0  0  0  0999 V2000
    1.3240   11.6140   10.2270 O   0  0  0  0  0  0  0  0  0  0  0  0
   -0.0530   11.2730   10.1510 C   0  0  2  0  0  0  0  0  0  0  0  0
   -0.2020    9.7520    9.9520 C   0  0  1  0  0  0  0  0  0  0  0  0
    0.1760    9.0470   11.1380 O   0  0  0  0  0  0  0  0  0  0  0  0
   -1.6270    9.3600    9.5270 C   0  0  2  0  0  0  0  0  0  0  0  0
   -1.6410    8.0170    9.0340 O   0  0  0  0  0  0  0  0  0  0  0  0
   -2.1720   10.3220    8.4280 C   0  0  2  0  0  0  0  0  0  0  0  0
   -3.4600    9.9460    8.0320 O   0  0  0  0  0  0  0  0  0  0  0  0
   -1.2330   10.4680    7.2240 C   0  0  0  0  0  0  0  0  0  0  0  0
   -0.2750   11.6060    7.6040 C   0  0  0  0  0  0  0  0  0  0  0  0
   -0.7240   12.0600    8.9980 C   0  0  1  0  0  0  0  0  0  0  0  0
   -2.1760   11.6970    8.9730 N   0  0  0  0  0  0  0  0  0  0  0  0
    1.4530   12.4840    9.7930 H   0  0  0  0  0  0  0  0  0  0  0  0
   -0.5562   11.5464   11.0901 H   0  0  0  0  0  0  0  0  0  0  0  0
    0.4761    9.4653    9.1347 H   0  0  0  0  0  0  0  0  0  0  0  0
   -0.5380    9.0600   11.8010 H   0  0  0  0  0  0  0  0  0  0  0  0
   -2.2761    9.4363   10.4118 H   0  0  0  0  0  0  0  0  0  0  0  0
   -2.3350    7.9600    8.3420 H   0  0  0  0  0  0  0  0  0  0  0  0
   -3.8620    9.4940    8.8040 H   0  0  0  0  0  0  0  0  0  0  0  0
   -0.6763    9.5349    7.0523 H   0  0  0  0  0  0  0  0  0  0  0  0
   -1.7819   10.6823    6.2951 H   0  0  0  0  0  0  0  0  0  0  0  0
    0.7631   11.2433    7.6321 H   0  0  0  0  0  0  0  0  0  0  0  0
   -0.3036   12.4287    6.8744 H   0  0  0  0  0  0  0  0  0  0  0  0
   -0.4778   13.1163    9.1811 H   0  0  0  0  0  0  0  0  0  0  0  0
   -2.7080   12.2770    8.3100 H   0  0  0  0  0  0  0  0  0  0  0  0
   -2.6770   11.7680    9.8660 H   0  0  0  0  0  0  0  0  0  0  0  0
  1  2  1  0
  2  3  1  0
  3  4  1  0
  3  5  1  0
  5  6  1  0
  5  7  1  0
  7  8  1  6
  7  9  1  0
  9 10  1  0
 10 11  1  0
 11 12  1  0
 11  2  1  0
 12  7  1  0
  1 13  1  0
  2 14  1  1
  3 15  1  6
  4 16  1  0
  5 17  1  1
  6 18  1  0
  8 19  1  0
  9 20  1  0
  9 21  1  0
 10 22  1  0
 10 23  1  0
 11 24  1  1
 12 25  1  0
 12 26  1  0
M  CHG  1  12   1
M  END
>  <meeko>  (5) 
{"is_sidechain": [false], "free_energy": -5.352, "intermolecular_energy": -5.978, "internal_energy": 0.0}

$$$$
2cbv_ligand
     RDKit          3D

 26 27  0  0  0  0  0  0  0  0999 V2000
   -2.0630    7.9080   10.2240 O   0  0  0  0  0  0  0  0  0  0  0  0
   -1.1640    8.6190    9.3840 C   0  0  2  0  0  0  0  0  0  0  0  0
   -0.2350    9.4990   10.2430 C   0  0  1  0  0  0  0  0  0  0  0  0
    0.6830    8.6920   10.9860 O   0  0  0  0  0  0  0  0  0  0  0  0
    0.5230   10.5370    9.4010 C   0  0  2  0  0  0  0  0  0  0  0  0
    1.1020   11.5330   10.2500 O   0  0  0  0  0  0  0  0  0  0  0  0
   -0.4200   11.2210    8.3660 C   0  0  2  0  0  0  0  0  0  0  0  0
    0.2730   12.1790    7.6170 O   0  0  0  0  0  0  0  0  0  0  0  0
   -1.6910   11.8090    8.9930 C   0  0  0  0  0  0  0  0  0  0  0  0
   -2.7010   10.6530    9.0010 C   0  0  0  0  0  0  0  0  0  0  0  0
   -1.9610    9.4700    8.3640 C   0  0  1  0  0  0  0  0  0  0  0  0
   -0.9800   10.1750    7.4820 N   0  0  0  0  0  0  0  0  0  0  0  0
   -1.5650    7.2000   10.6830 H   0  0  0  0  0  0  0  0  0  0  0  0
   -0.5400    7.9083    8.8223 H   0  0  0  0  0  0  0  0  0  0  0  0
   -0.8747   10.0513   10.9471 H   0  0  0  0  0  0  0  0  0  0  0  0
    0.2180    8.1280   11.6310 H   0  0  0  0  0  0  0  0  0  0  0  0
    1.3187   10.0102    8.8539 H   0  0  0  0  0  0  0  0  0  0  0  0
    0.7640   11.3820   11.1590 H   0  0  0  0  0  0  0  0  0  0  0  0
    1.1360   11.7720    7.3860 H   0  0  0  0  0  0  0  0  0  0  0  0
   -1.4919   12.1556   10.0178 H   0  0  0  0  0  0  0  0  0  0  0  0
   -2.0635   12.6795    8.4331 H   0  0  0  0  0  0  0  0  0  0  0  0
   -3.0021   10.4106   10.0309 H   0  0  0  0  0  0  0  0  0  0  0  0
   -3.6209   10.9062    8.4536 H   0  0  0  0  0  0  0  0  0  0  0  0
   -2.6552    8.7704    7.8755 H   0  0  0  0  0  0  0  0  0  0  0  0
   -1.4420   10.6620    6.7020 H   0  0  0  0  0  0  0  0  0  0  0  0
   -0.2530    9.5900    7.0520 H   0  0  0  0  0  0  0  0  0  0  0  0
  1  2  1  0
  2  3  1  0
  3  4  1  0
  3  5  1  0
  5  6  1  0
  5  7  1  0
  7  8  1  6
  7  9  1  0
  9 10  1  0
 10 11  1  0
 11 12  1  0
 11  2  1  0
 12  7  1  0
  1 13  1  0
  2 14  1  6
  3 15  1  1
  4 16  1  0
  5 17  1  6
  6 18  1  0
  8 19  1  0
  9 20  1  0
  9 21  1  0
 10 22  1  0
 10 23  1  0
 11 24  1  6
 12 25  1  0
 12 26  1  0
M  CHG  1  12   1
M  END
>  <meeko>  (6) 
{"is_sidechain": [false], "free_energy": -5.218, "intermolecular_energy": -5.828, "internal_energy": 0.0}

$$$$
2cbv_ligand
     RDKit          3D

 26 27  0  0  0  0  0  0  0  0999 V2000
   -1.2300   11.0660    6.8310 O   0  0  0  0  0  0  0  0  0  0  0  0
   -1.1990   11.1190    8.2510 C   0  0  2  0  0  0  0  0  0  0  0  0
    0.0260   10.3430    8.7740 C   0  0  1  0  0  0  0  0  0  0  0  0
    1.2370   11.0370    8.4600 O   0  0  0  0  0  0  0  0  0  0  0  0
   -0.0610   10.0730   10.2850 C   0  0  2  0  0  0  0  0  0  0  0  0
    0.9000    9.0830   10.6640 O   0  0  0  0  0  0  0  0  0  0  0  0
   -1.4870    9.5940   10.6910 C   0  0  2  0  0  0  0  0  0  0  0  0
   -1.5530    9.3310   12.0640 O   0  0  0  0  0  0  0  0  0  0  0  0
   -1.9900    8.4030    9.8640 C   0  0  0  0  0  0  0  0  0  0  0  0
   -2.6590    9.0290    8.6320 C   0  0  0  0  0  0  0  0  0  0  0  0
   -2.5180   10.5430    8.8250 C   0  0  1  0  0  0  0  0  0  0  0  0
   -2.4570   10.6480   10.3160 N   0  0  0  0  0  0  0  0  0  0  0  0
   -0.4070   10.6340    6.5190 H   0  0  0  0  0  0  0  0  0  0  0  0
   -1.1092   12.1640    8.5824 H   0  0  0  0  0  0  0  0  0  0  0  0
    0.0317    9.3678    8.2652 H   0  0  0  0  0  0  0  0  0  0  0  0
    1.4840   11.6580    9.1700 H   0  0  0  0  0  0  0  0  0  0  0  0
    0.1531   11.0163   10.8088 H   0  0  0  0  0  0  0  0  0  0  0  0
    1.3540    9.4020   11.4730 H   0  0  0  0  0  0  0  0  0  0  0  0
   -0.6250    9.2370   12.3670 H   0  0  0  0  0  0  0  0  0  0  0  0
   -1.1504    7.7593    9.5628 H   0  0  0  0  0  0  0  0  0  0  0  0
   -2.6847    7.7684   10.4337 H   0  0  0  0  0  0  0  0  0  0  0  0
   -2.1495    8.7082    7.7114 H   0  0  0  0  0  0  0  0  0  0  0  0
   -3.7110    8.7228    8.5349 H   0  0  0  0  0  0  0  0  0  0  0  0
   -3.3253   11.0938    8.3201 H   0  0  0  0  0  0  0  0  0  0  0  0
   -3.3520   10.3960   10.7580 H   0  0  0  0  0  0  0  0  0  0  0  0
   -2.2080   11.5680   10.6980 H   0  0  0  0  0  0  0  0  0  0  0  0
  1  2  1  0
  2  3  1  0
  3  4  1  0
  3  5  1  0
  5  6  1  0
  5  7  1  0
  7  8  1  1
  7  9  1  0
  9 10  1  0
 10 11  1  0
 11 12  1  0
 11  2  1  0
 12  7  1  0
  1 13  1  0
  2 14  1  6
  3 15  1  6
  4 16  1  0
  5 17  1  1
  6 18  1  0
  8 19  1  0
  9 20  1  0
  9 21  1  0
 10 22  1  0
 10 23  1  0
 11 24  1  6
 12 25  1  0
 12 26  1  0
M  CHG  1  12   1
M  END
>  <meeko>  (7) 
{"is_sidechain": [false], "free_energy": -5.189, "intermolecular_energy": -5.796, "internal_energy": 0.0}

$$$$
2cbv_ligand
     RDKit          3D

 26 27  0  0  0  0  0  0  0  0999 V2000
   -2.9660   11.1190    8.8260 O   0  0  0  0  0  0  0  0  0  0  0  0
   -1.6830   10.7090    9.2810 C   0  0  2  0  0  0  0  0  0  0  0  0
   -1.1050    9.6500    8.3230 C   0  0  1  0  0  0  0  0  0  0  0  0
   -0.7610   10.2380    7.0650 O   0  0  0  0  0  0  0  0  0  0  0  0
    0.1080    8.9250    8.9250 C   0  0  2  0  0  0  0  0  0  0  0  0
    0.4020    7.7450    8.1700 O   0  0  0  0  0  0  0  0  0  0  0  0
   -0.1470    8.5370   10.4130 C   0  0  2  0  0  0  0  0  0  0  0  0
    0.9540    7.8590   10.9480 O   0  0  0  0  0  0  0  0  0  0  0  0
   -1.4490    7.7530   10.6250 C   0  0  0  0  0  0  0  0  0  0  0  0
   -2.5300    8.8240   10.8210 C   0  0  0  0  0  0  0  0  0  0  0  0
   -1.7900   10.1640   10.7270 C   0  0  1  0  0  0  0  0  0  0  0  0
   -0.4170    9.7760   11.1770 N   0  0  0  0  0  0  0  0  0  0  0  0
   -3.6070   10.9990    9.5580 H   0  0  0  0  0  0  0  0  0  0  0  0
   -0.9989   11.5704    9.2906 H   0  0  0  0  0  0  0  0  0  0  0  0
   -1.8913    8.8979    8.1616 H   0  0  0  0  0  0  0  0  0  0  0  0
   -1.5160   10.2220    6.4480 H   0  0  0  0  0  0  0  0  0  0  0  0
    0.9647    9.6138    8.8846 H   0  0  0  0  0  0  0  0  0  0  0  0
    1.2710    7.4050    8.4740 H   0  0  0  0  0  0  0  0  0  0  0  0
    0.7540    7.7240   11.8990 H   0  0  0  0  0  0  0  0  0  0  0  0
   -1.6744    7.1327    9.7450 H   0  0  0  0  0  0  0  0  0  0  0  0
   -1.3843    7.0692   11.4842 H   0  0  0  0  0  0  0  0  0  0  0  0
   -3.2943    8.7493   10.0334 H   0  0  0  0  0  0  0  0  0  0  0  0
   -3.0527    8.7095   11.7821 H   0  0  0  0  0  0  0  0  0  0  0  0
   -2.2983   10.9514   11.3029 H   0  0  0  0  0  0  0  0  0  0  0  0
   -0.3960    9.5190   12.1740 H   0  0  0  0  0  0  0  0  0  0  0  0
    0.3180   10.4820   11.0570 H   0  0  0  0  0  0  0  0  0  0  0  0
  1  2  1  0
  2  3  1  0
  3  4  1  0
  3  5  1  0
  5  6  1  0
  5  7  1  0
  7  8  1  1
  7  9  1  0
  9 10  1  0
 10 11  1  0
 11 12  1  0
 11  2  1  0
 12  7  1  0
  1 13  1  0
  2 14  1  1
  3 15  1  6
  4 16  1  0
  5 17  1  1
  6 18  1  0
  8 19  1  0
  9 20  1  0
  9 21  1  0
 10 22  1  0
 10 23  1  0
 11 24  1  1
 12 25  1  0
 12 26  1  0
M  CHG  1  12   1
M  END
>  <meeko>  (8) 
{"is_sidechain": [false], "free_energy": -5.104, "intermolecular_energy": -5.701, "internal_energy": 0.0}

$$$$
2cbv_ligand
     RDKit          3D

 26 27  0  0  0  0  0  0  0  0999 V2000
   -0.6960   11.5760    7.2940 O   0  0  0  0  0  0  0  0  0  0  0  0
   -0.8950   10.2730    7.8250 C   0  0  2  0  0  0  0  0  0  0  0  0
   -2.3210   10.1570    8.3970 C   0  0  1  0  0  0  0  0  0  0  0  0
   -3.2910   10.1600    7.3440 O   0  0  0  0  0  0  0  0  0  0  0  0
   -2.4920    8.9090    9.2780 C   0  0  2  0  0  0  0  0  0  0  0  0
   -3.6950    9.0110   10.0470 O   0  0  0  0  0  0  0  0  0  0  0  0
   -1.2780    8.7260   10.2370 C   0  0  2  0  0  0  0  0  0  0  0  0
   -1.4510    7.6000   11.0510 O   0  0  0  0  0  0  0  0  0  0  0  0
   -0.9610    9.9770   11.0670 C   0  0  0  0  0  0  0  0  0  0  0  0
   -0.0140   10.8070   10.1880 C   0  0  0  0  0  0  0  0  0  0  0  0
    0.1720    9.9820    8.9100 C   0  0  1  0  0  0  0  0  0  0  0  0
   -0.0530    8.5920    9.4180 N   0  0  0  0  0  0  0  0  0  0  0  0
   -0.1550   12.0910    7.9290 H   0  0  0  0  0  0  0  0  0  0  0  0
   -0.7843    9.5247    7.0263 H   0  0  0  0  0  0  0  0  0  0  0  0
   -2.4848   11.0370    9.0363 H   0  0  0  0  0  0  0  0  0  0  0  0
   -3.0890    9.4810    6.6740 H   0  0  0  0  0  0  0  0  0  0  0  0
   -2.5493    8.0332    8.6149 H   0  0  0  0  0  0  0  0  0  0  0  0
   -4.2950    9.6330    9.5820 H   0  0  0  0  0  0  0  0  0  0  0  0
   -2.2140    7.8000   11.6340 H   0  0  0  0  0  0  0  0  0  0  0  0
   -1.8805   10.5404   11.2840 H   0  0  0  0  0  0  0  0  0  0  0  0
   -0.5096    9.7254   12.0380 H   0  0  0  0  0  0  0  0  0  0  0  0
   -0.4613   11.7845    9.9547 H   0  0  0  0  0  0  0  0  0  0  0  0
    0.9434   11.0089   10.6907 H   0  0  0  0  0  0  0  0  0  0  0  0
    1.1416   10.1864    8.4324 H   0  0  0  0  0  0  0  0  0  0  0  0
    0.6970    8.2880   10.0540 H   0  0  0  0  0  0  0  0  0  0  0  0
   -0.1300    7.8550    8.7080 H   0  0  0  0  0  0  0  0  0  0  0  0
  1  2  1  0
  2  3  1  0
  3  4  1  0
  3  5  1  0
  5  6  1  0
  5  7  1  0
  7  8  1  1
  7  9  1  0
  9 10  1  0
 10 11  1  0
 11 12  1  0
 11  2  1  0
 12  7  1  0
  1 13  1  0
  2 14  1  6
  3 15  1  1
  4 16  1  0
  5 17  1  6
  6 18  1  0
  8 19  1  0
  9 20  1  0
  9 21  1  0
 10 22  1  0
 10 23  1  0
 11 24  1  6
 12 25  1  0
 12 26  1  0
M  CHG  1  12   1
M  END
>  <meeko>  (9) 
{"is_sidechain": [false], "free_energy": -4.375, "intermolecular_energy": -4.887, "internal_energy": 0.0}

$$$$
