4ivb_ligand
     RDKit          3D

 42 45  0  0  0  0  0  0  0  0999 V2000
   10.8790   57.3750   -2.1910 C   0  0  0  0  0  0  0  0  0  0  0  0
    9.9870   56.6650   -1.1850 C   0  0  1  0  0  0  0  0  0  0  0  0
   10.7490   56.1090   -0.1240 O   0  0  0  0  0  0  0  0  0  0  0  0
    8.8970   57.5500   -0.6540 C   0  0  0  0  0  0  0  0  0  0  0  0
    8.9710   58.8660   -0.8210 N   0  0  0  0  0  0  0  0  0  0  0  0
    7.8000   59.3850   -0.3580 C   0  0  0  0  0  0  0  0  0  0  0  0
    7.3150   60.7040   -0.3170 C   0  0  0  0  0  0  0  0  0  0  0  0
    6.0750   61.0230    0.1610 N   0  0  0  0  0  0  0  0  0  0  0  0
    5.3440   59.9720    0.5690 C   0  0  0  0  0  0  0  0  0  0  0  0
    4.0680   59.9980    1.0550 N   0  0  0  0  0  0  0  0  0  0  0  0
    3.6520   58.7120    1.3290 C   0  0  0  0  0  0  0  0  0  0  0  0
    4.6840   57.8400    1.0230 C   0  0  0  0  0  0  0  0  0  0  0  0
    5.7490   58.6560    0.5660 C   0  0  0  0  0  0  0  0  0  0  0  0
    7.0060   58.3620    0.1170 C   0  0  0  0  0  0  0  0  0  0  0  0
    7.7210   57.2080    0.0260 N   0  0  0  0  0  0  0  0  0  0  0  0
    7.3290   55.9220    0.5970 C   0  0  2  0  0  0  0  0  0  0  0  0
    6.2340   55.1320   -0.1440 C   0  0  0  0  0  0  0  0  0  0  0  0
    6.0430   53.7440    0.4720 C   0  0  0  0  0  0  0  0  0  0  0  0
    5.7450   53.8330    1.9740 C   0  0  1  0  0  0  0  0  0  0  0  0
    5.5850   52.4840    2.5460 C   0  0  0  0  0  0  0  0  0  0  0  0
    5.4610   51.4200    2.9940 N   0  0  0  0  0  0  0  0  0  0  0  0
    6.8580   54.5930    2.7070 C   0  0  0  0  0  0  0  0  0  0  0  0
    7.0910   55.9840    2.1130 C   0  0  0  0  0  0  0  0  0  0  0  0
   11.6310   57.9736   -1.6560 H   0  0  0  0  0  0  0  0  0  0  0  0
   11.3850   56.6298   -2.8224 H   0  0  0  0  0  0  0  0  0  0  0  0
   10.2663   58.0353   -2.8224 H   0  0  0  0  0  0  0  0  0  0  0  0
    9.4963   55.8437   -1.7278 H   0  0  0  0  0  0  0  0  0  0  0  0
   11.0410   56.8590    0.4220 H   0  0  0  0  0  0  0  0  0  0  0  0
    7.9614   61.5141   -0.6855 H   0  0  0  0  0  0  0  0  0  0  0  0
    3.5250   60.8420    1.1660 H   0  0  0  0  0  0  0  0  0  0  0  0
    2.6660   58.4265    1.7243 H   0  0  0  0  0  0  0  0  0  0  0  0
    4.6782   56.7439    1.1153 H   0  0  0  0  0  0  0  0  0  0  0  0
    8.2262   55.3095    0.4242 H   0  0  0  0  0  0  0  0  0  0  0  0
    5.2861   55.6865   -0.0810 H   0  0  0  0  0  0  0  0  0  0  0  0
    6.5413   55.0092   -1.1930 H   0  0  0  0  0  0  0  0  0  0  0  0
    5.2027   53.2424   -0.0302 H   0  0  0  0  0  0  0  0  0  0  0  0
    6.9748   53.1750    0.3376 H   0  0  0  0  0  0  0  0  0  0  0  0
    4.8040   54.3873    2.1055 H   0  0  0  0  0  0  0  0  0  0  0  0
    6.5766   54.7014    3.7649 H   0  0  0  0  0  0  0  0  0  0  0  0
    7.7894   54.0177    2.5994 H   0  0  0  0  0  0  0  0  0  0  0  0
    6.2069   56.6083    2.3098 H   0  0  0  0  0  0  0  0  0  0  0  0
    7.9885   56.4118    2.5837 H   0  0  0  0  0  0  0  0  0  0  0  0
  1  2  1  0
  2  3  1  0
  2  4  1  0
  4  5  2  0
  5  6  1  0
  6  7  2  0
  7  8  1  0
  8  9  2  0
  9 10  1  0
 10 11  1  0
 11 12  2  0
 12 13  1  0
 13 14  2  0
 14 15  1  0
 15 16  1  0
 16 17  1  0
 17 18  1  0
 18 19  1  0
 19 20  1  0
 20 21  3  0
 19 22  1  0
 22 23  1  0
 15  4  1  0
 23 16  1  0
 14  6  1  0
 13  9  1  0
  1 24  1  0
  1 25  1  0
  1 26  1  0
  2 27  1  6
  3 28  1  0
  7 29  1  0
 10 30  1  0
 11 31  1  0
 12 32  1  0
 16 33  1  6
 17 34  1  0
 17 35  1  0
 18 36  1  0
 18 37  1  0
 19 38  1  1
 22 39  1  0
 22 40  1  0
 23 41  1  0
 23 42  1  0
M  END
>  <meeko>  (1) 
{"is_sidechain": [false], "free_energy": -9.629, "intermolecular_energy": -11.036, "internal_energy": -0.227}

$$$$
4ivb_ligand
     RDKit          3D

 42 45  0  0  0  0  0  0  0  0999 V2000
    3.6430   59.6060    1.7750 C   0  0  0  0  0  0  0  0  0  0  0  0
    4.2870   58.2350    1.6390 C   0  0  1  0  0  0  0  0  0  0  0  0
    3.3600   57.2760    1.1540 O   0  0  0  0  0  0  0  0  0  0  0  0
    5.5240   58.2620    0.7880 C   0  0  0  0  0  0  0  0  0  0  0  0
    5.8090   59.3390    0.0640 N   0  0  0  0  0  0  0  0  0  0  0  0
    7.0340   59.1230   -0.4910 C   0  0  0  0  0  0  0  0  0  0  0  0
    7.8400   59.9300   -1.3130 C   0  0  0  0  0  0  0  0  0  0  0  0
    9.0780   59.5430   -1.7450 N   0  0  0  0  0  0  0  0  0  0  0  0
    9.4750   58.3370   -1.3030 C   0  0  0  0  0  0  0  0  0  0  0  0
   10.6700   57.7250   -1.5490 N   0  0  0  0  0  0  0  0  0  0  0  0
   10.7130   56.5150   -0.8880 C   0  0  0  0  0  0  0  0  0  0  0  0
    9.5170   56.3390   -0.2100 C   0  0  0  0  0  0  0  0  0  0  0  0
    8.7420   57.4890   -0.5020 C   0  0  0  0  0  0  0  0  0  0  0  0
    7.4930   57.8800   -0.1110 C   0  0  0  0  0  0  0  0  0  0  0  0
    6.5110   57.2820    0.6190 N   0  0  0  0  0  0  0  0  0  0  0  0
    6.5080   55.8880    1.0510 C   0  0  2  0  0  0  0  0  0  0  0  0
    5.8130   54.8700    0.1280 C   0  0  0  0  0  0  0  0  0  0  0  0
    6.0280   53.4380    0.6240 C   0  0  0  0  0  0  0  0  0  0  0  0
    5.5690   53.2730    2.0790 C   0  0  1  0  0  0  0  0  0  0  0  0
    5.8040   51.8930    2.5380 C   0  0  0  0  0  0  0  0  0  0  0  0
    5.9920   50.8050    2.8970 N   0  0  0  0  0  0  0  0  0  0  0  0
    6.2910   54.2700    2.9940 C   0  0  0  0  0  0  0  0  0  0  0  0
    6.1120   55.7150    2.5250 C   0  0  0  0  0  0  0  0  0  0  0  0
    3.5272   59.8526    2.8407 H   0  0  0  0  0  0  0  0  0  0  0  0
    4.2809   60.3604    1.2913 H   0  0  0  0  0  0  0  0  0  0  0  0
    2.6551   59.5967    1.2913 H   0  0  0  0  0  0  0  0  0  0  0  0
    4.5992   57.9341    2.6500 H   0  0  0  0  0  0  0  0  0  0  0  0
    2.8890   57.7020    0.4170 H   0  0  0  0  0  0  0  0  0  0  0  0
    7.4584   60.9144   -1.6216 H   0  0  0  0  0  0  0  0  0  0  0  0
   11.4040   58.1280   -2.1140 H   0  0  0  0  0  0  0  0  0  0  0  0
   11.5556   55.8080   -0.8974 H   0  0  0  0  0  0  0  0  0  0  0  0
    9.2297   55.4858    0.4221 H   0  0  0  0  0  0  0  0  0  0  0  0
    7.5694   55.6156    0.9546 H   0  0  0  0  0  0  0  0  0  0  0  0
    4.7342   55.0839    0.1053 H   0  0  0  0  0  0  0  0  0  0  0  0
    6.2467   54.9592   -0.8789 H   0  0  0  0  0  0  0  0  0  0  0  0
    5.4535   52.7490   -0.0126 H   0  0  0  0  0  0  0  0  0  0  0  0
    7.1034   53.2125    0.5732 H   0  0  0  0  0  0  0  0  0  0  0  0
    4.4899   53.4811    2.1255 H   0  0  0  0  0  0  0  0  0  0  0  0
    5.8858   54.1747    4.0122 H   0  0  0  0  0  0  0  0  0  0  0  0
    7.3656   54.0362    2.9687 H   0  0  0  0  0  0  0  0  0  0  0  0
    5.0568   56.0009    2.6464 H   0  0  0  0  0  0  0  0  0  0  0  0
    6.7670   56.3561    3.1332 H   0  0  0  0  0  0  0  0  0  0  0  0
  1  2  1  0
  2  3  1  0
  2  4  1  0
  4  5  2  0
  5  6  1  0
  6  7  2  0
  7  8  1  0
  8  9  2  0
  9 10  1  0
 10 11  1  0
 11 12  2  0
 12 13  1  0
 13 14  2  0
 14 15  1  0
 15 16  1  0
 16 17  1  0
 17 18  1  0
 18 19  1  0
 19 20  1  0
 20 21  3  0
 19 22  1  0
 22 23  1  0
 15  4  1  0
 23 16  1  0
 14  6  1  0
 13  9  1  0
  1 24  1  0
  1 25  1  0
  1 26  1  0
  2 27  1  1
  3 28  1  0
  7 29  1  0
 10 30  1  0
 11 31  1  0
 12 32  1  0
 16 33  1  6
 17 34  1  0
 17 35  1  0
 18 36  1  0
 18 37  1  0
 19 38  1  1
 22 39  1  0
 22 40  1  0
 23 41  1  0
 23 42  1  0
M  END
>  <meeko>  (2) 
{"is_sidechain": [false], "free_energy": -8.927, "intermolecular_energy": -9.949, "internal_energy": -0.51}

$$$$
4ivb_ligand
     RDKit          3D

 42 45  0  0  0  0  0  0  0  0999 V2000
    6.6500   55.5760    4.0050 C   0  0  0  0  0  0  0  0  0  0  0  0
    5.9090   55.4050    2.6880 C   0  0  1  0  0  0  0  0  0  0  0  0
    4.5030   55.4010    2.8850 O   0  0  0  0  0  0  0  0  0  0  0  0
    6.3030   56.4320    1.6660 C   0  0  0  0  0  0  0  0  0  0  0  0
    5.5420   57.5030    1.4750 N   0  0  0  0  0  0  0  0  0  0  0  0
    6.2080   58.3030    0.5960 C   0  0  0  0  0  0  0  0  0  0  0  0
    5.8970   59.5670    0.0650 C   0  0  0  0  0  0  0  0  0  0  0  0
    6.7280   60.2360   -0.7910 N   0  0  0  0  0  0  0  0  0  0  0  0
    7.8780   59.5980   -1.0680 C   0  0  0  0  0  0  0  0  0  0  0  0
    8.8970   60.0490   -1.8580 N   0  0  0  0  0  0  0  0  0  0  0  0
    9.9200   59.1240   -1.8630 C   0  0  0  0  0  0  0  0  0  0  0  0
    9.5500   58.0520   -1.0680 C   0  0  0  0  0  0  0  0  0  0  0  0
    8.2510   58.3610   -0.5930 C   0  0  0  0  0  0  0  0  0  0  0  0
    7.3900   57.6940    0.2330 C   0  0  0  0  0  0  0  0  0  0  0  0
    7.4220   56.4680    0.8250 N   0  0  0  0  0  0  0  0  0  0  0  0
    8.4040   55.4220    0.5520 C   0  0  2  0  0  0  0  0  0  0  0  0
    7.8910   53.9700    0.5270 C   0  0  0  0  0  0  0  0  0  0  0  0
    8.9890   53.0050    0.0720 C   0  0  0  0  0  0  0  0  0  0  0  0
   10.2460   53.1350    0.9420 C   0  0  1  0  0  0  0  0  0  0  0  0
   11.2930   52.2110    0.4720 C   0  0  0  0  0  0  0  0  0  0  0  0
   12.1160   51.4830    0.0980 N   0  0  0  0  0  0  0  0  0  0  0  0
   10.7660   54.5790    0.9330 C   0  0  0  0  0  0  0  0  0  0  0  0
    9.6940   55.5790    1.3700 C   0  0  0  0  0  0  0  0  0  0  0  0
    5.9535   55.4153    4.8411 H   0  0  0  0  0  0  0  0  0  0  0  0
    7.4682   54.8431    4.0632 H   0  0  0  0  0  0  0  0  0  0  0  0
    7.0643   56.5933    4.0632 H   0  0  0  0  0  0  0  0  0  0  0  0
    6.2063   54.4245    2.2876 H   0  0  0  0  0  0  0  0  0  0  0  0
    4.1100   55.6830    2.0410 H   0  0  0  0  0  0  0  0  0  0  0  0
    4.9447   60.0381    0.3501 H   0  0  0  0  0  0  0  0  0  0  0  0
    8.8870   60.9380   -2.3380 H   0  0  0  0  0  0  0  0  0  0  0  0
   10.8709   59.2214   -2.4074 H   0  0  0  0  0  0  0  0  0  0  0  0
   10.1406   57.1498   -0.8508 H   0  0  0  0  0  0  0  0  0  0  0  0
    8.6521   55.6085   -0.5033 H   0  0  0  0  0  0  0  0  0  0  0  0
    7.5613   53.6881    1.5378 H   0  0  0  0  0  0  0  0  0  0  0  0
    7.0542   53.9074   -0.1843 H   0  0  0  0  0  0  0  0  0  0  0  0
    8.6108   51.9744    0.1417 H   0  0  0  0  0  0  0  0  0  0  0  0
    9.2592   53.2530   -0.9650 H   0  0  0  0  0  0  0  0  0  0  0  0
    9.9793   52.8696    1.9757 H   0  0  0  0  0  0  0  0  0  0  0  0
   11.6212   54.6524    1.6210 H   0  0  0  0  0  0  0  0  0  0  0  0
   11.0606   54.8267   -0.0975 H   0  0  0  0  0  0  0  0  0  0  0  0
    9.4644   55.4138    2.4330 H   0  0  0  0  0  0  0  0  0  0  0  0
   10.0839   56.5941    1.2042 H   0  0  0  0  0  0  0  0  0  0  0  0
  1  2  1  0
  2  3  1  0
  2  4  1  0
  4  5  2  0
  5  6  1  0
  6  7  2  0
  7  8  1  0
  8  9  2  0
  9 10  1  0
 10 11  1  0
 11 12  2  0
 12 13  1  0
 13 14  2  0
 14 15  1  0
 15 16  1  0
 16 17  1  0
 17 18  1  0
 18 19  1  0
 19 20  1  0
 20 21  3  0
 19 22  1  0
 22 23  1  0
 15  4  1  0
 23 16  1  0
 14  6  1  0
 13  9  1  0
  1 24  1  0
  1 25  1  0
  1 26  1  0
  2 27  1  6
  3 28  1  0
  7 29  1  0
 10 30  1  0
 11 31  1  0
 12 32  1  0
 16 33  1  1
 17 34  1  0
 17 35  1  0
 18 36  1  0
 18 37  1  0
 19 38  1  6
 22 39  1  0
 22 40  1  0
 23 41  1  0
 23 42  1  0
M  END
>  <meeko>  (3) 
{"is_sidechain": [false], "free_energy": -8.281, "intermolecular_energy": -9.184, "internal_energy": -0.533}

$$$$
4ivb_ligand
     RDKit          3D

 42 45  0  0  0  0  0  0  0  0999 V2000
    4.4870   51.7350    1.7660 C   0  0  0  0  0  0  0  0  0  0  0  0
    5.4620   51.9580    2.9110 C   0  0  1  0  0  0  0  0  0  0  0  0
    5.3230   50.9570    3.9080 O   0  0  0  0  0  0  0  0  0  0  0  0
    6.8860   52.0560    2.4460 C   0  0  0  0  0  0  0  0  0  0  0  0
    7.7080   51.0240    2.6050 N   0  0  0  0  0  0  0  0  0  0  0  0
    8.8730   51.3540    1.9820 C   0  0  0  0  0  0  0  0  0  0  0  0
   10.0700   50.6380    1.8000 C   0  0  0  0  0  0  0  0  0  0  0  0
   11.1330   51.1370    1.1010 N   0  0  0  0  0  0  0  0  0  0  0  0
   10.9370   52.3590    0.5790 C   0  0  0  0  0  0  0  0  0  0  0  0
   11.8110   53.0750   -0.1890 N   0  0  0  0  0  0  0  0  0  0  0  0
   11.2270   54.2670   -0.5620 C   0  0  0  0  0  0  0  0  0  0  0  0
    9.9550   54.3260   -0.0170 C   0  0  0  0  0  0  0  0  0  0  0  0
    9.7990   53.1240    0.7160 C   0  0  0  0  0  0  0  0  0  0  0  0
    8.7620   52.6210    1.4500 C   0  0  0  0  0  0  0  0  0  0  0  0
    7.5480   53.1170    1.8160 N   0  0  0  0  0  0  0  0  0  0  0  0
    7.1050   54.4960    1.6270 C   0  0  2  0  0  0  0  0  0  0  0  0
    6.5490   55.2290    2.8620 C   0  0  0  0  0  0  0  0  0  0  0  0
    6.2790   56.7030    2.5530 C   0  0  0  0  0  0  0  0  0  0  0  0
    5.3440   56.8610    1.3460 C   0  0  1  0  0  0  0  0  0  0  0  0
    5.1160   58.2880    1.0580 C   0  0  0  0  0  0  0  0  0  0  0  0
    4.9380   59.4130    0.8330 N   0  0  0  0  0  0  0  0  0  0  0  0
    5.9230   56.1540    0.1130 C   0  0  0  0  0  0  0  0  0  0  0  0
    6.2210   54.6780    0.3830 C   0  0  0  0  0  0  0  0  0  0  0  0
    3.4905   51.5071    2.1721 H   0  0  0  0  0  0  0  0  0  0  0  0
    4.4323   52.6438    1.1487 H   0  0  0  0  0  0  0  0  0  0  0  0
    4.8328   50.8928    1.1487 H   0  0  0  0  0  0  0  0  0  0  0  0
    5.2033   52.9299    3.3566 H   0  0  0  0  0  0  0  0  0  0  0  0
    6.1130   50.3930    3.8390 H   0  0  0  0  0  0  0  0  0  0  0  0
   10.1541   49.6330    2.2393 H   0  0  0  0  0  0  0  0  0  0  0  0
   12.7310   52.7480   -0.4480 H   0  0  0  0  0  0  0  0  0  0  0  0
   11.6935   55.0419   -1.1880 H   0  0  0  0  0  0  0  0  0  0  0  0
    9.2199   55.1365   -0.1298 H   0  0  0  0  0  0  0  0  0  0  0  0
    8.0544   55.0205    1.4441 H   0  0  0  0  0  0  0  0  0  0  0  0
    5.6090   54.7489    3.1717 H   0  0  0  0  0  0  0  0  0  0  0  0
    7.2960   55.1722    3.6674 H   0  0  0  0  0  0  0  0  0  0  0  0
    5.8120   57.1729    3.4312 H   0  0  0  0  0  0  0  0  0  0  0  0
    7.2372   57.1873    2.3139 H   0  0  0  0  0  0  0  0  0  0  0  0
    4.3801   56.3918    1.5923 H   0  0  0  0  0  0  0  0  0  0  0  0
    5.1966   56.2244   -0.7100 H   0  0  0  0  0  0  0  0  0  0  0  0
    6.8703   56.6487   -0.1474 H   0  0  0  0  0  0  0  0  0  0  0  0
    5.2714   54.1452    0.5392 H   0  0  0  0  0  0  0  0  0  0  0  0
    6.7618   54.2726   -0.4848 H   0  0  0  0  0  0  0  0  0  0  0  0
  1  2  1  0
  2  3  1  0
  2  4  1  0
  4  5  2  0
  5  6  1  0
  6  7  2  0
  7  8  1  0
  8  9  2  0
  9 10  1  0
 10 11  1  0
 11 12  2  0
 12 13  1  0
 13 14  2  0
 14 15  1  0
 15 16  1  0
 16 17  1  0
 17 18  1  0
 18 19  1  0
 19 20  1  0
 20 21  3  0
 19 22  1  0
 22 23  1  0
 15  4  1  0
 23 16  1  0
 14  6  1  0
 13  9  1  0
  1 24  1  0
  1 25  1  0
  1 26  1  0
  2 27  1  1
  3 28  1  0
  7 29  1  0
 10 30  1  0
 11 31  1  0
 12 32  1  0
 16 33  1  1
 17 34  1  0
 17 35  1  0
 18 36  1  0
 18 37  1  0
 19 38  1  6
 22 39  1  0
 22 40  1  0
 23 41  1  0
 23 42  1  0
M  END
>  <meeko>  (4) 
{"is_sidechain": [false], "free_energy": -8.207, "intermolecular_energy": -8.853, "internal_energy": -0.781}

$$$$
4ivb_ligand
     RDKit          3D

 42 45  0  0  0  0  0  0  0  0999 V2000
    9.7990   57.3010   -1.5150 C   0  0  0  0  0  0  0  0  0  0  0  0
   10.2160   56.7300   -0.1690 C   0  0  1  0  0  0  0  0  0  0  0  0
    9.9520   57.6450    0.8830 O   0  0  0  0  0  0  0  0  0  0  0  0
    9.5870   55.3960    0.1120 C   0  0  0  0  0  0  0  0  0  0  0  0
   10.2870   54.2810   -0.0710 N   0  0  0  0  0  0  0  0  0  0  0  0
    9.5110   53.2560    0.3810 C   0  0  0  0  0  0  0  0  0  0  0  0
    9.7500   51.8730    0.4670 C   0  0  0  0  0  0  0  0  0  0  0  0
    8.8440   50.9960    0.9940 N   0  0  0  0  0  0  0  0  0  0  0  0
    7.7120   51.5630    1.4460 C   0  0  0  0  0  0  0  0  0  0  0  0
    6.6610   50.9320    2.0470 N   0  0  0  0  0  0  0  0  0  0  0  0
    5.7060   51.8620    2.4010 C   0  0  0  0  0  0  0  0  0  0  0  0
    6.1460   53.1170    2.0110 C   0  0  0  0  0  0  0  0  0  0  0  0
    7.4030   52.9040    1.3920 C   0  0  0  0  0  0  0  0  0  0  0  0
    8.3080   53.7590    0.8290 C   0  0  0  0  0  0  0  0  0  0  0  0
    8.3000   55.0970    0.5770 N   0  0  0  0  0  0  0  0  0  0  0  0
    7.1440   55.9780    0.7180 C   0  0  2  0  0  0  0  0  0  0  0  0
    6.8980   56.9960   -0.4110 C   0  0  0  0  0  0  0  0  0  0  0  0
    5.5720   57.7330   -0.2090 C   0  0  0  0  0  0  0  0  0  0  0  0
    5.5080   58.4050    1.1690 C   0  0  1  0  0  0  0  0  0  0  0  0
    4.2150   59.0910    1.3450 C   0  0  0  0  0  0  0  0  0  0  0  0
    3.1960   59.6290    1.4820 N   0  0  0  0  0  0  0  0  0  0  0  0
    5.7220   57.3760    2.2870 C   0  0  0  0  0  0  0  0  0  0  0  0
    7.0330   56.6060    2.1150 C   0  0  0  0  0  0  0  0  0  0  0  0
    9.1570   58.1802   -1.3573 H   0  0  0  0  0  0  0  0  0  0  0  0
   10.6945   57.5977   -2.0808 H   0  0  0  0  0  0  0  0  0  0  0  0
    9.2439   56.5383   -2.0808 H   0  0  0  0  0  0  0  0  0  0  0  0
   11.3026   56.5671   -0.2224 H   0  0  0  0  0  0  0  0  0  0  0  0
    9.0640   57.4280    1.2150 H   0  0  0  0  0  0  0  0  0  0  0  0
   10.7074   51.4801    0.0941 H   0  0  0  0  0  0  0  0  0  0  0  0
    6.6230   49.9370    2.2150 H   0  0  0  0  0  0  0  0  0  0  0  0
    4.7544   51.6441    2.9080 H   0  0  0  0  0  0  0  0  0  0  0  0
    5.6282   54.0771    2.1523 H   0  0  0  0  0  0  0  0  0  0  0  0
    6.3043   55.2777    0.5980 H   0  0  0  0  0  0  0  0  0  0  0  0
    7.7185   57.7285   -0.4193 H   0  0  0  0  0  0  0  0  0  0  0  0
    6.8542   56.4537   -1.3670 H   0  0  0  0  0  0  0  0  0  0  0  0
    5.4686   58.5031   -0.9876 H   0  0  0  0  0  0  0  0  0  0  0  0
    4.7552   56.9991   -0.2741 H   0  0  0  0  0  0  0  0  0  0  0  0
    6.3147   59.1506    1.2270 H   0  0  0  0  0  0  0  0  0  0  0  0
    5.7428   57.9010    3.2534 H   0  0  0  0  0  0  0  0  0  0  0  0
    4.8950   56.6519    2.2448 H   0  0  0  0  0  0  0  0  0  0  0  0
    7.8750   57.2983    2.2625 H   0  0  0  0  0  0  0  0  0  0  0  0
    7.0544   55.7952    2.8580 H   0  0  0  0  0  0  0  0  0  0  0  0
  1  2  1  0
  2  3  1  0
  2  4  1  0
  4  5  2  0
  5  6  1  0
  6  7  2  0
  7  8  1  0
  8  9  2  0
  9 10  1  0
 10 11  1  0
 11 12  2  0
 12 13  1  0
 13 14  2  0
 14 15  1  0
 15 16  1  0
 16 17  1  0
 17 18  1  0
 18 19  1  0
 19 20  1  0
 20 21  3  0
 19 22  1  0
 22 23  1  0
 15  4  1  0
 23 16  1  0
 14  6  1  0
 13  9  1  0
  1 24  1  0
  1 25  1  0
  1 26  1  0
  2 27  1  6
  3 28  1  0
  7 29  1  0
 10 30  1  0
 11 31  1  0
 12 32  1  0
 16 33  1  6
 17 34  1  0
 17 35  1  0
 18 36  1  0
 18 37  1  0
 19 38  1  1
 22 39  1  0
 22 40  1  0
 23 41  1  0
 23 42  1  0
M  END
>  <meeko>  (5) 
{"is_sidechain": [false], "free_energy": -8.08, "intermolecular_energy": -9.366, "internal_energy": -0.122}

$$$$
4ivb_ligand
     RDKit          3D

 42 45  0  0  0  0  0  0  0  0999 V2000
   11.2890   53.7690   -0.9490 C   0  0  0  0  0  0  0  0  0  0  0  0
   10.7120   54.1520    0.4050 C   0  0  1  0  0  0  0  0  0  0  0  0
   11.7360   54.3020    1.3770 O   0  0  0  0  0  0  0  0  0  0  0  0
    9.8520   55.3810    0.3390 C   0  0  0  0  0  0  0  0  0  0  0  0
   10.3960   56.5560    0.0450 N   0  0  0  0  0  0  0  0  0  0  0  0
    9.3690   57.4440   -0.0670 C   0  0  0  0  0  0  0  0  0  0  0  0
    9.3490   58.8110   -0.3950 C   0  0  0  0  0  0  0  0  0  0  0  0
    8.1920   59.5330   -0.4940 N   0  0  0  0  0  0  0  0  0  0  0  0
    7.0710   58.8260   -0.2740 C   0  0  0  0  0  0  0  0  0  0  0  0
    5.7850   59.2830   -0.3420 N   0  0  0  0  0  0  0  0  0  0  0  0
    4.9130   58.2460   -0.0890 C   0  0  0  0  0  0  0  0  0  0  0  0
    5.6500   57.0980    0.1560 C   0  0  0  0  0  0  0  0  0  0  0  0
    7.0080   57.4900    0.0550 C   0  0  0  0  0  0  0  0  0  0  0  0
    8.1780   56.7960    0.1840 C   0  0  0  0  0  0  0  0  0  0  0  0
    8.4720   55.5140    0.5370 N   0  0  0  0  0  0  0  0  0  0  0  0
    7.5190   54.5430    1.0680 C   0  0  2  0  0  0  0  0  0  0  0  0
    7.1480   54.6690    2.5580 C   0  0  0  0  0  0  0  0  0  0  0  0
    6.0280   53.6960    2.9310 C   0  0  0  0  0  0  0  0  0  0  0  0
    6.3960   52.2510    2.5700 C   0  0  1  0  0  0  0  0  0  0  0  0
    5.2940   51.3370    2.9210 C   0  0  0  0  0  0  0  0  0  0  0  0
    4.4240   50.6200    3.1980 N   0  0  0  0  0  0  0  0  0  0  0  0
    6.7320   52.1310    1.0770 C   0  0  0  0  0  0  0  0  0  0  0  0
    7.8410   53.0980    0.6590 C   0  0  0  0  0  0  0  0  0  0  0  0
   12.1974   53.1660   -0.8032 H   0  0  0  0  0  0  0  0  0  0  0  0
   10.5468   53.1837   -1.5116 H   0  0  0  0  0  0  0  0  0  0  0  0
   11.5402   54.6803   -1.5116 H   0  0  0  0  0  0  0  0  0  0  0  0
   10.0600   53.3215    0.7134 H   0  0  0  0  0  0  0  0  0  0  0  0
   11.3220   54.7400    2.1410 H   0  0  0  0  0  0  0  0  0  0  0  0
   10.3055   59.3218   -0.5800 H   0  0  0  0  0  0  0  0  0  0  0  0
    5.5380   60.2360   -0.5670 H   0  0  0  0  0  0  0  0  0  0  0  0
    3.8153   58.3175   -0.0826 H   0  0  0  0  0  0  0  0  0  0  0  0
    5.2622   56.0936    0.3815 H   0  0  0  0  0  0  0  0  0  0  0  0
    6.5867   54.8343    0.5620 H   0  0  0  0  0  0  0  0  0  0  0  0
    8.0352   54.4468    3.1691 H   0  0  0  0  0  0  0  0  0  0  0  0
    6.7966   55.6944    2.7450 H   0  0  0  0  0  0  0  0  0  0  0  0
    5.8459   53.7587    4.0140 H   0  0  0  0  0  0  0  0  0  0  0  0
    5.1263   53.9743    2.3658 H   0  0  0  0  0  0  0  0  0  0  0  0
    7.2875   51.9684    3.1491 H   0  0  0  0  0  0  0  0  0  0  0  0
    7.0609   51.1022    0.8687 H   0  0  0  0  0  0  0  0  0  0  0  0
    5.8276   52.3836    0.5041 H   0  0  0  0  0  0  0  0  0  0  0  0
    8.7811   52.7921    1.1413 H   0  0  0  0  0  0  0  0  0  0  0  0
    7.9307   53.0638   -0.4368 H   0  0  0  0  0  0  0  0  0  0  0  0
  1  2  1  0
  2  3  1  0
  2  4  1  0
  4  5  2  0
  5  6  1  0
  6  7  2  0
  7  8  1  0
  8  9  2  0
  9 10  1  0
 10 11  1  0
 11 12  2  0
 12 13  1  0
 13 14  2  0
 14 15  1  0
 15 16  1  0
 16 17  1  0
 17 18  1  0
 18 19  1  0
 19 20  1  0
 20 21  3  0
 19 22  1  0
 22 23  1  0
 15  4  1  0
 23 16  1  0
 14  6  1  0
 13  9  1  0
  1 24  1  0
  1 25  1  0
  1 26  1  0
  2 27  1  1
  3 28  1  0
  7 29  1  0
 10 30  1  0
 11 31  1  0
 12 32  1  0
 16 33  1  1
 17 34  1  0
 17 35  1  0
 18 36  1  0
 18 37  1  0
 19 38  1  6
 22 39  1  0
 22 40  1  0
 23 41  1  0
 23 42  1  0
M  END
>  <meeko>  (6) 
{"is_sidechain": [false], "free_energy": -7.933, "intermolecular_energy": -8.982, "internal_energy": -0.337}

$$$$
4ivb_ligand
     RDKit          3D

 42 45  0  0  0  0  0  0  0  0999 V2000
    5.8060   60.9050    0.6180 C   0  0  0  0  0  0  0  0  0  0  0  0
    6.0920   59.4200    0.4590 C   0  0  1  0  0  0  0  0  0  0  0  0
    4.9430   58.7200    0.0070 O   0  0  0  0  0  0  0  0  0  0  0  0
    7.2690   59.1520   -0.4350 C   0  0  0  0  0  0  0  0  0  0  0  0
    7.7660   60.1290   -1.1870 N   0  0  0  0  0  0  0  0  0  0  0  0
    8.8860   59.6310   -1.7800 C   0  0  0  0  0  0  0  0  0  0  0  0
    9.8250   60.2220   -2.6450 C   0  0  0  0  0  0  0  0  0  0  0  0
   10.9230   59.5560   -3.1120 N   0  0  0  0  0  0  0  0  0  0  0  0
   11.0480   58.2960   -2.6630 C   0  0  0  0  0  0  0  0  0  0  0  0
   12.0610   57.4210   -2.9390 N   0  0  0  0  0  0  0  0  0  0  0  0
   11.8490   56.2410   -2.2600 C   0  0  0  0  0  0  0  0  0  0  0  0
   10.6710   56.3520   -1.5380 C   0  0  0  0  0  0  0  0  0  0  0  0
   10.1710   57.6470   -1.8220 C   0  0  0  0  0  0  0  0  0  0  0  0
    9.0610   58.3190   -1.3940 C   0  0  0  0  0  0  0  0  0  0  0  0
    7.9960   57.9700   -0.6210 N   0  0  0  0  0  0  0  0  0  0  0  0
    7.6890   56.6180   -0.1640 C   0  0  2  0  0  0  0  0  0  0  0  0
    6.3520   56.0100   -0.6270 C   0  0  0  0  0  0  0  0  0  0  0  0
    6.2400   54.5410   -0.2100 C   0  0  0  0  0  0  0  0  0  0  0  0
    6.4330   54.3720    1.3030 C   0  0  1  0  0  0  0  0  0  0  0  0
    6.3400   52.9500    1.6770 C   0  0  0  0  0  0  0  0  0  0  0  0
    6.2670   51.8280    1.9670 N   0  0  0  0  0  0  0  0  0  0  0  0
    7.7820   54.9530    1.7480 C   0  0  0  0  0  0  0  0  0  0  0  0
    7.9400   56.4180    1.3380 C   0  0  0  0  0  0  0  0  0  0  0  0
    5.7575   61.1566    1.6877 H   0  0  0  0  0  0  0  0  0  0  0  0
    6.6087   61.4862    0.1406 H   0  0  0  0  0  0  0  0  0  0  0  0
    4.8448   61.1465    0.1406 H   0  0  0  0  0  0  0  0  0  0  0  0
    6.3564   59.0434    1.4581 H   0  0  0  0  0  0  0  0  0  0  0  0
    5.0400   58.6330   -0.9580 H   0  0  0  0  0  0  0  0  0  0  0  0
    9.6687   61.2646   -2.9588 H   0  0  0  0  0  0  0  0  0  0  0  0
   12.8450   57.6390   -3.5370 H   0  0  0  0  0  0  0  0  0  0  0  0
   12.5050   55.3584   -2.2865 H   0  0  0  0  0  0  0  0  0  0  0  0
   10.2190   55.5936   -0.8819 H   0  0  0  0  0  0  0  0  0  0  0  0
    8.4305   56.0165   -0.7102 H   0  0  0  0  0  0  0  0  0  0  0  0
    5.5243   56.5759   -0.1746 H   0  0  0  0  0  0  0  0  0  0  0  0
    6.3045   56.0659   -1.7245 H   0  0  0  0  0  0  0  0  0  0  0  0
    5.2443   54.1650   -0.4880 H   0  0  0  0  0  0  0  0  0  0  0  0
    7.0293   53.9738   -0.7251 H   0  0  0  0  0  0  0  0  0  0  0  0
    5.6323   54.9249    1.8160 H   0  0  0  0  0  0  0  0  0  0  0  0
    7.8553   54.8811    2.8432 H   0  0  0  0  0  0  0  0  0  0  0  0
    8.5787   54.3755    1.2563 H   0  0  0  0  0  0  0  0  0  0  0  0
    7.2191   57.0263    1.9040 H   0  0  0  0  0  0  0  0  0  0  0  0
    8.9731   56.7257    1.5569 H   0  0  0  0  0  0  0  0  0  0  0  0
  1  2  1  0
  2  3  1  0
  2  4  1  0
  4  5  2  0
  5  6  1  0
  6  7  2  0
  7  8  1  0
  8  9  2  0
  9 10  1  0
 10 11  1  0
 11 12  2  0
 12 13  1  0
 13 14  2  0
 14 15  1  0
 15 16  1  0
 16 17  1  0
 17 18  1  0
 18 19  1  0
 19 20  1  0
 20 21  3  0
 19 22  1  0
 22 23  1  0
 15  4  1  0
 23 16  1  0
 14  6  1  0
 13  9  1  0
  1 24  1  0
  1 25  1  0
  1 26  1  0
  2 27  1  1
  3 28  1  0
  7 29  1  0
 10 30  1  0
 11 31  1  0
 12 32  1  0
 16 33  1  1
 17 34  1  0
 17 35  1  0
 18 36  1  0
 18 37  1  0
 19 38  1  6
 22 39  1  0
 22 40  1  0
 23 41  1  0
 23 42  1  0
M  END
>  <meeko>  (7) 
{"is_sidechain": [false], "free_energy": -7.809, "intermolecular_energy": -8.644, "internal_energy": -0.533}

$$$$
4ivb_ligand
     RDKit          3D

 42 45  0  0  0  0  0  0  0  0999 V2000
    9.3180   57.4850   -1.5710 C   0  0  0  0  0  0  0  0  0  0  0  0
    9.8880   56.5590   -0.5090 C   0  0  1  0  0  0  0  0  0  0  0  0
   10.7980   57.2460    0.3380 O   0  0  0  0  0  0  0  0  0  0  0  0
    8.8190   55.8760    0.2950 C   0  0  0  0  0  0  0  0  0  0  0  0
    7.7240   56.5420    0.6430 N   0  0  0  0  0  0  0  0  0  0  0  0
    6.8950   55.6430    1.2430 C   0  0  0  0  0  0  0  0  0  0  0  0
    5.5990   55.7770    1.7720 C   0  0  0  0  0  0  0  0  0  0  0  0
    4.9060   54.7280    2.3080 N   0  0  0  0  0  0  0  0  0  0  0  0
    5.5530   53.5500    2.2700 C   0  0  0  0  0  0  0  0  0  0  0  0
    5.0850   52.3420    2.7010 N   0  0  0  0  0  0  0  0  0  0  0  0
    6.0290   51.3670    2.4560 C   0  0  0  0  0  0  0  0  0  0  0  0
    7.1320   51.9610    1.8640 C   0  0  0  0  0  0  0  0  0  0  0  0
    6.8200   53.3400    1.7750 C   0  0  0  0  0  0  0  0  0  0  0  0
    7.5100   54.4090    1.2750 C   0  0  0  0  0  0  0  0  0  0  0  0
    8.7640   54.5590    0.7680 N   0  0  0  0  0  0  0  0  0  0  0  0
    9.8160   53.5470    0.7980 C   0  0  2  0  0  0  0  0  0  0  0  0
   11.1960   53.9850    1.3230 C   0  0  0  0  0  0  0  0  0  0  0  0
   12.1430   52.7890    1.4480 C   0  0  0  0  0  0  0  0  0  0  0  0
   12.2700   52.0320    0.1190 C   0  0  1  0  0  0  0  0  0  0  0  0
   13.1710   50.8760    0.2710 C   0  0  0  0  0  0  0  0  0  0  0  0
   13.8810   49.9660    0.3940 N   0  0  0  0  0  0  0  0  0  0  0  0
   10.8930   51.5730   -0.3780 C   0  0  0  0  0  0  0  0  0  0  0  0
    9.9090   52.7370   -0.5050 C   0  0  0  0  0  0  0  0  0  0  0  0
    8.8006   58.3255   -1.0853 H   0  0  0  0  0  0  0  0  0  0  0  0
   10.1353   57.8707   -2.1982 H   0  0  0  0  0  0  0  0  0  0  0  0
    8.6056   56.9290   -2.1982 H   0  0  0  0  0  0  0  0  0  0  0  0
   10.4388   55.7711   -1.0436 H   0  0  0  0  0  0  0  0  0  0  0  0
   10.8600   56.7180    1.1530 H   0  0  0  0  0  0  0  0  0  0  0  0
    5.1227   56.7683    1.7536 H   0  0  0  0  0  0  0  0  0  0  0  0
    4.1730   52.2060    3.1140 H   0  0  0  0  0  0  0  0  0  0  0  0
    5.9240   50.2975    2.6910 H   0  0  0  0  0  0  0  0  0  0  0  0
    8.0564   51.4655    1.5325 H   0  0  0  0  0  0  0  0  0  0  0  0
    9.4616   52.8706    1.5898 H   0  0  0  0  0  0  0  0  0  0  0  0
   11.6305   54.7159    0.6251 H   0  0  0  0  0  0  0  0  0  0  0  0
   11.0649   54.4324    2.3193 H   0  0  0  0  0  0  0  0  0  0  0  0
   13.1371   53.1501    1.7503 H   0  0  0  0  0  0  0  0  0  0  0  0
   11.7318   52.0998    2.2003 H   0  0  0  0  0  0  0  0  0  0  0  0
   12.6974   52.7163   -0.6287 H   0  0  0  0  0  0  0  0  0  0  0  0
   11.0115   51.0998   -1.3639 H   0  0  0  0  0  0  0  0  0  0  0  0
   10.4861   50.8647    0.3588 H   0  0  0  0  0  0  0  0  0  0  0  0
   10.2452   53.4014   -1.3146 H   0  0  0  0  0  0  0  0  0  0  0  0
    8.9137   52.3226   -0.7231 H   0  0  0  0  0  0  0  0  0  0  0  0
  1  2  1  0
  2  3  1  0
  2  4  1  0
  4  5  2  0
  5  6  1  0
  6  7  2  0
  7  8  1  0
  8  9  2  0
  9 10  1  0
 10 11  1  0
 11 12  2  0
 12 13  1  0
 13 14  2  0
 14 15  1  0
 15 16  1  0
 16 17  1  0
 17 18  1  0
 18 19  1  0
 19 20  1  0
 20 21  3  0
 19 22  1  0
 22 23  1  0
 15  4  1  0
 23 16  1  0
 14  6  1  0
 13  9  1  0
  1 24  1  0
  1 25  1  0
  1 26  1  0
  2 27  1  6
  3 28  1  0
  7 29  1  0
 10 30  1  0
 11 31  1  0
 12 32  1  0
 16 33  1  6
 17 34  1  0
 17 35  1  0
 18 36  1  0
 18 37  1  0
 19 38  1  1
 22 39  1  0
 22 40  1  0
 23 41  1  0
 23 42  1  0
M  END
>  <meeko>  (8) 
{"is_sidechain": [false], "free_energy": -7.429, "intermolecular_energy": -8.082, "internal_energy": -0.66}

$$$$
4ivb_ligand
     RDKit          3D

 42 45  0  0  0  0  0  0  0  0999 V2000
    8.0700   51.5460    2.8940 C   0  0  0  0  0  0  0  0  0  0  0  0
    7.2930   51.6540    1.5910 C   0  0  1  0  0  0  0  0  0  0  0  0
    5.9460   51.2410    1.7600 O   0  0  0  0  0  0  0  0  0  0  0  0
    7.3620   53.0290    0.9910 C   0  0  0  0  0  0  0  0  0  0  0  0
    6.2500   53.7390    0.8340 N   0  0  0  0  0  0  0  0  0  0  0  0
    6.6340   54.9700    0.3950 C   0  0  0  0  0  0  0  0  0  0  0  0
    5.8930   56.1280    0.0980 C   0  0  0  0  0  0  0  0  0  0  0  0
    6.4750   57.2980   -0.3020 N   0  0  0  0  0  0  0  0  0  0  0  0
    7.8170   57.2630   -0.3670 C   0  0  0  0  0  0  0  0  0  0  0  0
    8.6500   58.2920   -0.7010 N   0  0  0  0  0  0  0  0  0  0  0  0
    9.9600   57.8710   -0.6160 C   0  0  0  0  0  0  0  0  0  0  0  0
    9.9720   56.5400   -0.2290 C   0  0  0  0  0  0  0  0  0  0  0  0
    8.6100   56.1700   -0.0980 C   0  0  0  0  0  0  0  0  0  0  0  0
    8.0060   55.0000    0.2650 C   0  0  0  0  0  0  0  0  0  0  0  0
    8.4750   53.7520    0.5450 N   0  0  0  0  0  0  0  0  0  0  0  0
    9.8470   53.2980    0.3420 C   0  0  2  0  0  0  0  0  0  0  0  0
   10.0380   51.9330   -0.3450 C   0  0  0  0  0  0  0  0  0  0  0  0
   11.5170   51.6650   -0.6360 C   0  0  0  0  0  0  0  0  0  0  0  0
   12.3680   51.7710    0.6370 C   0  0  1  0  0  0  0  0  0  0  0  0
   13.7880   51.5270    0.3260 C   0  0  0  0  0  0  0  0  0  0  0  0
   14.9050   51.3360    0.0790 N   0  0  0  0  0  0  0  0  0  0  0  0
   12.1940   53.1460    1.2950 C   0  0  0  0  0  0  0  0  0  0  0  0
   10.7260   53.4600    1.5910 C   0  0  0  0  0  0  0  0  0  0  0  0
    7.3773   51.6423    3.7430 H   0  0  0  0  0  0  0  0  0  0  0  0
    8.5737   50.5692    2.9407 H   0  0  0  0  0  0  0  0  0  0  0  0
    8.8210   52.3484    2.9407 H   0  0  0  0  0  0  0  0  0  0  0  0
    7.7779   50.9701    0.8789 H   0  0  0  0  0  0  0  0  0  0  0  0
    5.6930   51.5010    2.6630 H   0  0  0  0  0  0  0  0  0  0  0  0
    4.7977   56.0903    0.1917 H   0  0  0  0  0  0  0  0  0  0  0  0
    8.3310   59.2180   -0.9470 H   0  0  0  0  0  0  0  0  0  0  0  0
   10.8473   58.4880   -0.8210 H   0  0  0  0  0  0  0  0  0  0  0  0
   10.8535   55.9043   -0.0592 H   0  0  0  0  0  0  0  0  0  0  0  0
   10.2132   54.0036   -0.4183 H   0  0  0  0  0  0  0  0  0  0  0  0
    9.6524   51.1417    0.3146 H   0  0  0  0  0  0  0  0  0  0  0  0
    9.4901   51.9420   -1.2988 H   0  0  0  0  0  0  0  0  0  0  0  0
   11.6217   50.6524   -1.0529 H   0  0  0  0  0  0  0  0  0  0  0  0
   11.8708   52.4213   -1.3521 H   0  0  0  0  0  0  0  0  0  0  0  0
   12.0251   51.0034    1.3464 H   0  0  0  0  0  0  0  0  0  0  0  0
   12.7576   53.1612    2.2396 H   0  0  0  0  0  0  0  0  0  0  0  0
   12.5689   53.9069    0.5947 H   0  0  0  0  0  0  0  0  0  0  0  0
   10.3654   52.7744    2.3720 H   0  0  0  0  0  0  0  0  0  0  0  0
   10.6596   54.5065    1.9234 H   0  0  0  0  0  0  0  0  0  0  0  0
  1  2  1  0
  2  3  1  0
  2  4  1  0
  4  5  2  0
  5  6  1  0
  6  7  2  0
  7  8  1  0
  8  9  2  0
  9 10  1  0
 10 11  1  0
 11 12  2  0
 12 13  1  0
 13 14  2  0
 14 15  1  0
 15 16  1  0
 16 17  1  0
 17 18  1  0
 18 19  1  0
 19 20  1  0
 20 21  3  0
 19 22  1  0
 22 23  1  0
 15  4  1  0
 23 16  1  0
 14  6  1  0
 13  9  1  0
  1 24  1  0
  1 25  1  0
  1 26  1  0
  2 27  1  6
  3 28  1  0
  7 29  1  0
 10 30  1  0
 11 31  1  0
 12 32  1  0
 16 33  1  1
 17 34  1  0
 17 35  1  0
 18 36  1  0
 18 37  1  0
 19 38  1  6
 22 39  1  0
 22 40  1  0
 23 41  1  0
 23 42  1  0
M  END
>  <meeko>  (9) 
{"is_sidechain": [false], "free_energy": -7.306, "intermolecular_energy": -7.955, "internal_energy": -0.646}

$$$$
