3p5o_ligand
     RDKit          3D

 52 55  0  0  0  0  0  0  0  0999 V2000
   23.8320   50.1970   -7.0200 C   0  0  0  0  0  0  0  0  0  0  0  0
   23.3300   51.4900   -6.4010 C   0  0  0  0  0  0  0  0  0  0  0  0
   23.1330   51.3570   -4.9750 N   0  0  0  0  0  0  0  0  0  0  0  0
   23.3620   52.4030   -4.1090 C   0  0  0  0  0  0  0  0  0  0  0  0
   23.8260   53.4850   -4.4570 O   0  0  0  0  0  0  0  0  0  0  0  0
   22.9570   52.1320   -2.6780 C   0  0  0  0  0  0  0  0  0  0  0  0
   24.1370   51.5550   -1.8950 C   0  0  2  0  0  0  0  0  0  0  0  0
   25.1110   51.0480   -2.8630 N   0  0  0  0  0  0  0  0  0  0  0  0
   26.2710   50.6450   -2.4620 C   0  0  0  0  0  0  0  0  0  0  0  0
   27.1940   50.1050   -3.5140 C   0  0  0  0  0  0  0  0  0  0  0  0
   26.8400   50.2450   -4.8640 C   0  0  0  0  0  0  0  0  0  0  0  0
   27.6740   49.7430   -5.8650 C   0  0  0  0  0  0  0  0  0  0  0  0
   28.8570   49.0920   -5.5180 C   0  0  0  0  0  0  0  0  0  0  0  0
   29.8860   48.4730   -6.7490 Cl  0  0  0  0  0  0  0  0  0  0  0  0
   29.2100   48.9330   -4.1770 C   0  0  0  0  0  0  0  0  0  0  0  0
   28.3760   49.4340   -3.1730 C   0  0  0  0  0  0  0  0  0  0  0  0
   26.7430   50.6730   -1.0390 C   0  0  0  0  0  0  0  0  0  0  0  0
   28.0490   51.1370   -0.8040 C   0  0  0  0  0  0  0  0  0  0  0  0
   28.6110   51.1020    0.4730 C   0  0  0  0  0  0  0  0  0  0  0  0
   29.8910   51.5740    0.5460 O   0  0  0  0  0  0  0  0  0  0  0  0
   30.5100   51.5800    1.8260 C   0  0  0  0  0  0  0  0  0  0  0  0
   27.8590   50.6050    1.5330 C   0  0  0  0  0  0  0  0  0  0  0  0
   26.5470   50.1620    1.3230 C   0  0  0  0  0  0  0  0  0  0  0  0
   25.9770   50.1990    0.0420 C   0  0  0  0  0  0  0  0  0  0  0  0
   24.6180   49.8290   -0.1280 N   0  0  0  0  0  0  0  0  0  0  0  0
   23.8560   48.8880    0.5470 C   0  0  0  0  0  0  0  0  0  0  0  0
   24.3540   47.8790    1.5110 C   0  0  0  0  0  0  0  0  0  0  0  0
   22.6090   48.9510    0.1210 N   0  0  0  0  0  0  0  0  0  0  0  0
   22.5370   49.8960   -0.8590 N   0  0  0  0  0  0  0  0  0  0  0  0
   23.7340   50.4250   -1.0040 C   0  0  0  0  0  0  0  0  0  0  0  0
   24.1062   49.4909   -6.2224 H   0  0  0  0  0  0  0  0  0  0  0  0
   23.0394   49.7568   -7.6430 H   0  0  0  0  0  0  0  0  0  0  0  0
   24.7140   50.4069   -7.6430 H   0  0  0  0  0  0  0  0  0  0  0  0
   24.0678   52.2845   -6.5867 H   0  0  0  0  0  0  0  0  0  0  0  0
   22.3615   51.7375   -6.8601 H   0  0  0  0  0  0  0  0  0  0  0  0
   22.4900   50.6310   -4.6600 H   0  0  0  0  0  0  0  0  0  0  0  0
   22.6339   53.0724   -2.2076 H   0  0  0  0  0  0  0  0  0  0  0  0
   22.1315   51.4050   -2.6703 H   0  0  0  0  0  0  0  0  0  0  0  0
   24.5505   52.3526   -1.2603 H   0  0  0  0  0  0  0  0  0  0  0  0
   25.9022   50.7520   -5.1350 H   0  0  0  0  0  0  0  0  0  0  0  0
   27.3987   49.8607   -6.9235 H   0  0  0  0  0  0  0  0  0  0  0  0
   30.1428   48.4144   -3.9106 H   0  0  0  0  0  0  0  0  0  0  0  0
   28.6477   49.3015   -2.1153 H   0  0  0  0  0  0  0  0  0  0  0  0
   28.6392   51.5352   -1.6425 H   0  0  0  0  0  0  0  0  0  0  0  0
   29.7360   51.5725    2.6076 H   0  0  0  0  0  0  0  0  0  0  0  0
   31.1451   50.6880    1.9303 H   0  0  0  0  0  0  0  0  0  0  0  0
   31.1277   52.4842    1.9303 H   0  0  0  0  0  0  0  0  0  0  0  0
   28.2971   50.5598    2.5410 H   0  0  0  0  0  0  0  0  0  0  0  0
   25.9581   49.7815    2.1706 H   0  0  0  0  0  0  0  0  0  0  0  0
   24.1786   48.2344    2.5371 H   0  0  0  0  0  0  0  0  0  0  0  0
   23.8212   46.9293    1.3558 H   0  0  0  0  0  0  0  0  0  0  0  0
   25.4319   47.7243    1.3558 H   0  0  0  0  0  0  0  0  0  0  0  0
  1  2  1  0
  2  3  1  0
  3  4  1  0
  4  5  2  0
  4  6  1  0
  6  7  1  0
  7  8  1  0
  8  9  2  0
  9 10  1  0
 10 11  2  0
 11 12  1  0
 12 13  2  0
 13 14  1  0
 13 15  1  0
 15 16  2  0
  9 17  1  0
 17 18  2  0
 18 19  1  0
 19 20  1  0
 20 21  1  0
 19 22  2  0
 22 23  1  0
 23 24  2  0
 24 25  1  0
 25 26  1  0
 26 27  1  0
 26 28  2  0
 28 29  1  0
 29 30  2  0
 30  7  1  0
 16 10  1  0
 24 17  1  0
 30 25  1  0
  1 31  1  0
  1 32  1  0
  1 33  1  0
  2 34  1  0
  2 35  1  0
  3 36  1  0
  6 37  1  0
  6 38  1  0
  7 39  1  1
 11 40  1  0
 12 41  1  0
 15 42  1  0
 16 43  1  0
 18 44  1  0
 21 45  1  0
 21 46  1  0
 21 47  1  0
 22 48  1  0
 23 49  1  0
 27 50  1  0
 27 51  1  0
 27 52  1  0
M  END
>  <meeko>  (1) 
{"is_sidechain": [false], "free_energy": -9.235, "intermolecular_energy": -11.934, "internal_energy": -0.913}

$$$$
3p5o_ligand
     RDKit          3D

 52 55  0  0  0  0  0  0  0  0999 V2000
   26.8590   55.0350   -3.7980 C   0  0  0  0  0  0  0  0  0  0  0  0
   25.3450   55.0230   -3.9190 C   0  0  0  0  0  0  0  0  0  0  0  0
   24.7580   53.9420   -3.1600 N   0  0  0  0  0  0  0  0  0  0  0  0
   23.8230   53.0930   -3.7070 C   0  0  0  0  0  0  0  0  0  0  0  0
   23.3530   53.2330   -4.8330 O   0  0  0  0  0  0  0  0  0  0  0  0
   23.4370   51.9300   -2.8210 C   0  0  0  0  0  0  0  0  0  0  0  0
   24.6440   51.4610   -2.0080 C   0  0  2  0  0  0  0  0  0  0  0  0
   25.7080   51.1100   -2.9510 N   0  0  0  0  0  0  0  0  0  0  0  0
   26.8910   50.8270   -2.5140 C   0  0  0  0  0  0  0  0  0  0  0  0
   27.9120   50.4420   -3.5430 C   0  0  0  0  0  0  0  0  0  0  0  0
   28.3320   51.4020   -4.4740 C   0  0  0  0  0  0  0  0  0  0  0  0
   29.2740   51.0690   -5.4510 C   0  0  0  0  0  0  0  0  0  0  0  0
   29.7870   49.7740   -5.5040 C   0  0  0  0  0  0  0  0  0  0  0  0
   30.9460   49.3620   -6.7050 Cl  0  0  0  0  0  0  0  0  0  0  0  0
   29.3620   48.8070   -4.5920 C   0  0  0  0  0  0  0  0  0  0  0  0
   28.4190   49.1380   -3.6140 C   0  0  0  0  0  0  0  0  0  0  0  0
   27.2990   50.8500   -1.0710 C   0  0  0  0  0  0  0  0  0  0  0  0
   28.5320   51.4500   -0.7610 C   0  0  0  0  0  0  0  0  0  0  0  0
   29.0430   51.4270    0.5370 C   0  0  0  0  0  0  0  0  0  0  0  0
   30.2550   52.0400    0.6840 O   0  0  0  0  0  0  0  0  0  0  0  0
   30.7670   52.1590    2.0060 C   0  0  0  0  0  0  0  0  0  0  0  0
   28.3130   50.8030    1.5440 C   0  0  0  0  0  0  0  0  0  0  0  0
   27.0710   50.2210    1.2600 C   0  0  0  0  0  0  0  0  0  0  0  0
   26.5510   50.2460   -0.0430 C   0  0  0  0  0  0  0  0  0  0  0  0
   25.2530   49.7300   -0.2870 N   0  0  0  0  0  0  0  0  0  0  0  0
   24.5790   48.6800    0.3190 C   0  0  0  0  0  0  0  0  0  0  0  0
   25.1530   47.6950    1.2660 C   0  0  0  0  0  0  0  0  0  0  0  0
   23.3520   48.6160   -0.1600 N   0  0  0  0  0  0  0  0  0  0  0  0
   23.2090   49.5870   -1.1060 N   0  0  0  0  0  0  0  0  0  0  0  0
   24.3410   50.2560   -1.1780 C   0  0  0  0  0  0  0  0  0  0  0  0
   27.1419   55.0372   -2.7350 H   0  0  0  0  0  0  0  0  0  0  0  0
   27.2729   54.1401   -4.2857 H   0  0  0  0  0  0  0  0  0  0  0  0
   27.2587   55.9363   -4.2857 H   0  0  0  0  0  0  0  0  0  0  0  0
   24.9495   55.9783   -3.5436 H   0  0  0  0  0  0  0  0  0  0  0  0
   25.0862   54.8791   -4.9784 H   0  0  0  0  0  0  0  0  0  0  0  0
   25.2930   53.5880   -2.3660 H   0  0  0  0  0  0  0  0  0  0  0  0
   22.6375   52.2460   -2.1348 H   0  0  0  0  0  0  0  0  0  0  0  0
   23.0852   51.1002   -3.4516 H   0  0  0  0  0  0  0  0  0  0  0  0
   24.9359   52.2735   -1.3264 H   0  0  0  0  0  0  0  0  0  0  0  0
   27.9188   52.4207   -4.4354 H   0  0  0  0  0  0  0  0  0  0  0  0
   29.6094   51.8258   -6.1754 H   0  0  0  0  0  0  0  0  0  0  0  0
   29.7682   47.7860   -4.6424 H   0  0  0  0  0  0  0  0  0  0  0  0
   28.0753   48.3746   -2.9005 H   0  0  0  0  0  0  0  0  0  0  0  0
   29.1051   51.9473   -1.5574 H   0  0  0  0  0  0  0  0  0  0  0  0
   29.9603   51.9715    2.7299 H   0  0  0  0  0  0  0  0  0  0  0  0
   31.5716   51.4239    2.1551 H   0  0  0  0  0  0  0  0  0  0  0  0
   31.1650   53.1736    2.1551 H   0  0  0  0  0  0  0  0  0  0  0  0
   28.7132   50.7666    2.5680 H   0  0  0  0  0  0  0  0  0  0  0  0
   26.4978   49.7398    2.0661 H   0  0  0  0  0  0  0  0  0  0  0  0
   24.9614   48.0239    2.2980 H   0  0  0  0  0  0  0  0  0  0  0  0
   24.6858   46.7128    1.1014 H   0  0  0  0  0  0  0  0  0  0  0  0
   26.2378   47.6172    1.1014 H   0  0  0  0  0  0  0  0  0  0  0  0
  1  2  1  0
  2  3  1  0
  3  4  1  0
  4  5  2  0
  4  6  1  0
  6  7  1  0
  7  8  1  0
  8  9  2  0
  9 10  1  0
 10 11  2  0
 11 12  1  0
 12 13  2  0
 13 14  1  0
 13 15  1  0
 15 16  2  0
  9 17  1  0
 17 18  2  0
 18 19  1  0
 19 20  1  0
 20 21  1  0
 19 22  2  0
 22 23  1  0
 23 24  2  0
 24 25  1  0
 25 26  1  0
 26 27  1  0
 26 28  2  0
 28 29  1  0
 29 30  2  0
 30  7  1  0
 16 10  1  0
 24 17  1  0
 30 25  1  0
  1 31  1  0
  1 32  1  0
  1 33  1  0
  2 34  1  0
  2 35  1  0
  3 36  1  0
  6 37  1  0
  6 38  1  0
  7 39  1  1
 11 40  1  0
 12 41  1  0
 15 42  1  0
 16 43  1  0
 18 44  1  0
 21 45  1  0
 21 46  1  0
 21 47  1  0
 22 48  1  0
 23 49  1  0
 27 50  1  0
 27 51  1  0
 27 52  1  0
M  END
>  <meeko>  (2) 
{"is_sidechain": [false], "free_energy": -8.851, "intermolecular_energy": -10.792, "internal_energy": -1.559}

$$$$
3p5o_ligand
     RDKit          3D

 52 55  0  0  0  0  0  0  0  0999 V2000
   23.6570   46.4000    3.9800 C   0  0  0  0  0  0  0  0  0  0  0  0
   22.9170   46.2930    2.6580 C   0  0  0  0  0  0  0  0  0  0  0  0
   22.7910   47.5800    2.0120 N   0  0  0  0  0  0  0  0  0  0  0  0
   23.6200   47.9590    0.9810 C   0  0  0  0  0  0  0  0  0  0  0  0
   24.5720   47.2880    0.5900 O   0  0  0  0  0  0  0  0  0  0  0  0
   23.2460   49.2680    0.3250 C   0  0  0  0  0  0  0  0  0  0  0  0
   24.3010   49.6620   -0.7100 C   0  0  2  0  0  0  0  0  0  0  0  0
   25.4920   50.1090    0.0150 N   0  0  0  0  0  0  0  0  0  0  0  0
   26.5850   50.3540   -0.6290 C   0  0  0  0  0  0  0  0  0  0  0  0
   27.7470   50.8440    0.1850 C   0  0  0  0  0  0  0  0  0  0  0  0
   27.6950   50.7250    1.5810 C   0  0  0  0  0  0  0  0  0  0  0  0
   28.7570   51.1810    2.3660 C   0  0  0  0  0  0  0  0  0  0  0  0
   29.8660   51.7660    1.7560 C   0  0  0  0  0  0  0  0  0  0  0  0
   31.1740   52.3290    2.7190 Cl  0  0  0  0  0  0  0  0  0  0  0  0
   29.9180   51.9040    0.3680 C   0  0  0  0  0  0  0  0  0  0  0  0
   28.8570   51.4490   -0.4190 C   0  0  0  0  0  0  0  0  0  0  0  0
   26.7630   50.1930   -2.1090 C   0  0  0  0  0  0  0  0  0  0  0  0
   27.9430   49.5720   -2.5510 C   0  0  0  0  0  0  0  0  0  0  0  0
   28.2440   49.4710   -3.9100 C   0  0  0  0  0  0  0  0  0  0  0  0
   29.4310   48.8530   -4.1870 O   0  0  0  0  0  0  0  0  0  0  0  0
   29.8980   48.9160   -5.5290 C   0  0  0  0  0  0  0  0  0  0  0  0
   27.3530   49.9910   -4.8440 C   0  0  0  0  0  0  0  0  0  0  0  0
   26.1590   50.5910   -4.4230 C   0  0  0  0  0  0  0  0  0  0  0  0
   25.8510   50.6900   -3.0590 C   0  0  0  0  0  0  0  0  0  0  0  0
   24.5960   51.2210   -2.6630 N   0  0  0  0  0  0  0  0  0  0  0  0
   23.8150   52.2040   -3.2520 C   0  0  0  0  0  0  0  0  0  0  0  0
   24.2120   53.0940   -4.3680 C   0  0  0  0  0  0  0  0  0  0  0  0
   22.6760   52.3070   -2.5940 N   0  0  0  0  0  0  0  0  0  0  0  0
   22.7030   51.4320   -1.5480 N   0  0  0  0  0  0  0  0  0  0  0  0
   23.8460   50.7790   -1.5920 C   0  0  0  0  0  0  0  0  0  0  0  0
   22.9422   46.2966    4.8097 H   0  0  0  0  0  0  0  0  0  0  0  0
   24.4109   45.6015    4.0439 H   0  0  0  0  0  0  0  0  0  0  0  0
   24.1538   47.3793    4.0439 H   0  0  0  0  0  0  0  0  0  0  0  0
   23.4701   45.6129    1.9935 H   0  0  0  0  0  0  0  0  0  0  0  0
   21.9060   45.9095    2.8601 H   0  0  0  0  0  0  0  0  0  0  0  0
   21.8820   48.0400    2.0660 H   0  0  0  0  0  0  0  0  0  0  0  0
   22.2714   49.1590   -0.1733 H   0  0  0  0  0  0  0  0  0  0  0  0
   23.1893   50.0515    1.0951 H   0  0  0  0  0  0  0  0  0  0  0  0
   24.4996   48.7887   -1.3486 H   0  0  0  0  0  0  0  0  0  0  0  0
   26.8149   50.2710    2.0599 H   0  0  0  0  0  0  0  0  0  0  0  0
   28.7184   51.0790    3.4606 H   0  0  0  0  0  0  0  0  0  0  0  0
   30.7940   52.3708   -0.1061 H   0  0  0  0  0  0  0  0  0  0  0  0
   28.8931   51.5657   -1.5122 H   0  0  0  0  0  0  0  0  0  0  0  0
   28.6436   49.1571   -1.8113 H   0  0  0  0  0  0  0  0  0  0  0  0
   30.9881   49.0631   -5.5314 H   0  0  0  0  0  0  0  0  0  0  0  0
   29.6536   47.9767   -6.0468 H   0  0  0  0  0  0  0  0  0  0  0  0
   29.4134   49.7569   -6.0468 H   0  0  0  0  0  0  0  0  0  0  0  0
   27.5871   49.9307   -5.9171 H   0  0  0  0  0  0  0  0  0  0  0  0
   25.4563   50.9883   -5.1702 H   0  0  0  0  0  0  0  0  0  0  0  0
   24.6285   54.0277   -3.9620 H   0  0  0  0  0  0  0  0  0  0  0  0
   24.9714   52.5917   -4.9853 H   0  0  0  0  0  0  0  0  0  0  0  0
   23.3309   53.3234   -4.9853 H   0  0  0  0  0  0  0  0  0  0  0  0
  1  2  1  0
  2  3  1  0
  3  4  1  0
  4  5  2  0
  4  6  1  0
  6  7  1  0
  7  8  1  0
  8  9  2  0
  9 10  1  0
 10 11  2  0
 11 12  1  0
 12 13  2  0
 13 14  1  0
 13 15  1  0
 15 16  2  0
  9 17  1  0
 17 18  2  0
 18 19  1  0
 19 20  1  0
 20 21  1  0
 19 22  2  0
 22 23  1  0
 23 24  2  0
 24 25  1  0
 25 26  1  0
 26 27  1  0
 26 28  2  0
 28 29  1  0
 29 30  2  0
 30  7  1  0
 16 10  1  0
 24 17  1  0
 30 25  1  0
  1 31  1  0
  1 32  1  0
  1 33  1  0
  2 34  1  0
  2 35  1  0
  3 36  1  0
  6 37  1  0
  6 38  1  0
  7 39  1  6
 11 40  1  0
 12 41  1  0
 15 42  1  0
 16 43  1  0
 18 44  1  0
 21 45  1  0
 21 46  1  0
 21 47  1  0
 22 48  1  0
 23 49  1  0
 27 50  1  0
 27 51  1  0
 27 52  1  0
M  END
>  <meeko>  (3) 
{"is_sidechain": [false], "free_energy": -8.829, "intermolecular_energy": -11.925, "internal_energy": -0.397}

$$$$
3p5o_ligand
     RDKit          3D

 52 55  0  0  0  0  0  0  0  0999 V2000
   25.8870   48.7110    0.6700 C   0  0  0  0  0  0  0  0  0  0  0  0
   24.4190   48.3700    0.4770 C   0  0  0  0  0  0  0  0  0  0  0  0
   23.8050   49.2110   -0.5260 N   0  0  0  0  0  0  0  0  0  0  0  0
   23.3080   50.4580   -0.2240 C   0  0  0  0  0  0  0  0  0  0  0  0
   23.2650   50.9160    0.9150 O   0  0  0  0  0  0  0  0  0  0  0  0
   22.8450   51.2550   -1.4210 C   0  0  0  0  0  0  0  0  0  0  0  0
   23.8350   51.0990   -2.5760 C   0  0  2  0  0  0  0  0  0  0  0  0
   25.1610   51.4730   -2.0810 N   0  0  0  0  0  0  0  0  0  0  0  0
   26.2040   51.2820   -2.8200 C   0  0  0  0  0  0  0  0  0  0  0  0
   27.5190   51.7280   -2.2510 C   0  0  0  0  0  0  0  0  0  0  0  0
   28.3230   52.5970   -3.0020 C   0  0  0  0  0  0  0  0  0  0  0  0
   29.5570   53.0200   -2.5030 C   0  0  0  0  0  0  0  0  0  0  0  0
   29.9920   52.5680   -1.2590 C   0  0  0  0  0  0  0  0  0  0  0  0
   31.5110   53.0880   -0.6430 Cl  0  0  0  0  0  0  0  0  0  0  0  0
   29.2060   51.6890   -0.5120 C   0  0  0  0  0  0  0  0  0  0  0  0
   27.9710   51.2640   -1.0090 C   0  0  0  0  0  0  0  0  0  0  0  0
   26.1850   50.6660   -4.1860 C   0  0  0  0  0  0  0  0  0  0  0  0
   27.1710   49.7070   -4.4720 C   0  0  0  0  0  0  0  0  0  0  0  0
   27.2970   49.1550   -5.7480 C   0  0  0  0  0  0  0  0  0  0  0  0
   28.3080   48.2460   -5.8800 O   0  0  0  0  0  0  0  0  0  0  0  0
   29.5460   48.7210   -6.3950 C   0  0  0  0  0  0  0  0  0  0  0  0
   26.4230   49.5590   -6.7530 C   0  0  0  0  0  0  0  0  0  0  0  0
   25.4170   50.4950   -6.4800 C   0  0  0  0  0  0  0  0  0  0  0  0
   25.2840   51.0480   -5.1980 C   0  0  0  0  0  0  0  0  0  0  0  0
   24.2030   51.9250   -4.9240 N   0  0  0  0  0  0  0  0  0  0  0  0
   23.5610   52.8380   -5.7480 C   0  0  0  0  0  0  0  0  0  0  0  0
   23.9950   53.2610   -7.1000 C   0  0  0  0  0  0  0  0  0  0  0  0
   22.5410   53.3670   -5.0990 N   0  0  0  0  0  0  0  0  0  0  0  0
   22.5180   52.8480   -3.8390 N   0  0  0  0  0  0  0  0  0  0  0  0
   23.5050   51.9820   -3.7350 C   0  0  0  0  0  0  0  0  0  0  0  0
   26.1129   48.7635    1.7453 H   0  0  0  0  0  0  0  0  0  0  0  0
   26.5086   47.9333    0.2022 H   0  0  0  0  0  0  0  0  0  0  0  0
   26.1022   49.6830    0.2022 H   0  0  0  0  0  0  0  0  0  0  0  0
   24.3349   47.3194    0.1622 H   0  0  0  0  0  0  0  0  0  0  0  0
   23.8985   48.5368    1.4316 H   0  0  0  0  0  0  0  0  0  0  0  0
   24.0670   49.0420   -1.4970 H   0  0  0  0  0  0  0  0  0  0  0  0
   21.8564   50.8920   -1.7386 H   0  0  0  0  0  0  0  0  0  0  0  0
   22.7840   52.3174   -1.1423 H   0  0  0  0  0  0  0  0  0  0  0  0
   23.7938   50.0567   -2.9250 H   0  0  0  0  0  0  0  0  0  0  0  0
   27.9809   52.9467   -3.9872 H   0  0  0  0  0  0  0  0  0  0  0  0
   30.1833   53.7077   -3.0902 H   0  0  0  0  0  0  0  0  0  0  0  0
   29.5583   51.3313    0.4667 H   0  0  0  0  0  0  0  0  0  0  0  0
   27.3540   50.5653   -0.4250 H   0  0  0  0  0  0  0  0  0  0  0  0
   27.8571   49.3848   -3.6749 H   0  0  0  0  0  0  0  0  0  0  0  0
   30.2157   48.9779   -5.5610 H   0  0  0  0  0  0  0  0  0  0  0  0
   30.0116   47.9376   -7.0111 H   0  0  0  0  0  0  0  0  0  0  0  0
   29.3681   49.6147   -7.0111 H   0  0  0  0  0  0  0  0  0  0  0  0
   26.5225   49.1416   -7.7659 H   0  0  0  0  0  0  0  0  0  0  0  0
   24.7247   50.7992   -7.2789 H   0  0  0  0  0  0  0  0  0  0  0  0
   24.7801   54.0262   -7.0104 H   0  0  0  0  0  0  0  0  0  0  0  0
   24.3904   52.3922   -7.6467 H   0  0  0  0  0  0  0  0  0  0  0  0
   23.1367   53.6786   -7.6467 H   0  0  0  0  0  0  0  0  0  0  0  0
  1  2  1  0
  2  3  1  0
  3  4  1  0
  4  5  2  0
  4  6  1  0
  6  7  1  0
  7  8  1  0
  8  9  2  0
  9 10  1  0
 10 11  2  0
 11 12  1  0
 12 13  2  0
 13 14  1  0
 13 15  1  0
 15 16  2  0
  9 17  1  0
 17 18  2  0
 18 19  1  0
 19 20  1  0
 20 21  1  0
 19 22  2  0
 22 23  1  0
 23 24  2  0
 24 25  1  0
 25 26  1  0
 26 27  1  0
 26 28  2  0
 28 29  1  0
 29 30  2  0
 30  7  1  0
 16 10  1  0
 24 17  1  0
 30 25  1  0
  1 31  1  0
  1 32  1  0
  1 33  1  0
  2 34  1  0
  2 35  1  0
  3 36  1  0
  6 37  1  0
  6 38  1  0
  7 39  1  6
 11 40  1  0
 12 41  1  0
 15 42  1  0
 16 43  1  0
 18 44  1  0
 21 45  1  0
 21 46  1  0
 21 47  1  0
 22 48  1  0
 23 49  1  0
 27 50  1  0
 27 51  1  0
 27 52  1  0
M  END
>  <meeko>  (4) 
{"is_sidechain": [false], "free_energy": -7.155, "intermolecular_energy": -8.645, "internal_energy": -1.514}

$$$$
3p5o_ligand
     RDKit          3D

 52 55  0  0  0  0  0  0  0  0999 V2000
   24.5380   52.4860   -8.8990 C   0  0  0  0  0  0  0  0  0  0  0  0
   25.2820   51.1780   -9.1080 C   0  0  0  0  0  0  0  0  0  0  0  0
   26.1480   50.8750   -7.9910 N   0  0  0  0  0  0  0  0  0  0  0  0
   26.1000   49.6620   -7.3430 C   0  0  0  0  0  0  0  0  0  0  0  0
   25.2750   48.7870   -7.5950 O   0  0  0  0  0  0  0  0  0  0  0  0
   27.1800   49.4620   -6.3050 C   0  0  0  0  0  0  0  0  0  0  0  0
   26.6340   49.7630   -4.9080 C   0  0  2  0  0  0  0  0  0  0  0  0
   25.4730   50.6430   -5.0630 N   0  0  0  0  0  0  0  0  0  0  0  0
   24.7350   50.9230   -4.0410 C   0  0  0  0  0  0  0  0  0  0  0  0
   23.5890   51.8620   -4.2790 C   0  0  0  0  0  0  0  0  0  0  0  0
   22.9570   51.8560   -5.5300 C   0  0  0  0  0  0  0  0  0  0  0  0
   21.8940   52.7260   -5.7850 C   0  0  0  0  0  0  0  0  0  0  0  0
   21.4690   53.6090   -4.7930 C   0  0  0  0  0  0  0  0  0  0  0  0
   20.1610   54.6800   -5.1040 Cl  0  0  0  0  0  0  0  0  0  0  0  0
   22.1040   53.6330   -3.5500 C   0  0  0  0  0  0  0  0  0  0  0  0
   23.1680   52.7640   -3.2930 C   0  0  0  0  0  0  0  0  0  0  0  0
   24.9500   50.3910   -2.6560 C   0  0  0  0  0  0  0  0  0  0  0  0
   23.8180   49.9380   -1.9580 C   0  0  0  0  0  0  0  0  0  0  0  0
   23.9040   49.5230   -0.6280 C   0  0  0  0  0  0  0  0  0  0  0  0
   22.7200   49.1220   -0.0780 O   0  0  0  0  0  0  0  0  0  0  0  0
   22.7750   48.0940    0.9040 C   0  0  0  0  0  0  0  0  0  0  0  0
   25.1390   49.5510    0.0140 C   0  0  0  0  0  0  0  0  0  0  0  0
   26.2830   49.9750   -0.6730 C   0  0  0  0  0  0  0  0  0  0  0  0
   26.2020   50.3890   -2.0110 C   0  0  0  0  0  0  0  0  0  0  0  0
   27.3880   50.7280   -2.7110 N   0  0  0  0  0  0  0  0  0  0  0  0
   28.5610   51.3110   -2.2540 C   0  0  0  0  0  0  0  0  0  0  0  0
   28.7830   51.9110   -0.9170 C   0  0  0  0  0  0  0  0  0  0  0  0
   29.4390   51.3500   -3.2370 N   0  0  0  0  0  0  0  0  0  0  0  0
   28.8550   50.8350   -4.3560 N   0  0  0  0  0  0  0  0  0  0  0  0
   27.6330   50.4580   -4.0410 C   0  0  0  0  0  0  0  0  0  0  0  0
   24.4290   52.6777   -7.8213 H   0  0  0  0  0  0  0  0  0  0  0  0
   25.1039   53.3078   -9.3622 H   0  0  0  0  0  0  0  0  0  0  0  0
   23.5425   52.4196   -9.3622 H   0  0  0  0  0  0  0  0  0  0  0  0
   24.5499   50.3651   -9.2230 H   0  0  0  0  0  0  0  0  0  0  0  0
   25.9044   51.2761  -10.0097 H   0  0  0  0  0  0  0  0  0  0  0  0
   27.0210   51.3980   -7.9250 H   0  0  0  0  0  0  0  0  0  0  0  0
   27.5300   48.4198   -6.3413 H   0  0  0  0  0  0  0  0  0  0  0  0
   28.0140   50.1466   -6.5190 H   0  0  0  0  0  0  0  0  0  0  0  0
   26.3779   48.8080   -4.4259 H   0  0  0  0  0  0  0  0  0  0  0  0
   23.2991   51.1640   -6.3137 H   0  0  0  0  0  0  0  0  0  0  0  0
   21.3941   52.7145   -6.7648 H   0  0  0  0  0  0  0  0  0  0  0  0
   21.7671   54.3354   -2.7734 H   0  0  0  0  0  0  0  0  0  0  0  0
   23.6747   52.7882   -2.3170 H   0  0  0  0  0  0  0  0  0  0  0  0
   22.8447   49.9098   -2.4697 H   0  0  0  0  0  0  0  0  0  0  0  0
   22.7509   48.5439    1.9075 H   0  0  0  0  0  0  0  0  0  0  0  0
   21.9114   47.4237    0.7819 H   0  0  0  0  0  0  0  0  0  0  0  0
   23.7052   47.5196    0.7819 H   0  0  0  0  0  0  0  0  0  0  0  0
   25.2164   49.2386    1.0659 H   0  0  0  0  0  0  0  0  0  0  0  0
   27.2552   49.9836   -0.1584 H   0  0  0  0  0  0  0  0  0  0  0  0
   28.5133   51.1820   -0.1386 H   0  0  0  0  0  0  0  0  0  0  0  0
   29.8426   52.1865   -0.8101 H   0  0  0  0  0  0  0  0  0  0  0  0
   28.1579   52.8098   -0.8101 H   0  0  0  0  0  0  0  0  0  0  0  0
  1  2  1  0
  2  3  1  0
  3  4  1  0
  4  5  2  0
  4  6  1  0
  6  7  1  0
  7  8  1  0
  8  9  2  0
  9 10  1  0
 10 11  2  0
 11 12  1  0
 12 13  2  0
 13 14  1  0
 13 15  1  0
 15 16  2  0
  9 17  1  0
 17 18  2  0
 18 19  1  0
 19 20  1  0
 20 21  1  0
 19 22  2  0
 22 23  1  0
 23 24  2  0
 24 25  1  0
 25 26  1  0
 26 27  1  0
 26 28  2  0
 28 29  1  0
 29 30  2  0
 30  7  1  0
 16 10  1  0
 24 17  1  0
 30 25  1  0
  1 31  1  0
  1 32  1  0
  1 33  1  0
  2 34  1  0
  2 35  1  0
  3 36  1  0
  6 37  1  0
  6 38  1  0
  7 39  1  1
 11 40  1  0
 12 41  1  0
 15 42  1  0
 16 43  1  0
 18 44  1  0
 21 45  1  0
 21 46  1  0
 21 47  1  0
 22 48  1  0
 23 49  1  0
 27 50  1  0
 27 51  1  0
 27 52  1  0
M  END
>  <meeko>  (5) 
{"is_sidechain": [false], "free_energy": -7.054, "intermolecular_energy": -8.849, "internal_energy": -1.18}

$$$$
3p5o_ligand
     RDKit          3D

 52 55  0  0  0  0  0  0  0  0999 V2000
   28.2130   48.7260   -5.8300 C   0  0  0  0  0  0  0  0  0  0  0  0
   27.5610   49.4430   -7.0000 C   0  0  0  0  0  0  0  0  0  0  0  0
   26.2260   49.8900   -6.6740 N   0  0  0  0  0  0  0  0  0  0  0  0
   25.1580   49.6600   -7.5110 C   0  0  0  0  0  0  0  0  0  0  0  0
   25.2620   49.1450   -8.6210 O   0  0  0  0  0  0  0  0  0  0  0  0
   23.8160   50.0580   -6.9400 C   0  0  0  0  0  0  0  0  0  0  0  0
   23.9540   51.3300   -6.1020 C   0  0  2  0  0  0  0  0  0  0  0  0
   24.3440   50.9310   -4.7480 N   0  0  0  0  0  0  0  0  0  0  0  0
   24.6750   51.8300   -3.8800 C   0  0  0  0  0  0  0  0  0  0  0  0
   25.0250   51.3400   -2.5060 C   0  0  0  0  0  0  0  0  0  0  0  0
   26.2650   50.7180   -2.3040 C   0  0  0  0  0  0  0  0  0  0  0  0
   26.6140   50.2420   -1.0380 C   0  0  0  0  0  0  0  0  0  0  0  0
   25.7200   50.3770    0.0230 C   0  0  0  0  0  0  0  0  0  0  0  0
   26.1470   49.7910    1.5820 Cl  0  0  0  0  0  0  0  0  0  0  0  0
   24.4760   50.9790   -0.1730 C   0  0  0  0  0  0  0  0  0  0  0  0
   24.1240   51.4560   -1.4390 C   0  0  0  0  0  0  0  0  0  0  0  0
   24.7220   53.3050   -4.1490 C   0  0  0  0  0  0  0  0  0  0  0  0
   25.8360   54.0110   -3.6660 C   0  0  0  0  0  0  0  0  0  0  0  0
   25.9180   55.4000   -3.7770 C   0  0  0  0  0  0  0  0  0  0  0  0
   27.0520   55.9490   -3.2510 O   0  0  0  0  0  0  0  0  0  0  0  0
   27.6250   57.0490   -3.9480 C   0  0  0  0  0  0  0  0  0  0  0  0
   24.8760   56.0950   -4.3850 C   0  0  0  0  0  0  0  0  0  0  0  0
   23.7690   55.4060   -4.8960 C   0  0  0  0  0  0  0  0  0  0  0  0
   23.6860   54.0100   -4.7910 C   0  0  0  0  0  0  0  0  0  0  0  0
   22.5980   53.3270   -5.3940 N   0  0  0  0  0  0  0  0  0  0  0  0
   21.2830   53.7260   -5.5760 C   0  0  0  0  0  0  0  0  0  0  0  0
   20.6360   54.9240   -4.9910 C   0  0  0  0  0  0  0  0  0  0  0  0
   20.6430   52.8090   -6.2770 N   0  0  0  0  0  0  0  0  0  0  0  0
   21.5060   51.7840   -6.5320 N   0  0  0  0  0  0  0  0  0  0  0  0
   22.6750   52.0960   -6.0110 C   0  0  0  0  0  0  0  0  0  0  0  0
   27.8330   49.1439   -4.8861 H   0  0  0  0  0  0  0  0  0  0  0  0
   27.9745   47.6533   -5.8784 H   0  0  0  0  0  0  0  0  0  0  0  0
   29.3035   48.8618   -5.8784 H   0  0  0  0  0  0  0  0  0  0  0  0
   28.1736   50.3159   -7.2698 H   0  0  0  0  0  0  0  0  0  0  0  0
   27.4913   48.7366   -7.8403 H   0  0  0  0  0  0  0  0  0  0  0  0
   26.0140   50.0400   -5.6870 H   0  0  0  0  0  0  0  0  0  0  0  0
   23.1104   50.2406   -7.7639 H   0  0  0  0  0  0  0  0  0  0  0  0
   23.4435   49.2451   -6.2993 H   0  0  0  0  0  0  0  0  0  0  0  0
   24.7008   51.9792   -6.5824 H   0  0  0  0  0  0  0  0  0  0  0  0
   26.9651   50.6045   -3.1448 H   0  0  0  0  0  0  0  0  0  0  0  0
   27.5910   49.7623   -0.8788 H   0  0  0  0  0  0  0  0  0  0  0  0
   23.7735   51.0779    0.6677 H   0  0  0  0  0  0  0  0  0  0  0  0
   23.1403   51.9221   -1.5975 H   0  0  0  0  0  0  0  0  0  0  0  0
   26.6600   53.4585   -3.1909 H   0  0  0  0  0  0  0  0  0  0  0  0
   28.0074   57.7831   -3.2235 H   0  0  0  0  0  0  0  0  0  0  0  0
   28.4519   56.6923   -4.5797 H   0  0  0  0  0  0  0  0  0  0  0  0
   26.8588   57.5221   -4.5797 H   0  0  0  0  0  0  0  0  0  0  0  0
   24.9225   57.1911   -4.4644 H   0  0  0  0  0  0  0  0  0  0  0  0
   22.9571   55.9650   -5.3842 H   0  0  0  0  0  0  0  0  0  0  0  0
   20.6705   54.8602   -3.8934 H   0  0  0  0  0  0  0  0  0  0  0  0
   21.1689   55.8273   -5.3227 H   0  0  0  0  0  0  0  0  0  0  0  0
   19.5884   54.9737   -5.3227 H   0  0  0  0  0  0  0  0  0  0  0  0
  1  2  1  0
  2  3  1  0
  3  4  1  0
  4  5  2  0
  4  6  1  0
  6  7  1  0
  7  8  1  0
  8  9  2  0
  9 10  1  0
 10 11  2  0
 11 12  1  0
 12 13  2  0
 13 14  1  0
 13 15  1  0
 15 16  2  0
  9 17  1  0
 17 18  2  0
 18 19  1  0
 19 20  1  0
 20 21  1  0
 19 22  2  0
 22 23  1  0
 23 24  2  0
 24 25  1  0
 25 26  1  0
 26 27  1  0
 26 28  2  0
 28 29  1  0
 29 30  2  0
 30  7  1  0
 16 10  1  0
 24 17  1  0
 30 25  1  0
  1 31  1  0
  1 32  1  0
  1 33  1  0
  2 34  1  0
  2 35  1  0
  3 36  1  0
  6 37  1  0
  6 38  1  0
  7 39  1  6
 11 40  1  0
 12 41  1  0
 15 42  1  0
 16 43  1  0
 18 44  1  0
 21 45  1  0
 21 46  1  0
 21 47  1  0
 22 48  1  0
 23 49  1  0
 27 50  1  0
 27 51  1  0
 27 52  1  0
M  END
>  <meeko>  (6) 
{"is_sidechain": [false], "free_energy": -7.02, "intermolecular_energy": -8.676, "internal_energy": -1.309}

$$$$
3p5o_ligand
     RDKit          3D

 52 55  0  0  0  0  0  0  0  0999 V2000
   30.3200   53.9600    3.3100 C   0  0  0  0  0  0  0  0  0  0  0  0
   29.5830   52.6750    2.9710 C   0  0  0  0  0  0  0  0  0  0  0  0
   29.8530   52.2480    1.6170 N   0  0  0  0  0  0  0  0  0  0  0  0
   29.0850   51.2950    0.9880 C   0  0  0  0  0  0  0  0  0  0  0  0
   28.1800   50.6770    1.5410 O   0  0  0  0  0  0  0  0  0  0  0  0
   29.4150   51.0870   -0.4720 C   0  0  0  0  0  0  0  0  0  0  0  0
   28.1310   50.9960   -1.2980 C   0  0  2  0  0  0  0  0  0  0  0  0
   27.1490   50.2440   -0.5140 N   0  0  0  0  0  0  0  0  0  0  0  0
   25.9270   50.1560   -0.9230 C   0  0  0  0  0  0  0  0  0  0  0  0
   24.9950   49.3350   -0.0800 C   0  0  0  0  0  0  0  0  0  0  0  0
   25.5330   48.3660    0.7780 C   0  0  0  0  0  0  0  0  0  0  0  0
   24.6900   47.5790    1.5670 C   0  0  0  0  0  0  0  0  0  0  0  0
   23.3090   47.7550    1.4910 C   0  0  0  0  0  0  0  0  0  0  0  0
   22.2690   46.7880    2.4600 Cl  0  0  0  0  0  0  0  0  0  0  0  0
   22.7640   48.7050    0.6260 C   0  0  0  0  0  0  0  0  0  0  0  0
   23.6050   49.4930   -0.1640 C   0  0  0  0  0  0  0  0  0  0  0  0
   25.3900   50.8000   -2.1660 C   0  0  0  0  0  0  0  0  0  0  0  0
   24.1480   51.4490   -2.0690 C   0  0  0  0  0  0  0  0  0  0  0  0
   23.5210   51.9860   -3.1940 C   0  0  0  0  0  0  0  0  0  0  0  0
   22.3130   52.5750   -2.9480 O   0  0  0  0  0  0  0  0  0  0  0  0
   21.6900   53.2550   -4.0300 C   0  0  0  0  0  0  0  0  0  0  0  0
   24.1450   51.8830   -4.4340 C   0  0  0  0  0  0  0  0  0  0  0  0
   25.3960   51.2630   -4.5460 C   0  0  0  0  0  0  0  0  0  0  0  0
   26.0310   50.7250   -3.4170 C   0  0  0  0  0  0  0  0  0  0  0  0
   27.3360   50.1820   -3.5420 N   0  0  0  0  0  0  0  0  0  0  0  0
   27.9310   49.5190   -4.6040 C   0  0  0  0  0  0  0  0  0  0  0  0
   27.2550   49.0380   -5.8320 C   0  0  0  0  0  0  0  0  0  0  0  0
   29.1950   49.2790   -4.3140 N   0  0  0  0  0  0  0  0  0  0  0  0
   29.4420   49.7390   -3.0550 N   0  0  0  0  0  0  0  0  0  0  0  0
   28.3340   50.2840   -2.5950 C   0  0  0  0  0  0  0  0  0  0  0  0
   30.3827   54.0694    4.4028 H   0  0  0  0  0  0  0  0  0  0  0  0
   31.3345   53.9236    2.8863 H   0  0  0  0  0  0  0  0  0  0  0  0
   29.7763   54.8172    2.8863 H   0  0  0  0  0  0  0  0  0  0  0  0
   29.9051   51.8850    3.6653 H   0  0  0  0  0  0  0  0  0  0  0  0
   28.5032   52.8632    3.0635 H   0  0  0  0  0  0  0  0  0  0  0  0
   30.3630   52.8980    1.0180 H   0  0  0  0  0  0  0  0  0  0  0  0
   30.0189   51.9331   -0.8318 H   0  0  0  0  0  0  0  0  0  0  0  0
   29.9786   50.1487   -0.5816 H   0  0  0  0  0  0  0  0  0  0  0  0
   27.7960   52.0188   -1.5254 H   0  0  0  0  0  0  0  0  0  0  0  0
   26.6226   48.2246    0.8304 H   0  0  0  0  0  0  0  0  0  0  0  0
   25.1141   46.8239    2.2452 H   0  0  0  0  0  0  0  0  0  0  0  0
   21.6731   48.8333    0.5662 H   0  0  0  0  0  0  0  0  0  0  0  0
   23.1763   50.2370   -0.8515 H   0  0  0  0  0  0  0  0  0  0  0  0
   23.6601   51.5356   -1.0869 H   0  0  0  0  0  0  0  0  0  0  0  0
   20.9961   54.0123   -3.6363 H   0  0  0  0  0  0  0  0  0  0  0  0
   22.4582   53.7461   -4.6454 H   0  0  0  0  0  0  0  0  0  0  0  0
   21.1337   52.5327   -4.6454 H   0  0  0  0  0  0  0  0  0  0  0  0
   23.6535   52.2903   -5.3299 H   0  0  0  0  0  0  0  0  0  0  0  0
   25.8852   51.1974   -5.5290 H   0  0  0  0  0  0  0  0  0  0  0  0
   26.3876   48.4208   -5.5552 H   0  0  0  0  0  0  0  0  0  0  0  0
   26.9171   49.8999   -6.4261 H   0  0  0  0  0  0  0  0  0  0  0  0
   27.9585   48.4363   -6.4261 H   0  0  0  0  0  0  0  0  0  0  0  0
  1  2  1  0
  2  3  1  0
  3  4  1  0
  4  5  2  0
  4  6  1  0
  6  7  1  0
  7  8  1  0
  8  9  2  0
  9 10  1  0
 10 11  2  0
 11 12  1  0
 12 13  2  0
 13 14  1  0
 13 15  1  0
 15 16  2  0
  9 17  1  0
 17 18  2  0
 18 19  1  0
 19 20  1  0
 20 21  1  0
 19 22  2  0
 22 23  1  0
 23 24  2  0
 24 25  1  0
 25 26  1  0
 26 27  1  0
 26 28  2  0
 28 29  1  0
 29 30  2  0
 30  7  1  0
 16 10  1  0
 24 17  1  0
 30 25  1  0
  1 31  1  0
  1 32  1  0
  1 33  1  0
  2 34  1  0
  2 35  1  0
  3 36  1  0
  6 37  1  0
  6 38  1  0
  7 39  1  6
 11 40  1  0
 12 41  1  0
 15 42  1  0
 16 43  1  0
 18 44  1  0
 21 45  1  0
 21 46  1  0
 21 47  1  0
 22 48  1  0
 23 49  1  0
 27 50  1  0
 27 51  1  0
 27 52  1  0
M  END
>  <meeko>  (7) 
{"is_sidechain": [false], "free_energy": -6.973, "intermolecular_energy": -10.789, "internal_energy": 0.864}

$$$$
3p5o_ligand
     RDKit          3D

 52 55  0  0  0  0  0  0  0  0999 V2000
   31.7660   52.8650   -4.8290 C   0  0  0  0  0  0  0  0  0  0  0  0
   31.7610   51.8380   -5.9480 C   0  0  0  0  0  0  0  0  0  0  0  0
   30.5030   51.1290   -6.0140 N   0  0  0  0  0  0  0  0  0  0  0  0
   30.4450   49.7720   -6.2380 C   0  0  0  0  0  0  0  0  0  0  0  0
   31.4290   49.0790   -6.4840 O   0  0  0  0  0  0  0  0  0  0  0  0
   29.0600   49.1760   -6.1200 C   0  0  0  0  0  0  0  0  0  0  0  0
   28.0680   50.2340   -5.6370 C   0  0  2  0  0  0  0  0  0  0  0  0
   28.0360   50.1800   -4.1730 N   0  0  0  0  0  0  0  0  0  0  0  0
   27.3870   51.0780   -3.5080 C   0  0  0  0  0  0  0  0  0  0  0  0
   27.3730   50.9260   -2.0160 C   0  0  0  0  0  0  0  0  0  0  0  0
   26.1740   50.5740   -1.3810 C   0  0  0  0  0  0  0  0  0  0  0  0
   26.1280   50.4360    0.0090 C   0  0  0  0  0  0  0  0  0  0  0  0
   27.2770   50.6600    0.7640 C   0  0  0  0  0  0  0  0  0  0  0  0
   27.2230   50.4910    2.4750 Cl  0  0  0  0  0  0  0  0  0  0  0  0
   28.4720   51.0280    0.1430 C   0  0  0  0  0  0  0  0  0  0  0  0
   28.5200   51.1670   -1.2480 C   0  0  0  0  0  0  0  0  0  0  0  0
   26.6530   52.2340   -4.1190 C   0  0  0  0  0  0  0  0  0  0  0  0
   26.8210   53.4920   -3.5160 C   0  0  0  0  0  0  0  0  0  0  0  0
   26.0990   54.6050   -3.9500 C   0  0  0  0  0  0  0  0  0  0  0  0
   26.3570   55.7560   -3.2620 O   0  0  0  0  0  0  0  0  0  0  0  0
   27.6010   56.3980   -3.5120 C   0  0  0  0  0  0  0  0  0  0  0  0
   25.2020   54.4640   -5.0050 C   0  0  0  0  0  0  0  0  0  0  0  0
   25.0410   53.2240   -5.6350 C   0  0  0  0  0  0  0  0  0  0  0  0
   25.7680   52.1040   -5.2050 C   0  0  0  0  0  0  0  0  0  0  0  0
   25.6530   50.8820   -5.9160 N   0  0  0  0  0  0  0  0  0  0  0  0
   24.5700   50.3360   -6.5890 C   0  0  0  0  0  0  0  0  0  0  0  0
   23.1730   50.8320   -6.5580 C   0  0  0  0  0  0  0  0  0  0  0  0
   24.9460   49.2250   -7.1910 N   0  0  0  0  0  0  0  0  0  0  0  0
   26.2590   49.0000   -6.8980 N   0  0  0  0  0  0  0  0  0  0  0  0
   26.6830   49.9920   -6.1420 C   0  0  0  0  0  0  0  0  0  0  0  0
   31.7635   52.3489   -3.8576 H   0  0  0  0  0  0  0  0  0  0  0  0
   32.6672   53.4906   -4.9095 H   0  0  0  0  0  0  0  0  0  0  0  0
   30.8709   53.4993   -4.9095 H   0  0  0  0  0  0  0  0  0  0  0  0
   31.9316   52.3523   -6.9053 H   0  0  0  0  0  0  0  0  0  0  0  0
   32.5579   51.1068   -5.7474 H   0  0  0  0  0  0  0  0  0  0  0  0
   29.7060   51.5520   -5.5390 H   0  0  0  0  0  0  0  0  0  0  0  0
   28.7409   48.8013   -7.1038 H   0  0  0  0  0  0  0  0  0  0  0  0
   29.0858   48.3506   -5.3933 H   0  0  0  0  0  0  0  0  0  0  0  0
   28.3975   51.2127   -6.0160 H   0  0  0  0  0  0  0  0  0  0  0  0
   25.2661   50.4058   -1.9788 H   0  0  0  0  0  0  0  0  0  0  0  0
   25.1882   50.1516    0.5049 H   0  0  0  0  0  0  0  0  0  0  0  0
   29.3739   51.2083    0.7464 H   0  0  0  0  0  0  0  0  0  0  0  0
   29.4580   51.4655   -1.7389 H   0  0  0  0  0  0  0  0  0  0  0  0
   27.5349   53.6018   -2.6864 H   0  0  0  0  0  0  0  0  0  0  0  0
   28.0838   56.6471   -2.5555 H   0  0  0  0  0  0  0  0  0  0  0  0
   28.2526   55.7236   -4.0869 H   0  0  0  0  0  0  0  0  0  0  0  0
   27.4289   57.3199   -4.0869 H   0  0  0  0  0  0  0  0  0  0  0  0
   24.6168   55.3310   -5.3454 H   0  0  0  0  0  0  0  0  0  0  0  0
   24.3377   53.1271   -6.4752 H   0  0  0  0  0  0  0  0  0  0  0  0
   22.8480   50.9474   -5.5135 H   0  0  0  0  0  0  0  0  0  0  0  0
   23.1178   51.8047   -7.0688 H   0  0  0  0  0  0  0  0  0  0  0  0
   22.5168   50.1119   -7.0688 H   0  0  0  0  0  0  0  0  0  0  0  0
  1  2  1  0
  2  3  1  0
  3  4  1  0
  4  5  2  0
  4  6  1  0
  6  7  1  0
  7  8  1  0
  8  9  2  0
  9 10  1  0
 10 11  2  0
 11 12  1  0
 12 13  2  0
 13 14  1  0
 13 15  1  0
 15 16  2  0
  9 17  1  0
 17 18  2  0
 18 19  1  0
 19 20  1  0
 20 21  1  0
 19 22  2  0
 22 23  1  0
 23 24  2  0
 24 25  1  0
 25 26  1  0
 26 27  1  0
 26 28  2  0
 28 29  1  0
 29 30  2  0
 30  7  1  0
 16 10  1  0
 24 17  1  0
 30 25  1  0
  1 31  1  0
  1 32  1  0
  1 33  1  0
  2 34  1  0
  2 35  1  0
  3 36  1  0
  6 37  1  0
  6 38  1  0
  7 39  1  1
 11 40  1  0
 12 41  1  0
 15 42  1  0
 16 43  1  0
 18 44  1  0
 21 45  1  0
 21 46  1  0
 21 47  1  0
 22 48  1  0
 23 49  1  0
 27 50  1  0
 27 51  1  0
 27 52  1  0
M  END
>  <meeko>  (8) 
{"is_sidechain": [false], "free_energy": -6.902, "intermolecular_energy": -8.449, "internal_energy": -1.383}

$$$$
3p5o_ligand
     RDKit          3D

 52 55  0  0  0  0  0  0  0  0999 V2000
   21.8490   47.9310    1.0370 C   0  0  0  0  0  0  0  0  0  0  0  0
   23.3350   47.6920    0.8290 C   0  0  0  0  0  0  0  0  0  0  0  0
   24.0550   48.9330    0.6560 N   0  0  0  0  0  0  0  0  0  0  0  0
   25.4290   48.9890    0.7120 C   0  0  0  0  0  0  0  0  0  0  0  0
   26.1390   48.0280    0.9940 O   0  0  0  0  0  0  0  0  0  0  0  0
   26.0160   50.3360    0.3550 C   0  0  0  0  0  0  0  0  0  0  0  0
   26.4590   50.3490   -1.1090 C   0  0  2  0  0  0  0  0  0  0  0  0
   27.5510   51.3170   -1.2360 N   0  0  0  0  0  0  0  0  0  0  0  0
   28.2070   51.4080   -2.3450 C   0  0  0  0  0  0  0  0  0  0  0  0
   29.2840   52.4510   -2.4030 C   0  0  0  0  0  0  0  0  0  0  0  0
   29.3190   53.3290   -3.4960 C   0  0  0  0  0  0  0  0  0  0  0  0
   30.3160   54.3030   -3.5830 C   0  0  0  0  0  0  0  0  0  0  0  0
   31.2840   54.3940   -2.5830 C   0  0  0  0  0  0  0  0  0  0  0  0
   32.5120   55.5930   -2.6870 Cl  0  0  0  0  0  0  0  0  0  0  0  0
   31.2660   53.5140   -1.5000 C   0  0  0  0  0  0  0  0  0  0  0  0
   30.2700   52.5370   -1.4120 C   0  0  0  0  0  0  0  0  0  0  0  0
   27.9610   50.5620   -3.5590 C   0  0  0  0  0  0  0  0  0  0  0  0
   29.0870   50.0410   -4.2180 C   0  0  0  0  0  0  0  0  0  0  0  0
   28.9630   49.3300   -5.4120 C   0  0  0  0  0  0  0  0  0  0  0  0
   30.1450   48.8950   -5.9430 O   0  0  0  0  0  0  0  0  0  0  0  0
   31.0670   49.8880   -6.3760 C   0  0  0  0  0  0  0  0  0  0  0  0
   27.6980   49.1290   -5.9550 C   0  0  0  0  0  0  0  0  0  0  0  0
   26.5610   49.6190   -5.2990 C   0  0  0  0  0  0  0  0  0  0  0  0
   26.6810   50.3300   -4.0960 C   0  0  0  0  0  0  0  0  0  0  0  0
   25.5110   50.7380   -3.4070 N   0  0  0  0  0  0  0  0  0  0  0  0
   24.2710   51.1210   -3.8970 C   0  0  0  0  0  0  0  0  0  0  0  0
   23.9280   51.3870   -5.3140 C   0  0  0  0  0  0  0  0  0  0  0  0
   23.4470   51.3220   -2.8870 N   0  0  0  0  0  0  0  0  0  0  0  0
   24.1310   51.1160   -1.7260 N   0  0  0  0  0  0  0  0  0  0  0  0
   25.3610   50.7600   -2.0350 C   0  0  0  0  0  0  0  0  0  0  0  0
   21.6306   47.9661    2.1145 H   0  0  0  0  0  0  0  0  0  0  0  0
   21.5629   48.8867    0.5735 H   0  0  0  0  0  0  0  0  0  0  0  0
   21.2777   47.1132    0.5735 H   0  0  0  0  0  0  0  0  0  0  0  0
   23.7379   47.1650    1.7065 H   0  0  0  0  0  0  0  0  0  0  0  0
   23.4621   47.0908   -0.0834 H   0  0  0  0  0  0  0  0  0  0  0  0
   23.5830   49.6750    0.1390 H   0  0  0  0  0  0  0  0  0  0  0  0
   25.2565   51.1162    0.5116 H   0  0  0  0  0  0  0  0  0  0  0  0
   26.8895   50.5276    0.9956 H   0  0  0  0  0  0  0  0  0  0  0  0
   26.7658   49.3292   -1.3845 H   0  0  0  0  0  0  0  0  0  0  0  0
   28.5588   53.2502   -4.2872 H   0  0  0  0  0  0  0  0  0  0  0  0
   30.3378   54.9959   -4.4371 H   0  0  0  0  0  0  0  0  0  0  0  0
   32.0346   53.5890   -0.7166 H   0  0  0  0  0  0  0  0  0  0  0  0
   30.2607   51.8358   -0.5645 H   0  0  0  0  0  0  0  0  0  0  0  0
   30.0858   50.1966   -3.7842 H   0  0  0  0  0  0  0  0  0  0  0  0
   31.5194   50.3753   -5.4997 H   0  0  0  0  0  0  0  0  0  0  0  0
   31.8554   49.4172   -6.9815 H   0  0  0  0  0  0  0  0  0  0  0  0
   30.5391   50.6394   -6.9815 H   0  0  0  0  0  0  0  0  0  0  0  0
   27.5899   48.5829   -6.9037 H   0  0  0  0  0  0  0  0  0  0  0  0
   25.5648   49.4444   -5.7316 H   0  0  0  0  0  0  0  0  0  0  0  0
   23.0595   52.0605   -5.3608 H   0  0  0  0  0  0  0  0  0  0  0  0
   24.7853   51.8587   -5.8165 H   0  0  0  0  0  0  0  0  0  0  0  0
   23.6845   50.4392   -5.8165 H   0  0  0  0  0  0  0  0  0  0  0  0
  1  2  1  0
  2  3  1  0
  3  4  1  0
  4  5  2  0
  4  6  1  0
  6  7  1  0
  7  8  1  0
  8  9  2  0
  9 10  1  0
 10 11  2  0
 11 12  1  0
 12 13  2  0
 13 14  1  0
 13 15  1  0
 15 16  2  0
  9 17  1  0
 17 18  2  0
 18 19  1  0
 19 20  1  0
 20 21  1  0
 19 22  2  0
 22 23  1  0
 23 24  2  0
 24 25  1  0
 25 26  1  0
 26 27  1  0
 26 28  2  0
 28 29  1  0
 29 30  2  0
 30  7  1  0
 16 10  1  0
 24 17  1  0
 30 25  1  0
  1 31  1  0
  1 32  1  0
  1 33  1  0
  2 34  1  0
  2 35  1  0
  3 36  1  0
  6 37  1  0
  6 38  1  0
  7 39  1  6
 11 40  1  0
 12 41  1  0
 15 42  1  0
 16 43  1  0
 18 44  1  0
 21 45  1  0
 21 46  1  0
 21 47  1  0
 22 48  1  0
 23 49  1  0
 27 50  1  0
 27 51  1  0
 27 52  1  0
M  END
>  <meeko>  (9) 
{"is_sidechain": [false], "free_energy": -6.743, "intermolecular_energy": -8.57, "internal_energy": -1.057}

$$$$
