4k77_ligand
     RDKit          3D

 34 36  0  0  0  0  0  0  0  0999 V2000
   15.1460    0.5090   -0.4360 O   0  0  0  0  0  0  0  0  0  0  0  0
   14.3760    1.4480   -0.6060 C   0  0  0  0  0  0  0  0  0  0  0  0
   13.1760    1.2640   -1.2690 N   0  0  0  0  0  0  0  0  0  0  0  0
   12.2560    2.2510   -1.4930 C   0  0  0  0  0  0  0  0  0  0  0  0
   12.4750    3.5070   -1.0870 C   0  0  0  0  0  0  0  0  0  0  0  0
   13.7260    3.8330   -0.3910 C   0  0  0  0  0  0  0  0  0  0  0  0
   14.0710    5.1030    0.0660 C   0  0  0  0  0  0  0  0  0  0  0  0
   13.1930    6.1850   -0.1700 N   0  0  0  0  0  0  0  0  0  0  0  0
   12.3190    6.5880    0.9460 C   0  0  0  0  0  0  0  0  0  0  0  0
   12.9440    7.8150    1.6470 C   0  0  0  0  0  0  0  0  0  0  0  0
   12.5100    9.1270    1.0010 C   0  0  0  0  0  0  0  0  0  0  0  0
   10.9960    9.3260    1.0840 C   0  0  0  0  0  0  0  0  0  0  0  0
   10.2170    8.0160    1.1840 C   0  0  0  0  0  0  0  0  0  0  0  0
   10.9010    6.8930    0.4140 C   0  0  0  0  0  0  0  0  0  0  0  0
   15.2180    5.3210    0.7360 N   0  0  0  0  0  0  0  0  0  0  0  0
   16.0360    4.2770    0.9370 C   0  0  0  0  0  0  0  0  0  0  0  0
   15.8250    3.0280    0.5290 N   0  0  0  0  0  0  0  0  0  0  0  0
   14.6610    2.8400   -0.1280 C   0  0  0  0  0  0  0  0  0  0  0  0
   12.9960    0.3150   -1.5780 H   0  0  0  0  0  0  0  0  0  0  0  0
   11.3194    2.0079   -2.0162 H   0  0  0  0  0  0  0  0  0  0  0  0
   11.7240    4.2889   -1.2731 H   0  0  0  0  0  0  0  0  0  0  0  0
   13.7560    6.9640   -0.5050 H   0  0  0  0  0  0  0  0  0  0  0  0
   12.2287    5.7741    1.6805 H   0  0  0  0  0  0  0  0  0  0  0  0
   12.6315    7.8184    2.7017 H   0  0  0  0  0  0  0  0  0  0  0  0
   14.0374    7.7374    1.5552 H   0  0  0  0  0  0  0  0  0  0  0  0
   13.0078    9.9605    1.5181 H   0  0  0  0  0  0  0  0  0  0  0  0
   12.7935    9.0958   -0.0614 H   0  0  0  0  0  0  0  0  0  0  0  0
   10.7723    9.9335    1.9733 H   0  0  0  0  0  0  0  0  0  0  0  0
   10.6818    9.8206    0.1531 H   0  0  0  0  0  0  0  0  0  0  0  0
   10.1401    7.7270    2.2426 H   0  0  0  0  0  0  0  0  0  0  0  0
    9.2209    8.1752    0.7453 H   0  0  0  0  0  0  0  0  0  0  0  0
   10.2890    5.9830    0.4997 H   0  0  0  0  0  0  0  0  0  0  0  0
   10.9996    7.2175   -0.6324 H   0  0  0  0  0  0  0  0  0  0  0  0
   16.9669    4.4712    1.4900 H   0  0  0  0  0  0  0  0  0  0  0  0
  1  2  2  0
  2  3  1  0
  3  4  1  0
  4  5  2  0
  5  6  1  0
  6  7  2  0
  7  8  1  0
  8  9  1  0
  9 10  1  0
 10 11  1  0
 11 12  1  0
 12 13  1  0
 13 14  1  0
  7 15  1  0
 15 16  2  0
 16 17  1  0
 17 18  2  0
 18  2  1  0
 18  6  1  0
 14  9  1  0
  3 19  1  0
  4 20  1  0
  5 21  1  0
  8 22  1  0
  9 23  1  0
 10 24  1  0
 10 25  1  0
 11 26  1  0
 11 27  1  0
 12 28  1  0
 12 29  1  0
 13 30  1  0
 13 31  1  0
 14 32  1  0
 14 33  1  0
 16 34  1  0
M  END
>  <meeko>  (1) 
{"is_sidechain": [false], "free_energy": -8.05, "intermolecular_energy": -8.991, "internal_energy": -0.386}

$$$$
4k77_ligand
     RDKit          3D

 34 36  0  0  0  0  0  0  0  0999 V2000
   15.1080    0.1660   -0.2260 O   0  0  0  0  0  0  0  0  0  0  0  0
   14.6290    1.2920   -0.3120 C   0  0  0  0  0  0  0  0  0  0  0  0
   13.3870    1.4860   -0.8900 N   0  0  0  0  0  0  0  0  0  0  0  0
   12.7750    2.7020   -1.0170 C   0  0  0  0  0  0  0  0  0  0  0  0
   13.3670    3.8240   -0.5930 C   0  0  0  0  0  0  0  0  0  0  0  0
   14.7010    3.7500    0.0170 C   0  0  0  0  0  0  0  0  0  0  0  0
   15.4210    4.8470    0.4840 C   0  0  0  0  0  0  0  0  0  0  0  0
   14.8760    6.1430    0.3440 N   0  0  0  0  0  0  0  0  0  0  0  0
   14.7050    6.9300    1.5780 C   0  0  0  0  0  0  0  0  0  0  0  0
   15.7490    8.0690    1.5870 C   0  0  0  0  0  0  0  0  0  0  0  0
   15.2400    9.3170    0.8730 C   0  0  0  0  0  0  0  0  0  0  0  0
   13.9930    9.8890    1.5490 C   0  0  0  0  0  0  0  0  0  0  0  0
   13.1880    8.8430    2.3190 C   0  0  0  0  0  0  0  0  0  0  0  0
   13.2620    7.4740    1.6550 C   0  0  0  0  0  0  0  0  0  0  0  0
   16.6230    4.6990    1.0740 N   0  0  0  0  0  0  0  0  0  0  0  0
   17.1200    3.4580    1.1840 C   0  0  0  0  0  0  0  0  0  0  0  0
   16.5360    2.3410    0.7570 N   0  0  0  0  0  0  0  0  0  0  0  0
   15.3280    2.5210    0.1830 C   0  0  0  0  0  0  0  0  0  0  0  0
   12.9250    0.6420   -1.2110 H   0  0  0  0  0  0  0  0  0  0  0  0
   11.7771    2.7587   -1.4764 H   0  0  0  0  0  0  0  0  0  0  0  0
   12.8591    4.7938   -0.7003 H   0  0  0  0  0  0  0  0  0  0  0  0
   15.4430    6.6380   -0.3410 H   0  0  0  0  0  0  0  0  0  0  0  0
   14.8670    6.2999    2.4649 H   0  0  0  0  0  0  0  0  0  0  0  0
   15.9834    8.3275    2.6302 H   0  0  0  0  0  0  0  0  0  0  0  0
   16.6434    7.7140    1.0541 H   0  0  0  0  0  0  0  0  0  0  0  0
   16.0319   10.0804    0.8821 H   0  0  0  0  0  0  0  0  0  0  0  0
   14.9729    9.0370   -0.1567 H   0  0  0  0  0  0  0  0  0  0  0  0
   14.3066   10.6749    2.2519 H   0  0  0  0  0  0  0  0  0  0  0  0
   13.3418   10.2797    0.7532 H   0  0  0  0  0  0  0  0  0  0  0  0
   13.5887    8.7658    3.3405 H   0  0  0  0  0  0  0  0  0  0  0  0
   12.1352    9.1615    2.3315 H   0  0  0  0  0  0  0  0  0  0  0  0
   12.6494    6.7676    2.2344 H   0  0  0  0  0  0  0  0  0  0  0  0
   12.8907    7.5821    0.6252 H   0  0  0  0  0  0  0  0  0  0  0  0
   18.1003    3.3540    1.6720 H   0  0  0  0  0  0  0  0  0  0  0  0
  1  2  2  0
  2  3  1  0
  3  4  1  0
  4  5  2  0
  5  6  1  0
  6  7  2  0
  7  8  1  0
  8  9  1  0
  9 10  1  0
 10 11  1  0
 11 12  1  0
 12 13  1  0
 13 14  1  0
  7 15  1  0
 15 16  2  0
 16 17  1  0
 17 18  2  0
 18  2  1  0
 18  6  1  0
 14  9  1  0
  3 19  1  0
  4 20  1  0
  5 21  1  0
  8 22  1  0
  9 23  1  0
 10 24  1  0
 10 25  1  0
 11 26  1  0
 11 27  1  0
 12 28  1  0
 12 29  1  0
 13 30  1  0
 13 31  1  0
 14 32  1  0
 14 33  1  0
 16 34  1  0
M  END
>  <meeko>  (2) 
{"is_sidechain": [false], "free_energy": -7.905, "intermolecular_energy": -8.855, "internal_energy": -0.361}

$$$$
4k77_ligand
     RDKit          3D

 34 36  0  0  0  0  0  0  0  0999 V2000
   15.1100    0.5400   -0.4760 O   0  0  0  0  0  0  0  0  0  0  0  0
   15.0830    1.7380   -0.2150 C   0  0  0  0  0  0  0  0  0  0  0  0
   16.1440    2.3420    0.4340 N   0  0  0  0  0  0  0  0  0  0  0  0
   16.2010    3.6710    0.7530 C   0  0  0  0  0  0  0  0  0  0  0  0
   15.1900    4.4970    0.4650 C   0  0  0  0  0  0  0  0  0  0  0  0
   13.9940    3.9680   -0.2050 C   0  0  0  0  0  0  0  0  0  0  0  0
   12.8750    4.7250   -0.5440 C   0  0  0  0  0  0  0  0  0  0  0  0
   12.8390    6.0960   -0.2040 N   0  0  0  0  0  0  0  0  0  0  0  0
   12.0150    6.4730    0.9580 C   0  0  0  0  0  0  0  0  0  0  0  0
   12.8560    7.3730    1.8900 C   0  0  0  0  0  0  0  0  0  0  0  0
   12.7580    8.8460    1.5050 C   0  0  0  0  0  0  0  0  0  0  0  0
   11.3240    9.3650    1.6080 C   0  0  0  0  0  0  0  0  0  0  0  0
   10.2700    8.2710    1.4430 C   0  0  0  0  0  0  0  0  0  0  0  0
   10.7310    7.1850    0.4780 C   0  0  0  0  0  0  0  0  0  0  0  0
   11.8310    4.1820   -1.1970 N   0  0  0  0  0  0  0  0  0  0  0  0
   11.8890    2.8760   -1.4980 C   0  0  0  0  0  0  0  0  0  0  0  0
   12.8910    2.0500   -1.2060 N   0  0  0  0  0  0  0  0  0  0  0  0
   13.9280    2.6280   -0.5640 C   0  0  0  0  0  0  0  0  0  0  0  0
   16.9200    1.7270    0.6540 H   0  0  0  0  0  0  0  0  0  0  0  0
   17.0954    4.0675    1.2559 H   0  0  0  0  0  0  0  0  0  0  0  0
   15.2529    5.5634    0.7273 H   0  0  0  0  0  0  0  0  0  0  0  0
   13.8020    6.4070   -0.0970 H   0  0  0  0  0  0  0  0  0  0  0  0
   11.7061    5.5796    1.5205 H   0  0  0  0  0  0  0  0  0  0  0  0
   12.4949    7.2511    2.9219 H   0  0  0  0  0  0  0  0  0  0  0  0
   13.9087    7.0674    1.7975 H   0  0  0  0  0  0  0  0  0  0  0  0
   13.3987    9.4336    2.1789 H   0  0  0  0  0  0  0  0  0  0  0  0
   13.0848    8.9488    0.4597 H   0  0  0  0  0  0  0  0  0  0  0  0
   11.1917    9.8307    2.5958 H   0  0  0  0  0  0  0  0  0  0  0  0
   11.1785   10.0829    0.7874 H   0  0  0  0  0  0  0  0  0  0  0  0
   10.0725    7.8153    2.4245 H   0  0  0  0  0  0  0  0  0  0  0  0
    9.3595    8.7313    1.0317 H   0  0  0  0  0  0  0  0  0  0  0  0
    9.9296    6.4381    0.3787 H   0  0  0  0  0  0  0  0  0  0  0  0
   10.9563    7.6671   -0.4847 H   0  0  0  0  0  0  0  0  0  0  0  0
   11.0297    2.4486   -2.0354 H   0  0  0  0  0  0  0  0  0  0  0  0
  1  2  2  0
  2  3  1  0
  3  4  1  0
  4  5  2  0
  5  6  1  0
  6  7  2  0
  7  8  1  0
  8  9  1  0
  9 10  1  0
 10 11  1  0
 11 12  1  0
 12 13  1  0
 13 14  1  0
  7 15  1  0
 15 16  2  0
 16 17  1  0
 17 18  2  0
 18  2  1  0
 18  6  1  0
 14  9  1  0
  3 19  1  0
  4 20  1  0
  5 21  1  0
  8 22  1  0
  9 23  1  0
 10 24  1  0
 10 25  1  0
 11 26  1  0
 11 27  1  0
 12 28  1  0
 12 29  1  0
 13 30  1  0
 13 31  1  0
 14 32  1  0
 14 33  1  0
 16 34  1  0
M  END
>  <meeko>  (3) 
{"is_sidechain": [false], "free_energy": -7.884, "intermolecular_energy": -8.761, "internal_energy": -0.431}

$$$$
4k77_ligand
     RDKit          3D

 34 36  0  0  0  0  0  0  0  0999 V2000
   12.3660   10.5170    2.8900 O   0  0  0  0  0  0  0  0  0  0  0  0
   12.0690    9.5430    2.2050 C   0  0  0  0  0  0  0  0  0  0  0  0
   10.7470    9.1600    2.0630 N   0  0  0  0  0  0  0  0  0  0  0  0
   10.3280    8.0960    1.3120 C   0  0  0  0  0  0  0  0  0  0  0  0
   11.2010    7.3200    0.6610 C   0  0  0  0  0  0  0  0  0  0  0  0
   12.6370    7.6120    0.7550 C   0  0  0  0  0  0  0  0  0  0  0  0
   13.6390    6.8700    0.1330 C   0  0  0  0  0  0  0  0  0  0  0  0
   13.2880    5.7290   -0.6210 N   0  0  0  0  0  0  0  0  0  0  0  0
   13.2300    4.4450    0.1010 C   0  0  0  0  0  0  0  0  0  0  0  0
   11.9050    3.7350   -0.2570 C   0  0  0  0  0  0  0  0  0  0  0  0
   12.0360    2.8770   -1.5110 C   0  0  0  0  0  0  0  0  0  0  0  0
   13.0700    1.7650   -1.3330 C   0  0  0  0  0  0  0  0  0  0  0  0
   14.1410    2.0950   -0.2950 C   0  0  0  0  0  0  0  0  0  0  0  0
   14.4590    3.5840   -0.2660 C   0  0  0  0  0  0  0  0  0  0  0  0
   14.9350    7.2230    0.2270 N   0  0  0  0  0  0  0  0  0  0  0  0
   15.2390    8.3070    0.9580 C   0  0  0  0  0  0  0  0  0  0  0  0
   14.3740    9.0770    1.6130 N   0  0  0  0  0  0  0  0  0  0  0  0
   13.0820    8.7040    1.4880 C   0  0  0  0  0  0  0  0  0  0  0  0
   10.0750    9.7430    2.5480 H   0  0  0  0  0  0  0  0  0  0  0  0
    9.2527    7.8747    1.2424 H   0  0  0  0  0  0  0  0  0  0  0  0
   10.8463    6.4698    0.0599 H   0  0  0  0  0  0  0  0  0  0  0  0
   12.4080    5.9350   -1.0910 H   0  0  0  0  0  0  0  0  0  0  0  0
   13.2556    4.6103    1.1882 H   0  0  0  0  0  0  0  0  0  0  0  0
   11.6088    3.0911    0.5842 H   0  0  0  0  0  0  0  0  0  0  0  0
   11.1477    4.5085   -0.4527 H   0  0  0  0  0  0  0  0  0  0  0  0
   11.0596    2.4227   -1.7351 H   0  0  0  0  0  0  0  0  0  0  0  0
   12.3693    3.5249   -2.3351 H   0  0  0  0  0  0  0  0  0  0  0  0
   12.5476    0.8501   -1.0167 H   0  0  0  0  0  0  0  0  0  0  0  0
   13.5810    1.6382   -2.2988 H   0  0  0  0  0  0  0  0  0  0  0  0
   13.7812    1.7881    0.6981 H   0  0  0  0  0  0  0  0  0  0  0  0
   15.0594    1.5539   -0.5667 H   0  0  0  0  0  0  0  0  0  0  0  0
   15.2489    3.7615    0.4786 H   0  0  0  0  0  0  0  0  0  0  0  0
   14.7819    3.8763   -1.2761 H   0  0  0  0  0  0  0  0  0  0  0  0
   16.3016    8.5843    1.0214 H   0  0  0  0  0  0  0  0  0  0  0  0
  1  2  2  0
  2  3  1  0
  3  4  1  0
  4  5  2  0
  5  6  1  0
  6  7  2  0
  7  8  1  0
  8  9  1  0
  9 10  1  0
 10 11  1  0
 11 12  1  0
 12 13  1  0
 13 14  1  0
  7 15  1  0
 15 16  2  0
 16 17  1  0
 17 18  2  0
 18  2  1  0
 18  6  1  0
 14  9  1  0
  3 19  1  0
  4 20  1  0
  5 21  1  0
  8 22  1  0
  9 23  1  0
 10 24  1  0
 10 25  1  0
 11 26  1  0
 11 27  1  0
 12 28  1  0
 12 29  1  0
 13 30  1  0
 13 31  1  0
 14 32  1  0
 14 33  1  0
 16 34  1  0
M  END
>  <meeko>  (4) 
{"is_sidechain": [false], "free_energy": -7.718, "intermolecular_energy": -8.599, "internal_energy": -0.408}

$$$$
4k77_ligand
     RDKit          3D

 34 36  0  0  0  0  0  0  0  0999 V2000
   14.9540    0.5150   -0.3330 O   0  0  0  0  0  0  0  0  0  0  0  0
   15.3210    1.6410   -0.0170 C   0  0  0  0  0  0  0  0  0  0  0  0
   16.5630    1.8420    0.5580 N   0  0  0  0  0  0  0  0  0  0  0  0
   17.0550    3.0630    0.9300 C   0  0  0  0  0  0  0  0  0  0  0  0
   16.3340    4.1780    0.7730 C   0  0  0  0  0  0  0  0  0  0  0  0
   14.9870    4.0910    0.1940 C   0  0  0  0  0  0  0  0  0  0  0  0
   14.1390    5.1780   -0.0060 C   0  0  0  0  0  0  0  0  0  0  0  0
   14.5570    6.4650    0.3960 N   0  0  0  0  0  0  0  0  0  0  0  0
   13.9630    7.0030    1.6330 C   0  0  0  0  0  0  0  0  0  0  0  0
   15.1030    7.4420    2.5800 C   0  0  0  0  0  0  0  0  0  0  0  0
   15.5420    8.8790    2.3190 C   0  0  0  0  0  0  0  0  0  0  0  0
   14.4030    9.8710    2.5510 C   0  0  0  0  0  0  0  0  0  0  0  0
   13.0160    9.2560    2.3660 C   0  0  0  0  0  0  0  0  0  0  0  0
   13.0180    8.1760    1.2920 C   0  0  0  0  0  0  0  0  0  0  0  0
   12.9310    5.0290   -0.5840 N   0  0  0  0  0  0  0  0  0  0  0  0
   12.5570    3.7930   -0.9470 C   0  0  0  0  0  0  0  0  0  0  0  0
   13.2690    2.6810   -0.7860 N   0  0  0  0  0  0  0  0  0  0  0  0
   14.4790    2.8650   -0.2170 C   0  0  0  0  0  0  0  0  0  0  0  0
   17.1220    1.0040    0.6780 H   0  0  0  0  0  0  0  0  0  0  0  0
   18.0626    3.1287    1.3664 H   0  0  0  0  0  0  0  0  0  0  0  0
   16.7461    5.1522    1.0749 H   0  0  0  0  0  0  0  0  0  0  0  0
   15.5740    6.4520    0.4440 H   0  0  0  0  0  0  0  0  0  0  0  0
   13.3632    6.2332    2.1406 H   0  0  0  0  0  0  0  0  0  0  0  0
   14.7520    7.3612    3.6194 H   0  0  0  0  0  0  0  0  0  0  0  0
   15.9665    6.7851    2.3991 H   0  0  0  0  0  0  0  0  0  0  0  0
   16.3729    9.1261    2.9961 H   0  0  0  0  0  0  0  0  0  0  0  0
   15.8535    8.9558    1.2668 H   0  0  0  0  0  0  0  0  0  0  0  0
   14.4796   10.2559    3.5786 H   0  0  0  0  0  0  0  0  0  0  0  0
   14.5080   10.6678    1.7999 H   0  0  0  0  0  0  0  0  0  0  0  0
   12.6933    8.8108    3.3187 H   0  0  0  0  0  0  0  0  0  0  0  0
   12.3266   10.0529    2.0501 H   0  0  0  0  0  0  0  0  0  0  0  0
   11.9956    7.7849    1.1834 H   0  0  0  0  0  0  0  0  0  0  0  0
   13.3777    8.6340    0.3588 H   0  0  0  0  0  0  0  0  0  0  0  0
   11.5702    3.6894   -1.4218 H   0  0  0  0  0  0  0  0  0  0  0  0
  1  2  2  0
  2  3  1  0
  3  4  1  0
  4  5  2  0
  5  6  1  0
  6  7  2  0
  7  8  1  0
  8  9  1  0
  9 10  1  0
 10 11  1  0
 11 12  1  0
 12 13  1  0
 13 14  1  0
  7 15  1  0
 15 16  2  0
 16 17  1  0
 17 18  2  0
 18  2  1  0
 18  6  1  0
 14  9  1  0
  3 19  1  0
  4 20  1  0
  5 21  1  0
  8 22  1  0
  9 23  1  0
 10 24  1  0
 10 25  1  0
 11 26  1  0
 11 27  1  0
 12 28  1  0
 12 29  1  0
 13 30  1  0
 13 31  1  0
 14 32  1  0
 14 33  1  0
 16 34  1  0
M  END
>  <meeko>  (5) 
{"is_sidechain": [false], "free_energy": -7.558, "intermolecular_energy": -8.387, "internal_energy": -0.441}

$$$$
4k77_ligand
     RDKit          3D

 34 36  0  0  0  0  0  0  0  0999 V2000
   15.3740   10.5500    1.7380 O   0  0  0  0  0  0  0  0  0  0  0  0
   15.2880    9.3270    1.7070 C   0  0  0  0  0  0  0  0  0  0  0  0
   16.3710    8.5360    2.0460 N   0  0  0  0  0  0  0  0  0  0  0  0
   16.3590    7.1680    2.0490 C   0  0  0  0  0  0  0  0  0  0  0  0
   15.2670    6.4840    1.6950 C   0  0  0  0  0  0  0  0  0  0  0  0
   14.0570    7.2120    1.2920 C   0  0  0  0  0  0  0  0  0  0  0  0
   12.8660    6.6110    0.8910 C   0  0  0  0  0  0  0  0  0  0  0  0
   12.7910    5.2020    0.8230 N   0  0  0  0  0  0  0  0  0  0  0  0
   12.9750    4.5880   -0.5040 C   0  0  0  0  0  0  0  0  0  0  0  0
   14.3850    3.9580   -0.5660 C   0  0  0  0  0  0  0  0  0  0  0  0
   14.3960    2.5260   -0.0430 C   0  0  0  0  0  0  0  0  0  0  0  0
   13.4940    1.6120   -0.8740 C   0  0  0  0  0  0  0  0  0  0  0  0
   12.3590    2.3560   -1.5750 C   0  0  0  0  0  0  0  0  0  0  0  0
   11.8680    3.5400   -0.7520 C   0  0  0  0  0  0  0  0  0  0  0  0
   11.7810    7.3440    0.5760 N   0  0  0  0  0  0  0  0  0  0  0  0
   11.8850    8.6800    0.6400 C   0  0  0  0  0  0  0  0  0  0  0  0
   12.9720    9.3640    0.9850 N   0  0  0  0  0  0  0  0  0  0  0  0
   14.0390    8.6010    1.3080 C   0  0  0  0  0  0  0  0  0  0  0  0
   17.2050    9.0430    2.3210 H   0  0  0  0  0  0  0  0  0  0  0  0
   17.2651    6.6209    2.3484 H   0  0  0  0  0  0  0  0  0  0  0  0
   15.2744    5.3841    1.7054 H   0  0  0  0  0  0  0  0  0  0  0  0
   13.4510    4.8310    1.5030 H   0  0  0  0  0  0  0  0  0  0  0  0
   12.8950    5.3464   -1.2967 H   0  0  0  0  0  0  0  0  0  0  0  0
   14.7274    3.9566   -1.6114 H   0  0  0  0  0  0  0  0  0  0  0  0
   15.0523    4.5569    0.0713 H   0  0  0  0  0  0  0  0  0  0  0  0
   15.4256    2.1407   -0.0811 H   0  0  0  0  0  0  0  0  0  0  0  0
   14.0159    2.5356    0.9892 H   0  0  0  0  0  0  0  0  0  0  0  0
   14.1098    1.1152   -1.6382 H   0  0  0  0  0  0  0  0  0  0  0  0
   13.0324    0.8932   -0.1810 H   0  0  0  0  0  0  0  0  0  0  0  0
   12.7203    2.7230   -2.5470 H   0  0  0  0  0  0  0  0  0  0  0  0
   11.5196    1.6570   -1.7045 H   0  0  0  0  0  0  0  0  0  0  0  0
   11.0387    4.0233   -1.2893 H   0  0  0  0  0  0  0  0  0  0  0  0
   11.5463    3.1558    0.2272 H   0  0  0  0  0  0  0  0  0  0  0  0
   10.9885    9.2634    0.3834 H   0  0  0  0  0  0  0  0  0  0  0  0
  1  2  2  0
  2  3  1  0
  3  4  1  0
  4  5  2  0
  5  6  1  0
  6  7  2  0
  7  8  1  0
  8  9  1  0
  9 10  1  0
 10 11  1  0
 11 12  1  0
 12 13  1  0
 13 14  1  0
  7 15  1  0
 15 16  2  0
 16 17  1  0
 17 18  2  0
 18  2  1  0
 18  6  1  0
 14  9  1  0
  3 19  1  0
  4 20  1  0
  5 21  1  0
  8 22  1  0
  9 23  1  0
 10 24  1  0
 10 25  1  0
 11 26  1  0
 11 27  1  0
 12 28  1  0
 12 29  1  0
 13 30  1  0
 13 31  1  0
 14 32  1  0
 14 33  1  0
 16 34  1  0
M  END
>  <meeko>  (6) 
{"is_sidechain": [false], "free_energy": -7.474, "intermolecular_energy": -8.339, "internal_energy": -0.396}

$$$$
4k77_ligand
     RDKit          3D

 34 36  0  0  0  0  0  0  0  0999 V2000
   12.5170   10.1830    1.7290 O   0  0  0  0  0  0  0  0  0  0  0  0
   13.2180    9.2850    1.2760 C   0  0  0  0  0  0  0  0  0  0  0  0
   14.5810    9.4640    1.1250 N   0  0  0  0  0  0  0  0  0  0  0  0
   15.4370    8.5140    0.6390 C   0  0  0  0  0  0  0  0  0  0  0  0
   14.9920    7.3160    0.2470 C   0  0  0  0  0  0  0  0  0  0  0  0
   13.5580    7.0130    0.3370 C   0  0  0  0  0  0  0  0  0  0  0  0
   12.9760    5.8090   -0.0520 C   0  0  0  0  0  0  0  0  0  0  0  0
   13.7880    4.7950   -0.6080 N   0  0  0  0  0  0  0  0  0  0  0  0
   14.1280    3.6590    0.2670 C   0  0  0  0  0  0  0  0  0  0  0  0
   13.1380    2.5060   -0.0120 C   0  0  0  0  0  0  0  0  0  0  0  0
   13.6120    1.6070   -1.1490 C   0  0  0  0  0  0  0  0  0  0  0  0
   14.9490    0.9390   -0.8250 C   0  0  0  0  0  0  0  0  0  0  0  0
   15.7930    1.7280    0.1750 C   0  0  0  0  0  0  0  0  0  0  0  0
   15.5910    3.2300    0.0220 C   0  0  0  0  0  0  0  0  0  0  0  0
   11.6570    5.5850    0.1000 N   0  0  0  0  0  0  0  0  0  0  0  0
   10.9090    6.5690    0.6220 C   0  0  0  0  0  0  0  0  0  0  0  0
   11.3470    7.7640    1.0070 N   0  0  0  0  0  0  0  0  0  0  0  0
   12.6750    7.9530    0.8540 C   0  0  0  0  0  0  0  0  0  0  0  0
   14.9320   10.3670    1.4230 H   0  0  0  0  0  0  0  0  0  0  0  0
   16.5113    8.7401    0.5695 H   0  0  0  0  0  0  0  0  0  0  0  0
   15.6945    6.5631   -0.1399 H   0  0  0  0  0  0  0  0  0  0  0  0
   13.3400    4.4860   -1.4680 H   0  0  0  0  0  0  0  0  0  0  0  0
   14.0418    3.9462    1.3253 H   0  0  0  0  0  0  0  0  0  0  0  0
   13.0333    1.8997    0.8998 H   0  0  0  0  0  0  0  0  0  0  0  0
   12.1759    2.9492   -0.3085 H   0  0  0  0  0  0  0  0  0  0  0  0
   12.8571    0.8263   -1.3241 H   0  0  0  0  0  0  0  0  0  0  0  0
   13.7497    2.2315   -2.0440 H   0  0  0  0  0  0  0  0  0  0  0  0
   14.7484   -0.0569   -0.4032 H   0  0  0  0  0  0  0  0  0  0  0  0
   15.5215    0.8848   -1.7627 H   0  0  0  0  0  0  0  0  0  0  0  0
   15.5065    1.4319    1.1949 H   0  0  0  0  0  0  0  0  0  0  0  0
   16.8523    1.5033   -0.0181 H   0  0  0  0  0  0  0  0  0  0  0  0
   16.2364    3.7481    0.7466 H   0  0  0  0  0  0  0  0  0  0  0  0
   15.8483    3.4976   -1.0135 H   0  0  0  0  0  0  0  0  0  0  0  0
    9.8341    6.3686    0.7426 H   0  0  0  0  0  0  0  0  0  0  0  0
  1  2  2  0
  2  3  1  0
  3  4  1  0
  4  5  2  0
  5  6  1  0
  6  7  2  0
  7  8  1  0
  8  9  1  0
  9 10  1  0
 10 11  1  0
 11 12  1  0
 12 13  1  0
 13 14  1  0
  7 15  1  0
 15 16  2  0
 16 17  1  0
 17 18  2  0
 18  2  1  0
 18  6  1  0
 14  9  1  0
  3 19  1  0
  4 20  1  0
  5 21  1  0
  8 22  1  0
  9 23  1  0
 10 24  1  0
 10 25  1  0
 11 26  1  0
 11 27  1  0
 12 28  1  0
 12 29  1  0
 13 30  1  0
 13 31  1  0
 14 32  1  0
 14 33  1  0
 16 34  1  0
M  END
>  <meeko>  (7) 
{"is_sidechain": [false], "free_energy": -7.277, "intermolecular_energy": -8.166, "internal_energy": -0.348}

$$$$
4k77_ligand
     RDKit          3D

 34 36  0  0  0  0  0  0  0  0999 V2000
   15.3070   10.6480    2.0060 O   0  0  0  0  0  0  0  0  0  0  0  0
   14.5030    9.7740    1.6980 C   0  0  0  0  0  0  0  0  0  0  0  0
   13.2130   10.1040    1.3220 N   0  0  0  0  0  0  0  0  0  0  0  0
   12.2590    9.1970    0.9540 C   0  0  0  0  0  0  0  0  0  0  0  0
   12.5140    7.8840    0.9520 C   0  0  0  0  0  0  0  0  0  0  0  0
   13.8430    7.4070    1.3560 C   0  0  0  0  0  0  0  0  0  0  0  0
   14.2220    6.0670    1.4060 C   0  0  0  0  0  0  0  0  0  0  0  0
   13.2770    5.0680    1.0860 N   0  0  0  0  0  0  0  0  0  0  0  0
   13.3070    4.5380   -0.2890 C   0  0  0  0  0  0  0  0  0  0  0  0
   14.6440    3.7950   -0.5030 C   0  0  0  0  0  0  0  0  0  0  0  0
   14.5610    2.3320   -0.0790 C   0  0  0  0  0  0  0  0  0  0  0  0
   13.5210    1.5630   -0.8940 C   0  0  0  0  0  0  0  0  0  0  0  0
   12.4120    2.4520   -1.4540 C   0  0  0  0  0  0  0  0  0  0  0  0
   12.0930    3.6120   -0.5190 C   0  0  0  0  0  0  0  0  0  0  0  0
   15.4740    5.7040    1.7440 N   0  0  0  0  0  0  0  0  0  0  0  0
   16.3480    6.6740    2.0520 C   0  0  0  0  0  0  0  0  0  0  0  0
   16.0950    7.9800    2.0620 N   0  0  0  0  0  0  0  0  0  0  0  0
   14.8360    8.3130    1.7060 C   0  0  0  0  0  0  0  0  0  0  0  0
   13.0080   11.0970    1.3150 H   0  0  0  0  0  0  0  0  0  0  0  0
   11.2627    9.5536    0.6538 H   0  0  0  0  0  0  0  0  0  0  0  0
   11.7354    7.1679    0.6505 H   0  0  0  0  0  0  0  0  0  0  0  0
   13.3750    4.3260    1.7760 H   0  0  0  0  0  0  0  0  0  0  0  0
   13.2400    5.3562   -1.0212 H   0  0  0  0  0  0  0  0  0  0  0  0
   14.9086    3.8408   -1.5697 H   0  0  0  0  0  0  0  0  0  0  0  0
   15.4076    4.2853    0.1187 H   0  0  0  0  0  0  0  0  0  0  0  0
   15.5452    1.8628   -0.2243 H   0  0  0  0  0  0  0  0  0  0  0  0
   14.2595    2.2990    0.9784 H   0  0  0  0  0  0  0  0  0  0  0  0
   14.0313    1.0705   -1.7348 H   0  0  0  0  0  0  0  0  0  0  0  0
   13.0460    0.8395   -0.2151 H   0  0  0  0  0  0  0  0  0  0  0  0
   12.7348    2.8554   -2.4251 H   0  0  0  0  0  0  0  0  0  0  0  0
   11.5044    1.8401   -1.5631 H   0  0  0  0  0  0  0  0  0  0  0  0
   11.2760    4.2039   -0.9574 H   0  0  0  0  0  0  0  0  0  0  0  0
   11.8077    3.1873    0.4548 H   0  0  0  0  0  0  0  0  0  0  0  0
   17.3675    6.3607    2.3210 H   0  0  0  0  0  0  0  0  0  0  0  0
  1  2  2  0
  2  3  1  0
  3  4  1  0
  4  5  2  0
  5  6  1  0
  6  7  2  0
  7  8  1  0
  8  9  1  0
  9 10  1  0
 10 11  1  0
 11 12  1  0
 12 13  1  0
 13 14  1  0
  7 15  1  0
 15 16  2  0
 16 17  1  0
 17 18  2  0
 18  2  1  0
 18  6  1  0
 14  9  1  0
  3 19  1  0
  4 20  1  0
  5 21  1  0
  8 22  1  0
  9 23  1  0
 10 24  1  0
 10 25  1  0
 11 26  1  0
 11 27  1  0
 12 28  1  0
 12 29  1  0
 13 30  1  0
 13 31  1  0
 14 32  1  0
 14 33  1  0
 16 34  1  0
M  END
>  <meeko>  (8) 
{"is_sidechain": [false], "free_energy": -7.104, "intermolecular_energy": -8.236, "internal_energy": -0.085}

$$$$
4k77_ligand
     RDKit          3D

 34 36  0  0  0  0  0  0  0  0999 V2000
   17.0370    2.2080    0.9070 O   0  0  0  0  0  0  0  0  0  0  0  0
   16.0670    2.8840    0.5820 C   0  0  0  0  0  0  0  0  0  0  0  0
   15.0280    2.3240   -0.1390 N   0  0  0  0  0  0  0  0  0  0  0  0
   13.9060    3.0010   -0.5330 C   0  0  0  0  0  0  0  0  0  0  0  0
   13.7460    4.2990   -0.2510 C   0  0  0  0  0  0  0  0  0  0  0  0
   14.7930    5.0110    0.4910 C   0  0  0  0  0  0  0  0  0  0  0  0
   14.7450    6.3620    0.8300 C   0  0  0  0  0  0  0  0  0  0  0  0
   13.6400    7.1400    0.4180 N   0  0  0  0  0  0  0  0  0  0  0  0
   12.5730    7.3600    1.4100 C   0  0  0  0  0  0  0  0  0  0  0  0
   12.7200    8.7850    1.9870 C   0  0  0  0  0  0  0  0  0  0  0  0
   11.9780    9.8220    1.1490 C   0  0  0  0  0  0  0  0  0  0  0  0
   10.4760    9.5430    1.1040 C   0  0  0  0  0  0  0  0  0  0  0  0
   10.1250    8.0720    1.3190 C   0  0  0  0  0  0  0  0  0  0  0  0
   11.1940    7.1480    0.7490 C   0  0  0  0  0  0  0  0  0  0  0  0
   15.7240    6.9400    1.5510 N   0  0  0  0  0  0  0  0  0  0  0  0
   16.7650    6.1790    1.9210 C   0  0  0  0  0  0  0  0  0  0  0  0
   16.9310    4.8900    1.6370 N   0  0  0  0  0  0  0  0  0  0  0  0
   15.9270    4.3360    0.9240 C   0  0  0  0  0  0  0  0  0  0  0  0
   15.1350    1.3390   -0.3550 H   0  0  0  0  0  0  0  0  0  0  0  0
   13.1219    2.4687   -1.0914 H   0  0  0  0  0  0  0  0  0  0  0  0
   12.8370    4.8283   -0.5727 H   0  0  0  0  0  0  0  0  0  0  0  0
   14.0060    8.0200    0.0590 H   0  0  0  0  0  0  0  0  0  0  0  0
   12.6568    6.6382    2.2359 H   0  0  0  0  0  0  0  0  0  0  0  0
   12.3133    8.7977    3.0090 H   0  0  0  0  0  0  0  0  0  0  0  0
   13.7888    9.0451    1.9800 H   0  0  0  0  0  0  0  0  0  0  0  0
   12.1426   10.8178    1.5865 H   0  0  0  0  0  0  0  0  0  0  0  0
   12.3666    9.7738    0.1211 H   0  0  0  0  0  0  0  0  0  0  0  0
    9.9875   10.1365    1.8908 H   0  0  0  0  0  0  0  0  0  0  0  0
   10.1251    9.8167    0.0980 H   0  0  0  0  0  0  0  0  0  0  0  0
   10.0288    7.8826    2.3983 H   0  0  0  0  0  0  0  0  0  0  0  0
    9.1793    7.8654    0.7965 H   0  0  0  0  0  0  0  0  0  0  0  0
   10.8819    6.1057    0.9107 H   0  0  0  0  0  0  0  0  0  0  0  0
   11.2979    7.3779   -0.3217 H   0  0  0  0  0  0  0  0  0  0  0  0
   17.5537    6.6655    2.5136 H   0  0  0  0  0  0  0  0  0  0  0  0
  1  2  2  0
  2  3  1  0
  3  4  1  0
  4  5  2  0
  5  6  1  0
  6  7  2  0
  7  8  1  0
  8  9  1  0
  9 10  1  0
 10 11  1  0
 11 12  1  0
 12 13  1  0
 13 14  1  0
  7 15  1  0
 15 16  2  0
 16 17  1  0
 17 18  2  0
 18  2  1  0
 18  6  1  0
 14  9  1  0
  3 19  1  0
  4 20  1  0
  5 21  1  0
  8 22  1  0
  9 23  1  0
 10 24  1  0
 10 25  1  0
 11 26  1  0
 11 27  1  0
 12 28  1  0
 12 29  1  0
 13 30  1  0
 13 31  1  0
 14 32  1  0
 14 33  1  0
 16 34  1  0
M  END
>  <meeko>  (9) 
{"is_sidechain": [false], "free_energy": -7.02, "intermolecular_energy": -7.821, "internal_energy": -0.406}

$$$$
