3oe5_ligand
     RDKit          3D

 50 52  0  0  0  0  0  0  0  0999 V2000
   11.0850  -18.0180    0.0960 O   0  0  0  0  0  0  0  0  0  0  0  0
   11.9450  -17.1790    0.3400 C   0  0  0  0  0  0  0  0  0  0  0  0
   11.6780  -16.0120    1.0130 N   0  0  0  0  0  0  0  0  0  0  0  0
   10.3340  -15.6380    1.3600 C   0  0  0  0  0  0  0  0  0  0  0  0
   10.3630  -14.2300    1.8610 C   0  0  0  0  0  0  0  0  0  0  0  0
    9.2720  -13.4550    1.9900 C   0  0  0  0  0  0  0  0  0  0  0  0
    9.3030  -12.0340    2.4800 C   0  0  1  0  0  0  0  0  0  0  0  0
   10.6210  -11.5210    2.1820 O   0  0  0  0  0  0  0  0  0  0  0  0
   10.4660  -10.3560    1.3580 C   0  0  1  0  0  0  0  0  0  0  0  0
   11.7950  -10.1970    0.1170 S   0  0  0  0  0  0  0  0  0  0  0  0
   13.0060  -11.3260    0.7800 C   0  0  0  0  0  0  0  0  0  0  0  0
   13.2260  -12.5870    0.2310 C   0  0  0  0  0  0  0  0  0  0  0  0
   14.1970  -13.3930    0.8010 C   0  0  0  0  0  0  0  0  0  0  0  0
   14.9520  -13.0260    1.8570 N   0  0  0  0  0  0  0  0  0  0  0  0
   14.7360  -11.7920    2.3580 C   0  0  0  0  0  0  0  0  0  0  0  0
   13.7890  -10.9140    1.8570 C   0  0  0  0  0  0  0  0  0  0  0  0
    9.1160  -10.5190    0.6550 C   0  0  2  0  0  0  0  0  0  0  0  0
    8.5380   -9.2960    0.2000 O   0  0  0  0  0  0  0  0  0  0  0  0
    8.2880  -11.1270    1.7710 C   0  0  2  0  0  0  0  0  0  0  0  0
    7.8350  -10.0870    2.6510 O   0  0  0  0  0  0  0  0  0  0  0  0
   13.3550  -17.4070   -0.1010 C   0  0  0  0  0  0  0  0  0  0  0  0
   13.6070  -17.3920   -1.4850 C   0  0  0  0  0  0  0  0  0  0  0  0
   14.9090  -17.5990   -1.9690 C   0  0  0  0  0  0  0  0  0  0  0  0
   15.1590  -17.5840   -3.4160 N   0  0  0  0  0  0  0  0  0  0  0  0
   16.3400  -17.5620   -3.7910 O   0  0  0  0  0  0  0  0  0  0  0  0
   14.1810  -17.5970   -4.1740 O   0  0  0  0  0  0  0  0  0  0  0  0
   15.9780  -17.8230   -1.0910 C   0  0  0  0  0  0  0  0  0  0  0  0
   15.7210  -17.8330    0.2730 C   0  0  0  0  0  0  0  0  0  0  0  0
   16.7160  -18.0420    1.1910 O   0  0  0  0  0  0  0  0  0  0  0  0
   14.4280  -17.6280    0.7700 C   0  0  0  0  0  0  0  0  0  0  0  0
   14.2710  -17.6480    2.1340 O   0  0  0  0  0  0  0  0  0  0  0  0
   12.4210  -15.3170    1.0570 H   0  0  0  0  0  0  0  0  0  0  0  0
    9.6866  -15.7058    0.4733 H   0  0  0  0  0  0  0  0  0  0  0  0
    9.9368  -16.3116    2.1336 H   0  0  0  0  0  0  0  0  0  0  0  0
   11.3366  -13.8017    2.1413 H   0  0  0  0  0  0  0  0  0  0  0  0
    8.2970  -13.8871    1.7205 H   0  0  0  0  0  0  0  0  0  0  0  0
    9.0551  -12.0348    3.5517 H   0  0  0  0  0  0  0  0  0  0  0  0
   10.5161   -9.4473    1.9759 H   0  0  0  0  0  0  0  0  0  0  0  0
   12.6425  -12.9342   -0.6344 H   0  0  0  0  0  0  0  0  0  0  0  0
   14.3623  -14.3904    0.3676 H   0  0  0  0  0  0  0  0  0  0  0  0
   15.3464  -11.4647    3.2126 H   0  0  0  0  0  0  0  0  0  0  0  0
   13.6580   -9.9151    2.2987 H   0  0  0  0  0  0  0  0  0  0  0  0
    9.1887  -11.1120   -0.2686 H   0  0  0  0  0  0  0  0  0  0  0  0
    9.2810   -8.7240   -0.0730 H   0  0  0  0  0  0  0  0  0  0  0  0
    7.3909  -11.6645    1.4298 H   0  0  0  0  0  0  0  0  0  0  0  0
    8.3190   -9.2850    2.3650 H   0  0  0  0  0  0  0  0  0  0  0  0
   12.7813  -17.2175   -2.1905 H   0  0  0  0  0  0  0  0  0  0  0  0
   16.9962  -17.9869   -1.4735 H   0  0  0  0  0  0  0  0  0  0  0  0
   16.3760  -18.6110    1.9060 H   0  0  0  0  0  0  0  0  0  0  0  0
   14.7270  -16.8390    2.4540 H   0  0  0  0  0  0  0  0  0  0  0  0
  1  2  2  0
  2  3  1  0
  3  4  1  0
  4  5  1  0
  5  6  2  0
  6  7  1  0
  7  8  1  0
  8  9  1  0
  9 10  1  0
 10 11  1  0
 11 12  2  0
 12 13  1  0
 13 14  2  0
 14 15  1  0
 15 16  2  0
  9 17  1  0
 17 18  1  0
 17 19  1  0
 19 20  1  0
  2 21  1  0
 21 22  2  0
 22 23  1  0
 23 24  1  0
 24 25  2  0
 24 26  1  0
 23 27  2  0
 27 28  1  0
 28 29  1  0
 28 30  2  0
 30 31  1  0
 19  7  1  0
 30 21  1  0
 16 11  1  0
  3 32  1  0
  4 33  1  0
  4 34  1  0
  5 35  1  0
  6 36  1  0
  7 37  1  1
  9 38  1  1
 12 39  1  0
 13 40  1  0
 15 41  1  0
 16 42  1  0
 17 43  1  6
 18 44  1  0
 19 45  1  6
 20 46  1  0
 22 47  1  0
 27 48  1  0
 29 49  1  0
 31 50  1  0
M  CHG  2  24   1  26  -1
M  END
>  <meeko>  (1) 
{"is_sidechain": [false], "free_energy": -8.653, "intermolecular_energy": -13.206, "internal_energy": -1.446}

$$$$
3oe5_ligand
     RDKit          3D

 50 52  0  0  0  0  0  0  0  0999 V2000
   22.6230  -17.8320    1.5330 O   0  0  0  0  0  0  0  0  0  0  0  0
   22.4690  -18.3390    0.4270 C   0  0  0  0  0  0  0  0  0  0  0  0
   21.4460  -17.9860   -0.4180 N   0  0  0  0  0  0  0  0  0  0  0  0
   20.4070  -17.0850   -0.0010 C   0  0  0  0  0  0  0  0  0  0  0  0
   19.1350  -17.8650    0.0980 C   0  0  0  0  0  0  0  0  0  0  0  0
   17.9150  -17.3070    0.1750 C   0  0  0  0  0  0  0  0  0  0  0  0
   16.6360  -18.0910    0.2890 C   0  0  1  0  0  0  0  0  0  0  0  0
   15.6310  -17.1760    0.7820 O   0  0  0  0  0  0  0  0  0  0  0  0
   14.5550  -17.1490   -0.1670 C   0  0  1  0  0  0  0  0  0  0  0  0
   13.7950  -15.4960   -0.3130 S   0  0  0  0  0  0  0  0  0  0  0  0
   12.1480  -15.8330    0.2840 C   0  0  0  0  0  0  0  0  0  0  0  0
   11.6100  -17.1180    0.2960 C   0  0  0  0  0  0  0  0  0  0  0  0
   10.3280  -17.2900    0.7910 C   0  0  0  0  0  0  0  0  0  0  0  0
    9.5670  -16.2850    1.2700 N   0  0  0  0  0  0  0  0  0  0  0  0
   10.1170  -15.0530    1.2670 C   0  0  0  0  0  0  0  0  0  0  0  0
   11.3900  -14.7800    0.7940 C   0  0  0  0  0  0  0  0  0  0  0  0
   15.1690  -17.5580   -1.5080 C   0  0  2  0  0  0  0  0  0  0  0  0
   14.2310  -18.0770   -2.4510 O   0  0  0  0  0  0  0  0  0  0  0  0
   16.1380  -18.6350   -1.0580 C   0  0  2  0  0  0  0  0  0  0  0  0
   15.4280  -19.8700   -0.8750 O   0  0  0  0  0  0  0  0  0  0  0  0
   23.4180  -19.3910   -0.0490 C   0  0  0  0  0  0  0  0  0  0  0  0
   24.0810  -19.1570   -1.2680 C   0  0  0  0  0  0  0  0  0  0  0  0
   24.9850  -20.1040   -1.7740 C   0  0  0  0  0  0  0  0  0  0  0  0
   25.6680  -19.8500   -3.0500 N   0  0  0  0  0  0  0  0  0  0  0  0
   25.5270  -18.7280   -3.5580 O   0  0  0  0  0  0  0  0  0  0  0  0
   26.3420  -20.7650   -3.5390 O   0  0  0  0  0  0  0  0  0  0  0  0
   25.2490  -21.2930   -1.0810 C   0  0  0  0  0  0  0  0  0  0  0  0
   24.5940  -21.5150    0.1230 C   0  0  0  0  0  0  0  0  0  0  0  0
   24.8030  -22.6520    0.8560 O   0  0  0  0  0  0  0  0  0  0  0  0
   23.6880  -20.5800    0.6390 C   0  0  0  0  0  0  0  0  0  0  0  0
   23.0940  -20.8810    1.8400 O   0  0  0  0  0  0  0  0  0  0  0  0
   21.3180  -18.5480   -1.2570 H   0  0  0  0  0  0  0  0  0  0  0  0
   20.6579  -16.6531    0.9791 H   0  0  0  0  0  0  0  0  0  0  0  0
   20.2979  -16.2642   -0.7252 H   0  0  0  0  0  0  0  0  0  0  0  0
   19.2021  -18.9629    0.1084 H   0  0  0  0  0  0  0  0  0  0  0  0
   17.8473  -16.2093    0.1533 H   0  0  0  0  0  0  0  0  0  0  0  0
   16.8184  -18.9525    0.9482 H   0  0  0  0  0  0  0  0  0  0  0  0
   13.7511  -17.8270    0.1556 H   0  0  0  0  0  0  0  0  0  0  0  0
   12.1892  -17.9749   -0.0785 H   0  0  0  0  0  0  0  0  0  0  0  0
    9.9058  -18.3058    0.7936 H   0  0  0  0  0  0  0  0  0  0  0  0
    9.5205  -14.2178    1.6627 H   0  0  0  0  0  0  0  0  0  0  0  0
   11.7931  -13.7569    0.8202 H   0  0  0  0  0  0  0  0  0  0  0  0
   15.6112  -16.7079   -2.0482 H   0  0  0  0  0  0  0  0  0  0  0  0
   14.6580  -18.8500   -2.8670 H   0  0  0  0  0  0  0  0  0  0  0  0
   16.9512  -18.8404   -1.7697 H   0  0  0  0  0  0  0  0  0  0  0  0
   16.1100  -20.5680   -0.9590 H   0  0  0  0  0  0  0  0  0  0  0  0
   23.8901  -18.2286   -1.8263 H   0  0  0  0  0  0  0  0  0  0  0  0
   25.9581  -22.0326   -1.4812 H   0  0  0  0  0  0  0  0  0  0  0  0
   24.9140  -22.4100    1.7950 H   0  0  0  0  0  0  0  0  0  0  0  0
   22.1840  -20.5170    1.7710 H   0  0  0  0  0  0  0  0  0  0  0  0
  1  2  2  0
  2  3  1  0
  3  4  1  0
  4  5  1  0
  5  6  2  0
  6  7  1  0
  7  8  1  0
  8  9  1  0
  9 10  1  0
 10 11  1  0
 11 12  2  0
 12 13  1  0
 13 14  2  0
 14 15  1  0
 15 16  2  0
  9 17  1  0
 17 18  1  0
 17 19  1  0
 19 20  1  0
  2 21  1  0
 21 22  2  0
 22 23  1  0
 23 24  1  0
 24 25  2  0
 24 26  1  0
 23 27  2  0
 27 28  1  0
 28 29  1  0
 28 30  2  0
 30 31  1  0
 19  7  1  0
 30 21  1  0
 16 11  1  0
  3 32  1  0
  4 33  1  0
  4 34  1  0
  5 35  1  0
  6 36  1  0
  7 37  1  1
  9 38  1  1
 12 39  1  0
 13 40  1  0
 15 41  1  0
 16 42  1  0
 17 43  1  6
 18 44  1  0
 19 45  1  6
 20 46  1  0
 22 47  1  0
 27 48  1  0
 29 49  1  0
 31 50  1  0
M  CHG  2  24   1  26  -1
M  END
>  <meeko>  (2) 
{"is_sidechain": [false], "free_energy": -8.625, "intermolecular_energy": -13.678, "internal_energy": -0.931}

$$$$
3oe5_ligand
     RDKit          3D

 50 52  0  0  0  0  0  0  0  0999 V2000
   21.2120  -20.2660    0.7680 O   0  0  0  0  0  0  0  0  0  0  0  0
   21.9330  -19.4090    0.2690 C   0  0  0  0  0  0  0  0  0  0  0  0
   21.5940  -18.0790    0.2300 N   0  0  0  0  0  0  0  0  0  0  0  0
   20.3000  -17.6240    0.6600 C   0  0  0  0  0  0  0  0  0  0  0  0
   19.2720  -18.2660   -0.2160 C   0  0  0  0  0  0  0  0  0  0  0  0
   18.0840  -17.7120   -0.5130 C   0  0  0  0  0  0  0  0  0  0  0  0
   17.0450  -18.3650   -1.3810 C   0  0  1  0  0  0  0  0  0  0  0  0
   15.9810  -18.7960   -0.5020 O   0  0  0  0  0  0  0  0  0  0  0  0
   14.7630  -18.1780   -0.9450 C   0  0  1  0  0  0  0  0  0  0  0  0
   13.6590  -17.7390    0.4400 S   0  0  0  0  0  0  0  0  0  0  0  0
   14.0020  -15.9960    0.6000 C   0  0  0  0  0  0  0  0  0  0  0  0
   15.2000  -15.5190    1.1270 C   0  0  0  0  0  0  0  0  0  0  0  0
   15.3880  -14.1490    1.2000 C   0  0  0  0  0  0  0  0  0  0  0  0
   14.4790  -13.2430    0.7830 N   0  0  0  0  0  0  0  0  0  0  0  0
   13.3360  -13.7290    0.2570 C   0  0  0  0  0  0  0  0  0  0  0  0
   13.0560  -15.0800    0.1410 C   0  0  0  0  0  0  0  0  0  0  0  0
   15.1870  -16.9110   -1.6920 C   0  0  2  0  0  0  0  0  0  0  0  0
   14.2190  -16.4260   -2.6230 O   0  0  0  0  0  0  0  0  0  0  0  0
   16.4280  -17.4070   -2.4100 C   0  0  2  0  0  0  0  0  0  0  0  0
   16.0410  -18.1180   -3.5970 O   0  0  0  0  0  0  0  0  0  0  0  0
   23.2450  -19.7980   -0.3330 C   0  0  0  0  0  0  0  0  0  0  0  0
   23.9040  -20.9100    0.2220 C   0  0  0  0  0  0  0  0  0  0  0  0
   25.1400  -21.3300   -0.2950 C   0  0  0  0  0  0  0  0  0  0  0  0
   25.8200  -22.4910    0.2950 N   0  0  0  0  0  0  0  0  0  0  0  0
   26.7680  -22.9790   -0.3370 O   0  0  0  0  0  0  0  0  0  0  0  0
   25.4100  -22.9100    1.3850 O   0  0  0  0  0  0  0  0  0  0  0  0
   25.7390  -20.6580   -1.3690 C   0  0  0  0  0  0  0  0  0  0  0  0
   25.0810  -19.5640   -1.9130 C   0  0  0  0  0  0  0  0  0  0  0  0
   25.6040  -18.8600   -2.9650 O   0  0  0  0  0  0  0  0  0  0  0  0
   23.8480  -19.1330   -1.4080 C   0  0  0  0  0  0  0  0  0  0  0  0
   23.2670  -18.0470   -2.0140 O   0  0  0  0  0  0  0  0  0  0  0  0
   22.1890  -17.4600   -0.3170 H   0  0  0  0  0  0  0  0  0  0  0  0
   20.1314  -17.9133    1.7078 H   0  0  0  0  0  0  0  0  0  0  0  0
   20.2354  -16.5284    0.5866 H   0  0  0  0  0  0  0  0  0  0  0  0
   19.5024  -19.2529   -0.6438 H   0  0  0  0  0  0  0  0  0  0  0  0
   17.8582  -16.7198   -0.0952 H   0  0  0  0  0  0  0  0  0  0  0  0
   17.5260  -19.1840   -1.9360 H   0  0  0  0  0  0  0  0  0  0  0  0
   14.1945  -18.8750   -1.5782 H   0  0  0  0  0  0  0  0  0  0  0  0
   15.9778  -16.2138    1.4767 H   0  0  0  0  0  0  0  0  0  0  0  0
   16.3333  -13.7776    1.6225 H   0  0  0  0  0  0  0  0  0  0  0  0
   12.5832  -13.0109   -0.1003 H   0  0  0  0  0  0  0  0  0  0  0  0
   12.1096  -15.4227   -0.3028 H   0  0  0  0  0  0  0  0  0  0  0  0
   15.3313  -16.0519   -1.0203 H   0  0  0  0  0  0  0  0  0  0  0  0
   14.6450  -16.4480   -3.5010 H   0  0  0  0  0  0  0  0  0  0  0  0
   17.1170  -16.6110   -2.7289 H   0  0  0  0  0  0  0  0  0  0  0  0
   16.5010  -17.6570   -4.3290 H   0  0  0  0  0  0  0  0  0  0  0  0
   23.4493  -21.4524    1.0640 H   0  0  0  0  0  0  0  0  0  0  0  0
   26.7076  -20.9898   -1.7712 H   0  0  0  0  0  0  0  0  0  0  0  0
   26.4710  -19.2380   -3.2030 H   0  0  0  0  0  0  0  0  0  0  0  0
   22.9340  -17.4910   -1.2760 H   0  0  0  0  0  0  0  0  0  0  0  0
  1  2  2  0
  2  3  1  0
  3  4  1  0
  4  5  1  0
  5  6  2  0
  6  7  1  0
  7  8  1  0
  8  9  1  0
  9 10  1  0
 10 11  1  0
 11 12  2  0
 12 13  1  0
 13 14  2  0
 14 15  1  0
 15 16  2  0
  9 17  1  0
 17 18  1  0
 17 19  1  0
 19 20  1  0
  2 21  1  0
 21 22  2  0
 22 23  1  0
 23 24  1  0
 24 25  2  0
 24 26  1  0
 23 27  2  0
 27 28  1  0
 28 29  1  0
 28 30  2  0
 30 31  1  0
 19  7  1  0
 30 21  1  0
 16 11  1  0
  3 32  1  0
  4 33  1  0
  4 34  1  0
  5 35  1  0
  6 36  1  0
  7 37  1  6
  9 38  1  6
 12 39  1  0
 13 40  1  0
 15 41  1  0
 16 42  1  0
 17 43  1  1
 18 44  1  0
 19 45  1  6
 20 46  1  0
 22 47  1  0
 27 48  1  0
 29 49  1  0
 31 50  1  0
M  CHG  2  24   1  26  -1
M  END
>  <meeko>  (3) 
{"is_sidechain": [false], "free_energy": -8.534, "intermolecular_energy": -14.305, "internal_energy": -0.164}

$$$$
3oe5_ligand
     RDKit          3D

 50 52  0  0  0  0  0  0  0  0999 V2000
   12.6920  -10.5360    2.4960 O   0  0  0  0  0  0  0  0  0  0  0  0
   12.2960  -11.5180    1.8770 C   0  0  0  0  0  0  0  0  0  0  0  0
   13.1440  -12.4780    1.3810 N   0  0  0  0  0  0  0  0  0  0  0  0
   14.5720  -12.3200    1.4430 C   0  0  0  0  0  0  0  0  0  0  0  0
   15.1620  -13.6290    1.8590 C   0  0  0  0  0  0  0  0  0  0  0  0
   15.0180  -14.7720    1.1680 C   0  0  0  0  0  0  0  0  0  0  0  0
   15.5980  -16.0920    1.5950 C   0  0  1  0  0  0  0  0  0  0  0  0
   14.5590  -17.0810    1.4130 O   0  0  0  0  0  0  0  0  0  0  0  0
   15.0600  -18.0920    0.5260 C   0  0  1  0  0  0  0  0  0  0  0  0
   13.7670  -18.7580   -0.5750 S   0  0  0  0  0  0  0  0  0  0  0  0
   12.3940  -17.6990   -0.1550 C   0  0  0  0  0  0  0  0  0  0  0  0
   12.3180  -16.3750   -0.5820 C   0  0  0  0  0  0  0  0  0  0  0  0
   11.2090  -15.6300   -0.2210 C   0  0  0  0  0  0  0  0  0  0  0  0
   10.1880  -16.1120    0.5180 N   0  0  0  0  0  0  0  0  0  0  0  0
   10.2740  -17.4030    0.9020 C   0  0  0  0  0  0  0  0  0  0  0  0
   11.3410  -18.2280    0.5910 C   0  0  0  0  0  0  0  0  0  0  0  0
   16.1510  -17.4130   -0.3060 C   0  0  2  0  0  0  0  0  0  0  0  0
   17.1040  -18.3120   -0.8730 O   0  0  0  0  0  0  0  0  0  0  0  0
   16.7980  -16.5290    0.7430 C   0  0  2  0  0  0  0  0  0  0  0  0
   17.7180  -17.3090    1.5240 O   0  0  0  0  0  0  0  0  0  0  0  0
   10.8340  -11.7070    1.6360 C   0  0  0  0  0  0  0  0  0  0  0  0
   10.1460  -10.6610    0.9930 C   0  0  0  0  0  0  0  0  0  0  0  0
    8.7700  -10.7730    0.7360 C   0  0  0  0  0  0  0  0  0  0  0  0
    8.0630   -9.6720    0.0670 N   0  0  0  0  0  0  0  0  0  0  0  0
    8.7230   -8.6640   -0.2240 O   0  0  0  0  0  0  0  0  0  0  0  0
    6.8570   -9.8150   -0.1670 O   0  0  0  0  0  0  0  0  0  0  0  0
    8.0570  -11.9200    1.1090 C   0  0  0  0  0  0  0  0  0  0  0  0
    8.7430  -12.9480    1.7400 C   0  0  0  0  0  0  0  0  0  0  0  0
    8.1120  -14.0990    2.1300 O   0  0  0  0  0  0  0  0  0  0  0  0
   10.1140  -12.8510    2.0040 C   0  0  0  0  0  0  0  0  0  0  0  0
   10.7100  -13.9210    2.6240 O   0  0  0  0  0  0  0  0  0  0  0  0
   12.7420  -13.1860    0.7700 H   0  0  0  0  0  0  0  0  0  0  0  0
   14.9594  -12.0329    0.4543 H   0  0  0  0  0  0  0  0  0  0  0  0
   14.8393  -11.5332    2.1637 H   0  0  0  0  0  0  0  0  0  0  0  0
   15.7502  -13.6581    2.7881 H   0  0  0  0  0  0  0  0  0  0  0  0
   14.4404  -14.7404    0.2324 H   0  0  0  0  0  0  0  0  0  0  0  0
   15.9455  -15.9942    2.6341 H   0  0  0  0  0  0  0  0  0  0  0  0
   15.4375  -18.9481    1.1045 H   0  0  0  0  0  0  0  0  0  0  0  0
   13.1199  -15.9326   -1.1912 H   0  0  0  0  0  0  0  0  0  0  0  0
   11.1567  -14.5836   -0.5561 H   0  0  0  0  0  0  0  0  0  0  0  0
    9.4491  -17.8235    1.4960 H   0  0  0  0  0  0  0  0  0  0  0  0
   11.3581  -19.2761    0.9243 H   0  0  0  0  0  0  0  0  0  0  0  0
   15.7487  -16.8958   -1.1896 H   0  0  0  0  0  0  0  0  0  0  0  0
   17.9450  -18.1550   -0.4040 H   0  0  0  0  0  0  0  0  0  0  0  0
   17.3694  -15.6829    0.3337 H   0  0  0  0  0  0  0  0  0  0  0  0
   18.1430  -17.9160    0.8830 H   0  0  0  0  0  0  0  0  0  0  0  0
   10.6880   -9.7527    0.6908 H   0  0  0  0  0  0  0  0  0  0  0  0
    6.9790  -12.0036    0.9065 H   0  0  0  0  0  0  0  0  0  0  0  0
    7.2480  -14.1570    1.6830 H   0  0  0  0  0  0  0  0  0  0  0  0
   10.1380  -14.1170    3.3980 H   0  0  0  0  0  0  0  0  0  0  0  0
  1  2  2  0
  2  3  1  0
  3  4  1  0
  4  5  1  0
  5  6  2  0
  6  7  1  0
  7  8  1  0
  8  9  1  0
  9 10  1  0
 10 11  1  0
 11 12  2  0
 12 13  1  0
 13 14  2  0
 14 15  1  0
 15 16  2  0
  9 17  1  0
 17 18  1  0
 17 19  1  0
 19 20  1  0
  2 21  1  0
 21 22  2  0
 22 23  1  0
 23 24  1  0
 24 25  2  0
 24 26  1  0
 23 27  2  0
 27 28  1  0
 28 29  1  0
 28 30  2  0
 30 31  1  0
 19  7  1  0
 30 21  1  0
 16 11  1  0
  3 32  1  0
  4 33  1  0
  4 34  1  0
  5 35  1  0
  6 36  1  0
  7 37  1  1
  9 38  1  1
 12 39  1  0
 13 40  1  0
 15 41  1  0
 16 42  1  0
 17 43  1  6
 18 44  1  0
 19 45  1  6
 20 46  1  0
 22 47  1  0
 27 48  1  0
 29 49  1  0
 31 50  1  0
M  CHG  2  24   1  26  -1
M  END
>  <meeko>  (4) 
{"is_sidechain": [false], "free_energy": -8.53, "intermolecular_energy": -12.688, "internal_energy": -1.777}

$$$$
3oe5_ligand
     RDKit          3D

 50 52  0  0  0  0  0  0  0  0999 V2000
   18.9720  -15.9860   -0.4820 O   0  0  0  0  0  0  0  0  0  0  0  0
   19.0680  -17.1950   -0.3030 C   0  0  0  0  0  0  0  0  0  0  0  0
   18.1920  -18.1010   -0.8480 N   0  0  0  0  0  0  0  0  0  0  0  0
   17.0200  -17.6730   -1.5620 C   0  0  0  0  0  0  0  0  0  0  0  0
   15.9650  -17.3390   -0.5560 C   0  0  0  0  0  0  0  0  0  0  0  0
   14.7680  -17.9460   -0.4930 C   0  0  0  0  0  0  0  0  0  0  0  0
   13.7010  -17.6010    0.5090 C   0  0  1  0  0  0  0  0  0  0  0  0
   14.0080  -16.2770    1.0030 O   0  0  0  0  0  0  0  0  0  0  0  0
   12.8730  -15.4360    0.7480 C   0  0  1  0  0  0  0  0  0  0  0  0
   13.3530  -13.7250    0.3280 S   0  0  0  0  0  0  0  0  0  0  0  0
   12.0830  -12.8060    1.1800 C   0  0  0  0  0  0  0  0  0  0  0  0
   11.0450  -13.4310    1.8650 C   0  0  0  0  0  0  0  0  0  0  0  0
   10.1110  -12.6390    2.5120 C   0  0  0  0  0  0  0  0  0  0  0  0
   10.1500  -11.2900    2.5240 N   0  0  0  0  0  0  0  0  0  0  0  0
   11.1780  -10.7080    1.8710 C   0  0  0  0  0  0  0  0  0  0  0  0
   12.1600  -11.4140    1.1960 C   0  0  0  0  0  0  0  0  0  0  0  0
   12.1370  -16.0730   -0.4320 C   0  0  2  0  0  0  0  0  0  0  0  0
   10.7580  -15.7160   -0.5290 O   0  0  0  0  0  0  0  0  0  0  0  0
   12.2930  -17.5450   -0.1010 C   0  0  2  0  0  0  0  0  0  0  0  0
   11.3040  -17.9240    0.8700 O   0  0  0  0  0  0  0  0  0  0  0  0
   20.1750  -17.7370    0.5420 C   0  0  0  0  0  0  0  0  0  0  0  0
   20.8610  -18.8670    0.0600 C   0  0  0  0  0  0  0  0  0  0  0  0
   21.9110  -19.4280    0.8030 C   0  0  0  0  0  0  0  0  0  0  0  0
   22.6170  -20.6100    0.2900 N   0  0  0  0  0  0  0  0  0  0  0  0
   23.4960  -21.1060    1.0080 O   0  0  0  0  0  0  0  0  0  0  0  0
   22.2920  -21.0400   -0.8240 O   0  0  0  0  0  0  0  0  0  0  0  0
   22.2990  -18.8780    2.0330 C   0  0  0  0  0  0  0  0  0  0  0  0
   21.6200  -17.7620    2.5000 C   0  0  0  0  0  0  0  0  0  0  0  0
   21.9450  -17.1690    3.6910 O   0  0  0  0  0  0  0  0  0  0  0  0
   20.5700  -17.1920    1.7700 C   0  0  0  0  0  0  0  0  0  0  0  0
   19.9620  -16.0840    2.3080 O   0  0  0  0  0  0  0  0  0  0  0  0
   18.2690  -19.0690   -0.5410 H   0  0  0  0  0  0  0  0  0  0  0  0
   17.2545  -16.7845   -2.1667 H   0  0  0  0  0  0  0  0  0  0  0  0
   16.6693  -18.4693   -2.2349 H   0  0  0  0  0  0  0  0  0  0  0  0
   16.1823  -16.5482    0.1771 H   0  0  0  0  0  0  0  0  0  0  0  0
   14.5554  -18.7445   -1.2191 H   0  0  0  0  0  0  0  0  0  0  0  0
   13.6958  -18.3792    1.2865 H   0  0  0  0  0  0  0  0  0  0  0  0
   12.2466  -15.3646    1.6494 H   0  0  0  0  0  0  0  0  0  0  0  0
   10.9683  -14.5280    1.8919 H   0  0  0  0  0  0  0  0  0  0  0  0
    9.2898  -13.1384    3.0471 H   0  0  0  0  0  0  0  0  0  0  0  0
   11.2394   -9.6097    1.8752 H   0  0  0  0  0  0  0  0  0  0  0  0
   12.9807  -10.8892    0.6850 H   0  0  0  0  0  0  0  0  0  0  0  0
   12.5397  -15.7524   -1.4041 H   0  0  0  0  0  0  0  0  0  0  0  0
   10.5470  -15.6830   -1.4810 H   0  0  0  0  0  0  0  0  0  0  0  0
   12.1664  -18.2192   -0.9609 H   0  0  0  0  0  0  0  0  0  0  0  0
   10.5230  -17.3690    0.6640 H   0  0  0  0  0  0  0  0  0  0  0  0
   20.5729  -19.3127   -0.9035 H   0  0  0  0  0  0  0  0  0  0  0  0
   23.1218  -19.3206    2.6136 H   0  0  0  0  0  0  0  0  0  0  0  0
   22.5860  -16.4520    3.5270 H   0  0  0  0  0  0  0  0  0  0  0  0
   20.3250  -16.0120    3.2180 H   0  0  0  0  0  0  0  0  0  0  0  0
  1  2  2  0
  2  3  1  0
  3  4  1  0
  4  5  1  0
  5  6  2  0
  6  7  1  0
  7  8  1  0
  8  9  1  0
  9 10  1  0
 10 11  1  0
 11 12  2  0
 12 13  1  0
 13 14  2  0
 14 15  1  0
 15 16  2  0
  9 17  1  0
 17 18  1  0
 17 19  1  0
 19 20  1  0
  2 21  1  0
 21 22  2  0
 22 23  1  0
 23 24  1  0
 24 25  2  0
 24 26  1  0
 23 27  2  0
 27 28  1  0
 28 29  1  0
 28 30  2  0
 30 31  1  0
 19  7  1  0
 30 21  1  0
 16 11  1  0
  3 32  1  0
  4 33  1  0
  4 34  1  0
  5 35  1  0
  6 36  1  0
  7 37  1  1
  9 38  1  1
 12 39  1  0
 13 40  1  0
 15 41  1  0
 16 42  1  0
 17 43  1  6
 18 44  1  0
 19 45  1  6
 20 46  1  0
 22 47  1  0
 27 48  1  0
 29 49  1  0
 31 50  1  0
M  CHG  2  24   1  26  -1
M  END
>  <meeko>  (5) 
{"is_sidechain": [false], "free_energy": -8.479, "intermolecular_energy": -13.43, "internal_energy": -0.956}

$$$$
3oe5_ligand
     RDKit          3D

 50 52  0  0  0  0  0  0  0  0999 V2000
   19.2300  -16.1100   -0.5540 O   0  0  0  0  0  0  0  0  0  0  0  0
   19.1170  -17.2120   -0.0260 C   0  0  0  0  0  0  0  0  0  0  0  0
   18.1440  -18.1120   -0.3820 N   0  0  0  0  0  0  0  0  0  0  0  0
   17.1060  -17.7630   -1.3130 C   0  0  0  0  0  0  0  0  0  0  0  0
   15.8410  -17.5660   -0.5400 C   0  0  0  0  0  0  0  0  0  0  0  0
   15.6160  -16.5260    0.2810 C   0  0  0  0  0  0  0  0  0  0  0  0
   14.3510  -16.3350    1.0700 C   0  0  1  0  0  0  0  0  0  0  0  0
   14.2560  -14.9240    1.3700 O   0  0  0  0  0  0  0  0  0  0  0  0
   13.0130  -14.4410    0.8400 C   0  0  1  0  0  0  0  0  0  0  0  0
   13.1410  -12.7360    0.2020 S   0  0  0  0  0  0  0  0  0  0  0  0
   11.8210  -11.9440    1.1030 C   0  0  0  0  0  0  0  0  0  0  0  0
   11.7160  -10.5590    1.2040 C   0  0  0  0  0  0  0  0  0  0  0  0
   10.6500  -10.0290    1.9110 C   0  0  0  0  0  0  0  0  0  0  0  0
    9.6970  -10.7770    2.5040 N   0  0  0  0  0  0  0  0  0  0  0  0
    9.8070  -12.1160    2.3740 C   0  0  0  0  0  0  0  0  0  0  0  0
   10.8360  -12.7390    1.6880 C   0  0  0  0  0  0  0  0  0  0  0  0
   12.6470  -15.3950   -0.3000 C   0  0  2  0  0  0  0  0  0  0  0  0
   11.2570  -15.4170   -0.6250 O   0  0  0  0  0  0  0  0  0  0  0  0
   13.0870  -16.7220    0.2900 C   0  0  2  0  0  0  0  0  0  0  0  0
   12.0700  -17.2100    1.1800 O   0  0  0  0  0  0  0  0  0  0  0  0
   20.0650  -17.6200    1.0560 C   0  0  0  0  0  0  0  0  0  0  0  0
   20.0260  -16.8880    2.2560 C   0  0  0  0  0  0  0  0  0  0  0  0
   20.8890  -17.2180    3.3140 C   0  0  0  0  0  0  0  0  0  0  0  0
   20.8420  -16.4430    4.5610 N   0  0  0  0  0  0  0  0  0  0  0  0
   21.0890  -15.2300    4.4890 O   0  0  0  0  0  0  0  0  0  0  0  0
   20.5580  -17.0430    5.6050 O   0  0  0  0  0  0  0  0  0  0  0  0
   21.8000  -18.2770    3.1980 C   0  0  0  0  0  0  0  0  0  0  0  0
   21.8290  -18.9960    2.0120 C   0  0  0  0  0  0  0  0  0  0  0  0
   22.6900  -20.0450    1.8280 O   0  0  0  0  0  0  0  0  0  0  0  0
   20.9750  -18.6780    0.9490 C   0  0  0  0  0  0  0  0  0  0  0  0
   21.0700  -19.4500   -0.1830 O   0  0  0  0  0  0  0  0  0  0  0  0
   18.0430  -18.9440    0.1950 H   0  0  0  0  0  0  0  0  0  0  0  0
   17.3718  -16.8334   -1.8376 H   0  0  0  0  0  0  0  0  0  0  0  0
   16.9779  -18.5603   -2.0600 H   0  0  0  0  0  0  0  0  0  0  0  0
   15.0461  -18.3183   -0.6501 H   0  0  0  0  0  0  0  0  0  0  0  0
   16.4065  -15.7677    0.3818 H   0  0  0  0  0  0  0  0  0  0  0  0
   14.4024  -16.9787    1.9605 H   0  0  0  0  0  0  0  0  0  0  0  0
   12.2507  -14.4131    1.6325 H   0  0  0  0  0  0  0  0  0  0  0  0
   12.4621   -9.9018    0.7334 H   0  0  0  0  0  0  0  0  0  0  0  0
   10.5760   -8.9346    1.9939 H   0  0  0  0  0  0  0  0  0  0  0  0
    9.0360  -12.7478    2.8391 H   0  0  0  0  0  0  0  0  0  0  0  0
   10.8755  -13.8353    1.6065 H   0  0  0  0  0  0  0  0  0  0  0  0
   13.1156  -15.1139   -1.2547 H   0  0  0  0  0  0  0  0  0  0  0  0
   10.8970  -14.5500   -0.3580 H   0  0  0  0  0  0  0  0  0  0  0  0
   13.2623  -17.5138   -0.4532 H   0  0  0  0  0  0  0  0  0  0  0  0
   12.1180  -18.1860    1.1090 H   0  0  0  0  0  0  0  0  0  0  0  0
   19.3172  -16.0541    2.3666 H   0  0  0  0  0  0  0  0  0  0  0  0
   22.4758  -18.5318    4.0277 H   0  0  0  0  0  0  0  0  0  0  0  0
   22.1780  -20.8400    1.5880 H   0  0  0  0  0  0  0  0  0  0  0  0
   20.4100  -19.0710   -0.8050 H   0  0  0  0  0  0  0  0  0  0  0  0
  1  2  2  0
  2  3  1  0
  3  4  1  0
  4  5  1  0
  5  6  2  0
  6  7  1  0
  7  8  1  0
  8  9  1  0
  9 10  1  0
 10 11  1  0
 11 12  2  0
 12 13  1  0
 13 14  2  0
 14 15  1  0
 15 16  2  0
  9 17  1  0
 17 18  1  0
 17 19  1  0
 19 20  1  0
  2 21  1  0
 21 22  2  0
 22 23  1  0
 23 24  1  0
 24 25  2  0
 24 26  1  0
 23 27  2  0
 27 28  1  0
 28 29  1  0
 28 30  2  0
 30 31  1  0
 19  7  1  0
 30 21  1  0
 16 11  1  0
  3 32  1  0
  4 33  1  0
  4 34  1  0
  5 35  1  0
  6 36  1  0
  7 37  1  1
  9 38  1  1
 12 39  1  0
 13 40  1  0
 15 41  1  0
 16 42  1  0
 17 43  1  6
 18 44  1  0
 19 45  1  6
 20 46  1  0
 22 47  1  0
 27 48  1  0
 29 49  1  0
 31 50  1  0
M  CHG  2  24   1  26  -1
M  END
>  <meeko>  (6) 
{"is_sidechain": [false], "free_energy": -8.062, "intermolecular_energy": -12.595, "internal_energy": -1.155}

$$$$
3oe5_ligand
     RDKit          3D

 50 52  0  0  0  0  0  0  0  0999 V2000
   12.6360  -10.4700    2.5900 O   0  0  0  0  0  0  0  0  0  0  0  0
   12.0290  -11.3660    2.0140 C   0  0  0  0  0  0  0  0  0  0  0  0
   12.6610  -12.4060    1.3790 N   0  0  0  0  0  0  0  0  0  0  0  0
   14.0910  -12.4390    1.2370 C   0  0  0  0  0  0  0  0  0  0  0  0
   14.5760  -13.7490    1.7700 C   0  0  0  0  0  0  0  0  0  0  0  0
   15.2420  -14.6580    1.0370 C   0  0  0  0  0  0  0  0  0  0  0  0
   15.7170  -15.9820    1.5690 C   0  0  1  0  0  0  0  0  0  0  0  0
   14.6560  -16.9330    1.3240 O   0  0  0  0  0  0  0  0  0  0  0  0
   15.1930  -18.0000    0.5290 C   0  0  1  0  0  0  0  0  0  0  0  0
   13.9820  -18.6570   -0.6680 S   0  0  0  0  0  0  0  0  0  0  0  0
   12.5440  -17.6860   -0.2540 C   0  0  0  0  0  0  0  0  0  0  0  0
   11.4620  -18.2190    0.4410 C   0  0  0  0  0  0  0  0  0  0  0  0
   10.3930  -17.3880    0.7330 C   0  0  0  0  0  0  0  0  0  0  0  0
   10.3400  -16.0840    0.3900 N   0  0  0  0  0  0  0  0  0  0  0  0
   11.4090  -15.5850   -0.2640 C   0  0  0  0  0  0  0  0  0  0  0  0
   12.5240  -16.3350   -0.6010 C   0  0  0  0  0  0  0  0  0  0  0  0
   16.3890  -17.4040   -0.2170 C   0  0  2  0  0  0  0  0  0  0  0  0
   17.3500  -18.3660   -0.6540 O   0  0  0  0  0  0  0  0  0  0  0  0
   16.9720  -16.5050    0.8560 C   0  0  2  0  0  0  0  0  0  0  0  0
   17.7750  -17.2900    1.7530 O   0  0  0  0  0  0  0  0  0  0  0  0
   10.5350  -11.3520    1.9830 C   0  0  0  0  0  0  0  0  0  0  0  0
    9.8820  -12.5800    1.7690 C   0  0  0  0  0  0  0  0  0  0  0  0
    8.4800  -12.6390    1.7280 C   0  0  0  0  0  0  0  0  0  0  0  0
    7.8120  -13.9270    1.5010 N   0  0  0  0  0  0  0  0  0  0  0  0
    8.1090  -14.8650    2.2550 O   0  0  0  0  0  0  0  0  0  0  0  0
    6.9940  -14.0000    0.5750 O   0  0  0  0  0  0  0  0  0  0  0  0
    7.7040  -11.4840    1.9000 C   0  0  0  0  0  0  0  0  0  0  0  0
    8.3550  -10.2770    2.1140 C   0  0  0  0  0  0  0  0  0  0  0  0
    7.6630   -9.1090    2.2930 O   0  0  0  0  0  0  0  0  0  0  0  0
    9.7520  -10.2030    2.1570 C   0  0  0  0  0  0  0  0  0  0  0  0
   10.3080   -8.9670    2.3810 O   0  0  0  0  0  0  0  0  0  0  0  0
   12.0850  -13.0310    0.8180 H   0  0  0  0  0  0  0  0  0  0  0  0
   14.3634  -12.3435    0.1755 H   0  0  0  0  0  0  0  0  0  0  0  0
   14.5502  -11.6067    1.7905 H   0  0  0  0  0  0  0  0  0  0  0  0
   14.3757  -13.9832    2.8260 H   0  0  0  0  0  0  0  0  0  0  0  0
   15.4523  -14.4188   -0.0159 H   0  0  0  0  0  0  0  0  0  0  0  0
   15.9671  -15.8549    2.6326 H   0  0  0  0  0  0  0  0  0  0  0  0
   15.4734  -18.8459    1.1738 H   0  0  0  0  0  0  0  0  0  0  0  0
   11.4561  -19.2745    0.7508 H   0  0  0  0  0  0  0  0  0  0  0  0
    9.5375  -17.8160    1.2761 H   0  0  0  0  0  0  0  0  0  0  0  0
   11.3946  -14.5218   -0.5459 H   0  0  0  0  0  0  0  0  0  0  0  0
   13.3728  -15.8764   -1.1293 H   0  0  0  0  0  0  0  0  0  0  0  0
   16.0981  -16.9081   -1.1548 H   0  0  0  0  0  0  0  0  0  0  0  0
   17.5560  -18.9220    0.1220 H   0  0  0  0  0  0  0  0  0  0  0  0
   17.6189  -15.7020    0.4729 H   0  0  0  0  0  0  0  0  0  0  0  0
   17.3140  -17.2380    2.6160 H   0  0  0  0  0  0  0  0  0  0  0  0
   10.4728  -13.4979    1.6332 H   0  0  0  0  0  0  0  0  0  0  0  0
    6.6056  -11.5332    1.8662 H   0  0  0  0  0  0  0  0  0  0  0  0
    7.3200   -8.8060    1.4310 H   0  0  0  0  0  0  0  0  0  0  0  0
   10.1570   -8.7900    3.3350 H   0  0  0  0  0  0  0  0  0  0  0  0
  1  2  2  0
  2  3  1  0
  3  4  1  0
  4  5  1  0
  5  6  2  0
  6  7  1  0
  7  8  1  0
  8  9  1  0
  9 10  1  0
 10 11  1  0
 11 12  2  0
 12 13  1  0
 13 14  2  0
 14 15  1  0
 15 16  2  0
  9 17  1  0
 17 18  1  0
 17 19  1  0
 19 20  1  0
  2 21  1  0
 21 22  2  0
 22 23  1  0
 23 24  1  0
 24 25  2  0
 24 26  1  0
 23 27  2  0
 27 28  1  0
 28 29  1  0
 28 30  2  0
 30 31  1  0
 19  7  1  0
 30 21  1  0
 16 11  1  0
  3 32  1  0
  4 33  1  0
  4 34  1  0
  5 35  1  0
  6 36  1  0
  7 37  1  1
  9 38  1  1
 12 39  1  0
 13 40  1  0
 15 41  1  0
 16 42  1  0
 17 43  1  6
 18 44  1  0
 19 45  1  6
 20 46  1  0
 22 47  1  0
 27 48  1  0
 29 49  1  0
 31 50  1  0
M  CHG  2  24   1  26  -1
M  END
>  <meeko>  (7) 
{"is_sidechain": [false], "free_energy": -7.964, "intermolecular_energy": -12.383, "internal_energy": -1.218}

$$$$
3oe5_ligand
     RDKit          3D

 50 52  0  0  0  0  0  0  0  0999 V2000
   14.8010  -17.7140   -2.4720 O   0  0  0  0  0  0  0  0  0  0  0  0
   14.9090  -17.1130   -1.4080 C   0  0  0  0  0  0  0  0  0  0  0  0
   16.1210  -16.8680   -0.8100 N   0  0  0  0  0  0  0  0  0  0  0  0
   17.3400  -17.4210   -1.3340 C   0  0  0  0  0  0  0  0  0  0  0  0
   18.1110  -17.9990   -0.1910 C   0  0  0  0  0  0  0  0  0  0  0  0
   19.4470  -17.9240   -0.0710 C   0  0  0  0  0  0  0  0  0  0  0  0
   20.2250  -18.5190    1.0700 C   0  0  1  0  0  0  0  0  0  0  0  0
   21.3950  -19.1430    0.4950 O   0  0  0  0  0  0  0  0  0  0  0  0
   22.5540  -18.5550    1.1040 C   0  0  1  0  0  0  0  0  0  0  0  0
   23.9500  -18.3940   -0.0610 S   0  0  0  0  0  0  0  0  0  0  0  0
   24.4840  -20.0930   -0.1750 C   0  0  0  0  0  0  0  0  0  0  0  0
   23.5870  -21.1450   -0.3430 C   0  0  0  0  0  0  0  0  0  0  0  0
   24.0920  -22.4310   -0.4370 C   0  0  0  0  0  0  0  0  0  0  0  0
   25.4070  -22.7280   -0.3820 N   0  0  0  0  0  0  0  0  0  0  0  0
   26.2570  -21.6900   -0.2400 C   0  0  0  0  0  0  0  0  0  0  0  0
   25.8500  -20.3700   -0.1380 C   0  0  0  0  0  0  0  0  0  0  0  0
   22.1160  -17.1690    1.5830 C   0  0  2  0  0  0  0  0  0  0  0  0
   22.9210  -16.6260    2.6300 O   0  0  0  0  0  0  0  0  0  0  0  0
   20.7150  -17.4710    2.0790 C   0  0  2  0  0  0  0  0  0  0  0  0
   20.7860  -18.0320    3.4000 O   0  0  0  0  0  0  0  0  0  0  0  0
   13.6870  -16.6150   -0.7070 C   0  0  0  0  0  0  0  0  0  0  0  0
   13.6040  -15.2320   -0.4590 C   0  0  0  0  0  0  0  0  0  0  0  0
   12.4840  -14.6970    0.1960 C   0  0  0  0  0  0  0  0  0  0  0  0
   12.4110  -13.2520    0.4520 N   0  0  0  0  0  0  0  0  0  0  0  0
   11.9000  -12.8870    1.5200 O   0  0  0  0  0  0  0  0  0  0  0  0
   12.8640  -12.4870   -0.4090 O   0  0  0  0  0  0  0  0  0  0  0  0
   11.4290  -15.5210    0.6130 C   0  0  0  0  0  0  0  0  0  0  0  0
   11.5170  -16.8830    0.3620 C   0  0  0  0  0  0  0  0  0  0  0  0
   10.5240  -17.7480    0.7370 O   0  0  0  0  0  0  0  0  0  0  0  0
   12.6280  -17.4310   -0.2900 C   0  0  0  0  0  0  0  0  0  0  0  0
   12.6240  -18.7880   -0.5020 O   0  0  0  0  0  0  0  0  0  0  0  0
   16.1080  -16.4800    0.1310 H   0  0  0  0  0  0  0  0  0  0  0  0
   17.1087  -18.2093   -2.0654 H   0  0  0  0  0  0  0  0  0  0  0  0
   17.9292  -16.6407   -1.8380 H   0  0  0  0  0  0  0  0  0  0  0  0
   17.5499  -18.5176    0.6004 H   0  0  0  0  0  0  0  0  0  0  0  0
   20.0065  -17.3944   -0.8562 H   0  0  0  0  0  0  0  0  0  0  0  0
   19.5660  -19.2161    1.6083 H   0  0  0  0  0  0  0  0  0  0  0  0
   22.9138  -19.1940    1.9239 H   0  0  0  0  0  0  0  0  0  0  0  0
   22.5043  -20.9590   -0.3996 H   0  0  0  0  0  0  0  0  0  0  0  0
   23.3791  -23.2591   -0.5640 H   0  0  0  0  0  0  0  0  0  0  0  0
   27.3353  -21.9043   -0.2031 H   0  0  0  0  0  0  0  0  0  0  0  0
   26.5864  -19.5600   -0.0304 H   0  0  0  0  0  0  0  0  0  0  0  0
   22.1939  -16.4052    0.7952 H   0  0  0  0  0  0  0  0  0  0  0  0
   22.3280  -16.0800    3.1800 H   0  0  0  0  0  0  0  0  0  0  0  0
   20.0571  -16.5918    2.1444 H   0  0  0  0  0  0  0  0  0  0  0  0
   20.3570  -17.3690    3.9800 H   0  0  0  0  0  0  0  0  0  0  0  0
   14.4201  -14.5679   -0.7798 H   0  0  0  0  0  0  0  0  0  0  0  0
   10.5529  -15.0982    1.1266 H   0  0  0  0  0  0  0  0  0  0  0  0
    9.6660  -17.2870    0.6970 H   0  0  0  0  0  0  0  0  0  0  0  0
   12.5320  -19.1850    0.3920 H   0  0  0  0  0  0  0  0  0  0  0  0
  1  2  2  0
  2  3  1  0
  3  4  1  0
  4  5  1  0
  5  6  2  0
  6  7  1  0
  7  8  1  0
  8  9  1  0
  9 10  1  0
 10 11  1  0
 11 12  2  0
 12 13  1  0
 13 14  2  0
 14 15  1  0
 15 16  2  0
  9 17  1  0
 17 18  1  0
 17 19  1  0
 19 20  1  0
  2 21  1  0
 21 22  2  0
 22 23  1  0
 23 24  1  0
 24 25  2  0
 24 26  1  0
 23 27  2  0
 27 28  1  0
 28 29  1  0
 28 30  2  0
 30 31  1  0
 19  7  1  0
 30 21  1  0
 16 11  1  0
  3 32  1  0
  4 33  1  0
  4 34  1  0
  5 35  1  0
  6 36  1  0
  7 37  1  1
  9 38  1  1
 12 39  1  0
 13 40  1  0
 15 41  1  0
 16 42  1  0
 17 43  1  6
 18 44  1  0
 19 45  1  1
 20 46  1  0
 22 47  1  0
 27 48  1  0
 29 49  1  0
 31 50  1  0
M  CHG  2  24   1  26  -1
M  END
>  <meeko>  (8) 
{"is_sidechain": [false], "free_energy": -7.924, "intermolecular_energy": -12.927, "internal_energy": -0.613}

$$$$
3oe5_ligand
     RDKit          3D

 50 52  0  0  0  0  0  0  0  0999 V2000
   13.3490  -12.7880   -0.4590 O   0  0  0  0  0  0  0  0  0  0  0  0
   12.8420  -13.4460    0.4430 C   0  0  0  0  0  0  0  0  0  0  0  0
   12.3310  -12.8790    1.5840 N   0  0  0  0  0  0  0  0  0  0  0  0
   12.4790  -11.4740    1.8520 C   0  0  0  0  0  0  0  0  0  0  0  0
   11.1530  -10.9490    2.3000 C   0  0  0  0  0  0  0  0  0  0  0  0
    9.9890  -11.5990    2.1260 C   0  0  0  0  0  0  0  0  0  0  0  0
    8.6530  -11.0650    2.5630 C   0  0  1  0  0  0  0  0  0  0  0  0
    8.6580   -9.6490    2.2730 O   0  0  0  0  0  0  0  0  0  0  0  0
    7.5510   -9.3730    1.4020 C   0  0  1  0  0  0  0  0  0  0  0  0
    7.9300   -8.0680    0.1840 S   0  0  0  0  0  0  0  0  0  0  0  0
    9.6110   -8.4860   -0.2400 C   0  0  0  0  0  0  0  0  0  0  0  0
    9.9290   -9.6080   -1.0030 C   0  0  0  0  0  0  0  0  0  0  0  0
   11.2600   -9.8480   -1.2970 C   0  0  0  0  0  0  0  0  0  0  0  0
   12.2740   -9.0550   -0.8930 N   0  0  0  0  0  0  0  0  0  0  0  0
   11.9400   -7.9630   -0.1730 C   0  0  0  0  0  0  0  0  0  0  0  0
   10.6380   -7.6380    0.1710 C   0  0  0  0  0  0  0  0  0  0  0  0
    7.2510  -10.6870    0.6780 C   0  0  2  0  0  0  0  0  0  0  0  0
    5.9220  -10.7870    0.1650 O   0  0  0  0  0  0  0  0  0  0  0  0
    7.4750  -11.6850    1.7990 C   0  0  2  0  0  0  0  0  0  0  0  0
    6.3040  -11.7410    2.6300 O   0  0  0  0  0  0  0  0  0  0  0  0
   12.7640  -14.9340    0.3250 C   0  0  0  0  0  0  0  0  0  0  0  0
   13.9770  -15.6480    0.3530 C   0  0  0  0  0  0  0  0  0  0  0  0
   13.9760  -17.0470    0.2470 C   0  0  0  0  0  0  0  0  0  0  0  0
   15.2490  -17.7800    0.2750 N   0  0  0  0  0  0  0  0  0  0  0  0
   15.9730  -17.6300    1.2700 O   0  0  0  0  0  0  0  0  0  0  0  0
   15.5230  -18.5030   -0.6920 O   0  0  0  0  0  0  0  0  0  0  0  0
   12.7770  -17.7610    0.1140 C   0  0  0  0  0  0  0  0  0  0  0  0
   11.5860  -17.0500    0.0900 C   0  0  0  0  0  0  0  0  0  0  0  0
   10.3760  -17.6790   -0.0350 O   0  0  0  0  0  0  0  0  0  0  0  0
   11.5700  -15.6540    0.1940 C   0  0  0  0  0  0  0  0  0  0  0  0
   10.3440  -15.0370    0.1690 O   0  0  0  0  0  0  0  0  0  0  0  0
   12.0510  -13.5070    2.3340 H   0  0  0  0  0  0  0  0  0  0  0  0
   13.2279  -11.3214    2.6431 H   0  0  0  0  0  0  0  0  0  0  0  0
   12.8147  -10.9450    0.9479 H   0  0  0  0  0  0  0  0  0  0  0  0
   11.1281   -9.9710    2.8028 H   0  0  0  0  0  0  0  0  0  0  0  0
   10.0157  -12.5822    1.6335 H   0  0  0  0  0  0  0  0  0  0  0  0
    8.5189  -11.3027    3.6286 H   0  0  0  0  0  0  0  0  0  0  0  0
    6.6945   -9.0053    1.9861 H   0  0  0  0  0  0  0  0  0  0  0  0
    9.1414  -10.2863   -1.3628 H   0  0  0  0  0  0  0  0  0  0  0  0
   11.5056  -10.7378   -1.8953 H   0  0  0  0  0  0  0  0  0  0  0  0
   12.7471   -7.2936    0.1592 H   0  0  0  0  0  0  0  0  0  0  0  0
   10.4197   -6.7317    0.7550 H   0  0  0  0  0  0  0  0  0  0  0  0
    7.8697  -10.8253   -0.2209 H   0  0  0  0  0  0  0  0  0  0  0  0
    5.3670  -10.2080    0.7220 H   0  0  0  0  0  0  0  0  0  0  0  0
    7.6710  -12.7129    1.4599 H   0  0  0  0  0  0  0  0  0  0  0  0
    5.9740  -10.8190    2.6640 H   0  0  0  0  0  0  0  0  0  0  0  0
   14.9290  -15.1071    0.4584 H   0  0  0  0  0  0  0  0  0  0  0  0
   12.7804  -18.8578    0.0307 H   0  0  0  0  0  0  0  0  0  0  0  0
   10.4980  -18.6370    0.1030 H   0  0  0  0  0  0  0  0  0  0  0  0
    9.6910  -15.7700    0.1570 H   0  0  0  0  0  0  0  0  0  0  0  0
  1  2  2  0
  2  3  1  0
  3  4  1  0
  4  5  1  0
  5  6  2  0
  6  7  1  0
  7  8  1  0
  8  9  1  0
  9 10  1  0
 10 11  1  0
 11 12  2  0
 12 13  1  0
 13 14  2  0
 14 15  1  0
 15 16  2  0
  9 17  1  0
 17 18  1  0
 17 19  1  0
 19 20  1  0
  2 21  1  0
 21 22  2  0
 22 23  1  0
 23 24  1  0
 24 25  2  0
 24 26  1  0
 23 27  2  0
 27 28  1  0
 28 29  1  0
 28 30  2  0
 30 31  1  0
 19  7  1  0
 30 21  1  0
 16 11  1  0
  3 32  1  0
  4 33  1  0
  4 34  1  0
  5 35  1  0
  6 36  1  0
  7 37  1  1
  9 38  1  1
 12 39  1  0
 13 40  1  0
 15 41  1  0
 16 42  1  0
 17 43  1  6
 18 44  1  0
 19 45  1  6
 20 46  1  0
 22 47  1  0
 27 48  1  0
 29 49  1  0
 31 50  1  0
M  CHG  2  24   1  26  -1
M  END
>  <meeko>  (9) 
{"is_sidechain": [false], "free_energy": -7.616, "intermolecular_energy": -11.291, "internal_energy": -1.779}

$$$$
