2xbv_ligand
     RDKit          3D

 57 60  0  0  0  0  0  0  0  0999 V2000
   12.2430   65.6620    2.8110 O   0  0  0  0  0  0  0  0  0  0  0  0
   11.6840   66.0880    3.8160 C   0  0  0  0  0  0  0  0  0  0  0  0
   12.1540   65.9560    5.1060 N   0  0  0  0  0  0  0  0  0  0  0  0
   13.3120   65.3150    5.5450 C   0  0  0  0  0  0  0  0  0  0  0  0
   14.3080   64.8330    4.7050 C   0  0  0  0  0  0  0  0  0  0  0  0
   15.4240   64.2030    5.2620 C   0  0  0  0  0  0  0  0  0  0  0  0
   15.5120   64.0740    6.6400 C   0  0  0  0  0  0  0  0  0  0  0  0
   16.8630   63.3090    7.3680 Cl  0  0  0  0  0  0  0  0  0  0  0  0
   14.4770   64.5800    7.4070 C   0  0  0  0  0  0  0  0  0  0  0  0
   13.3840   65.1940    6.8890 N   0  0  0  0  0  0  0  0  0  0  0  0
   10.3600   66.8400    3.7560 C   0  0  1  0  0  0  0  0  0  0  0  0
   10.4950   68.3600    3.9270 C   0  0  0  0  0  0  0  0  0  0  0  0
    9.8770   68.9490    2.7270 N   0  0  0  0  0  0  0  0  0  0  0  0
    9.2910   70.2850    2.9540 C   0  0  0  0  0  0  0  0  0  0  0  0
    7.8410   70.3230    3.4690 C   0  0  0  0  0  0  0  0  0  0  0  0
    7.7470   69.7400    4.6910 F   0  0  0  0  0  0  0  0  0  0  0  0
    7.4000   71.5980    3.5950 F   0  0  0  0  0  0  0  0  0  0  0  0
    8.9090   67.9730    2.2390 C   0  0  0  0  0  0  0  0  0  0  0  0
    9.6760   66.6690    2.3920 C   0  0  2  0  0  0  0  0  0  0  0  0
    8.7430   65.4720    2.3380 C   0  0  0  0  0  0  0  0  0  0  0  0
    7.5860   65.5930    1.9510 O   0  0  0  0  0  0  0  0  0  0  0  0
    9.3110   64.3250    2.8630 N   0  0  0  0  0  0  0  0  0  0  0  0
    8.7400   63.0320    2.8460 C   0  0  0  0  0  0  0  0  0  0  0  0
    7.9490   62.6710    3.9370 C   0  0  0  0  0  0  0  0  0  0  0  0
    7.3400   61.4080    3.9950 C   0  0  0  0  0  0  0  0  0  0  0  0
    7.5100   60.4580    2.9750 C   0  0  0  0  0  0  0  0  0  0  0  0
    6.8860   59.1500    3.0300 N   0  0  0  0  0  0  0  0  0  0  0  0
    7.4790   58.1050    3.7460 C   0  0  0  0  0  0  0  0  0  0  0  0
    6.9460   56.8800    3.8160 C   0  0  0  0  0  0  0  0  0  0  0  0
    5.7150   56.5890    3.1430 C   0  0  0  0  0  0  0  0  0  0  0  0
    5.0950   57.5430    2.4460 C   0  0  0  0  0  0  0  0  0  0  0  0
    5.6720   58.9150    2.3350 C   0  0  0  0  0  0  0  0  0  0  0  0
    5.0580   59.7110    1.6260 O   0  0  0  0  0  0  0  0  0  0  0  0
    8.3380   60.8210    1.9040 C   0  0  0  0  0  0  0  0  0  0  0  0
    8.9460   62.0800    1.8460 C   0  0  0  0  0  0  0  0  0  0  0  0
    9.7990   62.2970    0.8350 F   0  0  0  0  0  0  0  0  0  0  0  0
   11.6370   66.3910    5.8710 H   0  0  0  0  0  0  0  0  0  0  0  0
   14.2192   64.9459    3.6144 H   0  0  0  0  0  0  0  0  0  0  0  0
   16.2237   63.8138    4.6147 H   0  0  0  0  0  0  0  0  0  0  0  0
   14.5447   64.4783    8.5002 H   0  0  0  0  0  0  0  0  0  0  0  0
    9.7841   66.4063    4.5868 H   0  0  0  0  0  0  0  0  0  0  0  0
    9.9679   68.6929    4.8333 H   0  0  0  0  0  0  0  0  0  0  0  0
   11.5460   68.6660    4.0360 H   0  0  0  0  0  0  0  0  0  0  0  0
    9.9207   70.8048    3.6911 H   0  0  0  0  0  0  0  0  0  0  0  0
    9.2592   70.7601    1.9624 H   0  0  0  0  0  0  0  0  0  0  0  0
    7.2299   69.7795    2.7334 H   0  0  0  0  0  0  0  0  0  0  0  0
    7.9955   67.9744    2.8518 H   0  0  0  0  0  0  0  0  0  0  0  0
    8.5602   68.1664    1.2138 H   0  0  0  0  0  0  0  0  0  0  0  0
   10.3982   66.4752    1.5852 H   0  0  0  0  0  0  0  0  0  0  0  0
   10.0910   64.4590    3.4950 H   0  0  0  0  0  0  0  0  0  0  0  0
    7.8010   63.3844    4.7611 H   0  0  0  0  0  0  0  0  0  0  0  0
    6.7127   61.1555    4.8626 H   0  0  0  0  0  0  0  0  0  0  0  0
    8.4242   58.2988    4.2742 H   0  0  0  0  0  0  0  0  0  0  0  0
    7.4547   56.0932    4.3924 H   0  0  0  0  0  0  0  0  0  0  0  0
    5.2813   55.5797    3.2009 H   0  0  0  0  0  0  0  0  0  0  0  0
    4.1428   57.3145    1.9449 H   0  0  0  0  0  0  0  0  0  0  0  0
    8.5137   60.1006    1.0915 H   0  0  0  0  0  0  0  0  0  0  0  0
  1  2  2  0
  2  3  1  0
  3  4  1  0
  4  5  2  0
  5  6  1  0
  6  7  2  0
  7  8  1  0
  7  9  1  0
  9 10  2  0
  2 11  1  0
 11 12  1  0
 12 13  1  0
 13 14  1  0
 14 15  1  0
 15 16  1  0
 15 17  1  0
 13 18  1  0
 18 19  1  0
 19 20  1  0
 20 21  2  0
 20 22  1  0
 22 23  1  0
 23 24  2  0
 24 25  1  0
 25 26  2  0
 26 27  1  0
 27 28  1  0
 28 29  2  0
 29 30  1  0
 30 31  2  0
 31 32  1  0
 32 33  2  0
 26 34  1  0
 34 35  2  0
 35 36  1  0
 10  4  1  0
 19 11  1  0
 35 23  1  0
 32 27  1  0
  3 37  1  0
  5 38  1  0
  6 39  1  0
  9 40  1  0
 11 41  1  1
 12 42  1  0
 12 43  1  0
 14 44  1  0
 14 45  1  0
 15 46  1  0
 18 47  1  0
 18 48  1  0
 19 49  1  6
 22 50  1  0
 24 51  1  0
 25 52  1  0
 28 53  1  0
 29 54  1  0
 30 55  1  0
 31 56  1  0
 34 57  1  0
M  END
>  <meeko>  (1) 
{"is_sidechain": [false], "free_energy": -11.211, "intermolecular_energy": -15.798, "internal_energy": -0.994}

$$$$
2xbv_ligand
     RDKit          3D

 57 60  0  0  0  0  0  0  0  0999 V2000
   10.9060   68.5500    3.5140 O   0  0  0  0  0  0  0  0  0  0  0  0
   10.1730   67.6970    4.0020 C   0  0  0  0  0  0  0  0  0  0  0  0
   10.5510   66.4110    4.3250 N   0  0  0  0  0  0  0  0  0  0  0  0
   11.7970   65.8060    4.1580 C   0  0  0  0  0  0  0  0  0  0  0  0
   12.8420   65.8990    5.0690 C   0  0  0  0  0  0  0  0  0  0  0  0
   14.0480   65.2510    4.7890 C   0  0  0  0  0  0  0  0  0  0  0  0
   14.1750   64.5310    3.6110 C   0  0  0  0  0  0  0  0  0  0  0  0
   15.6360   63.7200    3.2270 Cl  0  0  0  0  0  0  0  0  0  0  0  0
   13.0870   64.4890    2.7570 C   0  0  0  0  0  0  0  0  0  0  0  0
   11.9070   65.1100    3.0050 N   0  0  0  0  0  0  0  0  0  0  0  0
    8.7070   67.9660    4.3200 C   0  0  1  0  0  0  0  0  0  0  0  0
    8.3220   69.4530    4.2850 C   0  0  0  0  0  0  0  0  0  0  0  0
    7.2200   69.5540    3.3130 N   0  0  0  0  0  0  0  0  0  0  0  0
    6.2780   70.6550    3.5930 C   0  0  0  0  0  0  0  0  0  0  0  0
    6.7670   72.0790    3.2720 C   0  0  0  0  0  0  0  0  0  0  0  0
    7.1730   72.7160    4.4000 F   0  0  0  0  0  0  0  0  0  0  0  0
    7.8210   72.0540    2.4210 F   0  0  0  0  0  0  0  0  0  0  0  0
    6.5790   68.2450    3.2790 C   0  0  0  0  0  0  0  0  0  0  0  0
    7.7770   67.3080    3.2900 C   0  0  2  0  0  0  0  0  0  0  0  0
    7.3690   65.8960    3.6720 C   0  0  0  0  0  0  0  0  0  0  0  0
    6.7090   65.6840    4.6830 O   0  0  0  0  0  0  0  0  0  0  0  0
    7.9110   64.9360    2.8360 N   0  0  0  0  0  0  0  0  0  0  0  0
    7.6240   63.5530    2.8630 C   0  0  0  0  0  0  0  0  0  0  0  0
    6.5020   63.1490    3.5880 C   0  0  0  0  0  0  0  0  0  0  0  0
    6.1430   61.7940    3.6600 C   0  0  0  0  0  0  0  0  0  0  0  0
    6.8970   60.7950    3.0230 C   0  0  0  0  0  0  0  0  0  0  0  0
    6.5340   59.3940    3.0960 N   0  0  0  0  0  0  0  0  0  0  0  0
    7.3160   58.4890    3.8200 C   0  0  0  0  0  0  0  0  0  0  0  0
    7.0260   57.1850    3.9060 C   0  0  0  0  0  0  0  0  0  0  0  0
    5.8710   56.6580    3.2430 C   0  0  0  0  0  0  0  0  0  0  0  0
    5.0790   57.4690    2.5380 C   0  0  0  0  0  0  0  0  0  0  0  0
    5.3850   58.9240    2.4100 C   0  0  0  0  0  0  0  0  0  0  0  0
    4.6280   59.5810    1.6950 O   0  0  0  0  0  0  0  0  0  0  0  0
    8.0430   61.2120    2.3310 C   0  0  0  0  0  0  0  0  0  0  0  0
    8.4020   62.5630    2.2600 C   0  0  0  0  0  0  0  0  0  0  0  0
    9.5650   62.8520    1.6620 F   0  0  0  0  0  0  0  0  0  0  0  0
    9.8760   65.7910    4.7750 H   0  0  0  0  0  0  0  0  0  0  0  0
   12.7216   66.4751    5.9983 H   0  0  0  0  0  0  0  0  0  0  0  0
   14.8883   65.3116    5.4963 H   0  0  0  0  0  0  0  0  0  0  0  0
   13.1849   63.9183    1.8218 H   0  0  0  0  0  0  0  0  0  0  0  0
    8.5880   67.5579    5.3345 H   0  0  0  0  0  0  0  0  0  0  0  0
    7.9892   69.7870    5.2788 H   0  0  0  0  0  0  0  0  0  0  0  0
    9.1745   70.0876    4.0012 H   0  0  0  0  0  0  0  0  0  0  0  0
    5.3678   70.4737    3.0026 H   0  0  0  0  0  0  0  0  0  0  0  0
    6.1283   70.6385    4.6826 H   0  0  0  0  0  0  0  0  0  0  0  0
    5.9192   72.6085    2.8128 H   0  0  0  0  0  0  0  0  0  0  0  0
    5.9411   68.0890    4.1614 H   0  0  0  0  0  0  0  0  0  0  0  0
    5.9097   68.1003    2.4181 H   0  0  0  0  0  0  0  0  0  0  0  0
    8.2601   67.1851    2.3094 H   0  0  0  0  0  0  0  0  0  0  0  0
    8.7350   65.2100    2.3120 H   0  0  0  0  0  0  0  0  0  0  0  0
    5.8918   63.9014    4.1092 H   0  0  0  0  0  0  0  0  0  0  0  0
    5.2474   61.5070    4.2305 H   0  0  0  0  0  0  0  0  0  0  0  0
    8.2085   58.8649    4.3417 H   0  0  0  0  0  0  0  0  0  0  0  0
    7.6770   56.5159    4.4879 H   0  0  0  0  0  0  0  0  0  0  0  0
    5.6367   55.5856    3.3147 H   0  0  0  0  0  0  0  0  0  0  0  0
    4.1864   57.0582    2.0435 H   0  0  0  0  0  0  0  0  0  0  0  0
    8.6738   60.4609    1.8330 H   0  0  0  0  0  0  0  0  0  0  0  0
  1  2  2  0
  2  3  1  0
  3  4  1  0
  4  5  2  0
  5  6  1  0
  6  7  2  0
  7  8  1  0
  7  9  1  0
  9 10  2  0
  2 11  1  0
 11 12  1  0
 12 13  1  0
 13 14  1  0
 14 15  1  0
 15 16  1  0
 15 17  1  0
 13 18  1  0
 18 19  1  0
 19 20  1  0
 20 21  2  0
 20 22  1  0
 22 23  1  0
 23 24  2  0
 24 25  1  0
 25 26  2  0
 26 27  1  0
 27 28  1  0
 28 29  2  0
 29 30  1  0
 30 31  2  0
 31 32  1  0
 32 33  2  0
 26 34  1  0
 34 35  2  0
 35 36  1  0
 10  4  1  0
 19 11  1  0
 35 23  1  0
 32 27  1  0
  3 37  1  0
  5 38  1  0
  6 39  1  0
  9 40  1  0
 11 41  1  1
 12 42  1  0
 12 43  1  0
 14 44  1  0
 14 45  1  0
 15 46  1  0
 18 47  1  0
 18 48  1  0
 19 49  1  6
 22 50  1  0
 24 51  1  0
 25 52  1  0
 28 53  1  0
 29 54  1  0
 30 55  1  0
 31 56  1  0
 34 57  1  0
M  END
>  <meeko>  (2) 
{"is_sidechain": [false], "free_energy": -9.383, "intermolecular_energy": -13.446, "internal_energy": -0.769}

$$$$
2xbv_ligand
     RDKit          3D

 57 60  0  0  0  0  0  0  0  0999 V2000
   12.8550   65.1840   -0.6100 O   0  0  0  0  0  0  0  0  0  0  0  0
   11.9000   64.6120   -0.0960 C   0  0  0  0  0  0  0  0  0  0  0  0
   10.7610   64.2080   -0.7600 N   0  0  0  0  0  0  0  0  0  0  0  0
   10.4390   64.3730   -2.1070 C   0  0  0  0  0  0  0  0  0  0  0  0
   10.4990   63.3600   -3.0570 C   0  0  0  0  0  0  0  0  0  0  0  0
   10.1550   63.6470   -4.3810 C   0  0  0  0  0  0  0  0  0  0  0  0
    9.7610   64.9340   -4.7160 C   0  0  0  0  0  0  0  0  0  0  0  0
    9.3300   65.3310   -6.3270 Cl  0  0  0  0  0  0  0  0  0  0  0  0
    9.7290   65.8850   -3.7120 C   0  0  0  0  0  0  0  0  0  0  0  0
   10.0600   65.6310   -2.4210 N   0  0  0  0  0  0  0  0  0  0  0  0
   11.8590   64.2650    1.3870 C   0  0  1  0  0  0  0  0  0  0  0  0
   13.1750   64.5370    2.1300 C   0  0  0  0  0  0  0  0  0  0  0  0
   12.8250   65.4500    3.2330 N   0  0  0  0  0  0  0  0  0  0  0  0
   13.6960   65.3150    4.4160 C   0  0  0  0  0  0  0  0  0  0  0  0
   15.0960   64.7190    4.1780 C   0  0  0  0  0  0  0  0  0  0  0  0
   16.0070   65.2780    5.0150 F   0  0  0  0  0  0  0  0  0  0  0  0
   15.1050   63.3830    4.4040 F   0  0  0  0  0  0  0  0  0  0  0  0
   11.4160   65.2180    3.5290 C   0  0  0  0  0  0  0  0  0  0  0  0
   10.8170   65.1100    2.1350 C   0  0  2  0  0  0  0  0  0  0  0  0
    9.4430   64.4650    2.1740 C   0  0  0  0  0  0  0  0  0  0  0  0
    8.4260   65.1450    2.0950 O   0  0  0  0  0  0  0  0  0  0  0  0
    9.4960   63.1030    2.4130 N   0  0  0  0  0  0  0  0  0  0  0  0
    8.4000   62.2120    2.3890 C   0  0  0  0  0  0  0  0  0  0  0  0
    7.8580   61.9020    1.1410 C   0  0  0  0  0  0  0  0  0  0  0  0
    6.7720   61.0190    1.0290 C   0  0  0  0  0  0  0  0  0  0  0  0
    6.1810   60.4280    2.1560 C   0  0  0  0  0  0  0  0  0  0  0  0
    5.0570   59.5190    2.0480 N   0  0  0  0  0  0  0  0  0  0  0  0
    3.7810   59.9940    1.7330 C   0  0  0  0  0  0  0  0  0  0  0  0
    2.7120   59.1950    1.6320 C   0  0  0  0  0  0  0  0  0  0  0  0
    2.8440   57.7840    1.8490 C   0  0  0  0  0  0  0  0  0  0  0  0
    4.0360   57.2650    2.1490 C   0  0  0  0  0  0  0  0  0  0  0  0
    5.2430   58.1330    2.2840 C   0  0  0  0  0  0  0  0  0  0  0  0
    6.2860   57.5700    2.6170 O   0  0  0  0  0  0  0  0  0  0  0  0
    6.7110   60.7790    3.4060 C   0  0  0  0  0  0  0  0  0  0  0  0
    7.7930   61.6600    3.5180 C   0  0  0  0  0  0  0  0  0  0  0  0
    8.1630   62.0120    4.7570 F   0  0  0  0  0  0  0  0  0  0  0  0
   10.0430   63.6920   -0.2500 H   0  0  0  0  0  0  0  0  0  0  0  0
   10.8132   62.3455   -2.7705 H   0  0  0  0  0  0  0  0  0  0  0  0
   10.1963   62.8606   -5.1491 H   0  0  0  0  0  0  0  0  0  0  0  0
    9.4171   66.9064   -3.9756 H   0  0  0  0  0  0  0  0  0  0  0  0
   11.6275   63.1896    1.3898 H   0  0  0  0  0  0  0  0  0  0  0  0
   13.5937   63.5998    2.5253 H   0  0  0  0  0  0  0  0  0  0  0  0
   13.9353   64.9734    1.4656 H   0  0  0  0  0  0  0  0  0  0  0  0
   13.8294   66.3177    4.8482 H   0  0  0  0  0  0  0  0  0  0  0  0
   13.1833   64.5969    5.0728 H   0  0  0  0  0  0  0  0  0  0  0  0
   15.3546   64.9283    3.1295 H   0  0  0  0  0  0  0  0  0  0  0  0
   11.2746   64.2876    4.0985 H   0  0  0  0  0  0  0  0  0  0  0  0
   10.9574   66.0010    4.1507 H   0  0  0  0  0  0  0  0  0  0  0  0
   10.6376   66.0793    1.6469 H   0  0  0  0  0  0  0  0  0  0  0  0
   10.3430   62.7560    2.8490 H   0  0  0  0  0  0  0  0  0  0  0  0
    8.2865   62.3546    0.2346 H   0  0  0  0  0  0  0  0  0  0  0  0
    6.3738   60.7843    0.0308 H   0  0  0  0  0  0  0  0  0  0  0  0
    3.6494   61.0724    1.5604 H   0  0  0  0  0  0  0  0  0  0  0  0
    1.7296   59.6220    1.3819 H   0  0  0  0  0  0  0  0  0  0  0  0
    1.9633   57.1299    1.7682 H   0  0  0  0  0  0  0  0  0  0  0  0
    4.1309   56.1795    2.2994 H   0  0  0  0  0  0  0  0  0  0  0  0
    6.2670   60.3530    4.3178 H   0  0  0  0  0  0  0  0  0  0  0  0
  1  2  2  0
  2  3  1  0
  3  4  1  0
  4  5  2  0
  5  6  1  0
  6  7  2  0
  7  8  1  0
  7  9  1  0
  9 10  2  0
  2 11  1  0
 11 12  1  0
 12 13  1  0
 13 14  1  0
 14 15  1  0
 15 16  1  0
 15 17  1  0
 13 18  1  0
 18 19  1  0
 19 20  1  0
 20 21  2  0
 20 22  1  0
 22 23  1  0
 23 24  2  0
 24 25  1  0
 25 26  2  0
 26 27  1  0
 27 28  1  0
 28 29  2  0
 29 30  1  0
 30 31  2  0
 31 32  1  0
 32 33  2  0
 26 34  1  0
 34 35  2  0
 35 36  1  0
 10  4  1  0
 19 11  1  0
 35 23  1  0
 32 27  1  0
  3 37  1  0
  5 38  1  0
  6 39  1  0
  9 40  1  0
 11 41  1  6
 12 42  1  0
 12 43  1  0
 14 44  1  0
 14 45  1  0
 15 46  1  0
 18 47  1  0
 18 48  1  0
 19 49  1  6
 22 50  1  0
 24 51  1  0
 25 52  1  0
 28 53  1  0
 29 54  1  0
 30 55  1  0
 31 56  1  0
 34 57  1  0
M  END
>  <meeko>  (3) 
{"is_sidechain": [false], "free_energy": -9.259, "intermolecular_energy": -12.718, "internal_energy": -1.323}

$$$$
2xbv_ligand
     RDKit          3D

 57 60  0  0  0  0  0  0  0  0999 V2000
   10.8880   63.6950    3.0310 O   0  0  0  0  0  0  0  0  0  0  0  0
   11.4720   64.5430    2.3650 C   0  0  0  0  0  0  0  0  0  0  0  0
   12.6820   65.1180    2.6930 N   0  0  0  0  0  0  0  0  0  0  0  0
   13.4720   64.8950    3.8200 C   0  0  0  0  0  0  0  0  0  0  0  0
   14.6440   64.1480    3.8210 C   0  0  0  0  0  0  0  0  0  0  0  0
   15.3500   63.9900    5.0160 C   0  0  0  0  0  0  0  0  0  0  0  0
   14.8650   64.5800    6.1740 C   0  0  0  0  0  0  0  0  0  0  0  0
   15.6980   64.4120    7.6630 Cl  0  0  0  0  0  0  0  0  0  0  0  0
   13.6900   65.3050    6.0890 C   0  0  0  0  0  0  0  0  0  0  0  0
   12.9870   65.4720    4.9410 N   0  0  0  0  0  0  0  0  0  0  0  0
   10.9140   65.0760    1.0510 C   0  0  1  0  0  0  0  0  0  0  0  0
   11.6220   64.5300   -0.1970 C   0  0  0  0  0  0  0  0  0  0  0  0
   10.5630   63.9120   -1.0140 N   0  0  0  0  0  0  0  0  0  0  0  0
   10.8370   63.9390   -2.4630 C   0  0  0  0  0  0  0  0  0  0  0  0
   10.4130   65.2090   -3.2220 C   0  0  0  0  0  0  0  0  0  0  0  0
   11.4050   66.1350   -3.2060 F   0  0  0  0  0  0  0  0  0  0  0  0
   10.1370   64.9360   -4.5200 F   0  0  0  0  0  0  0  0  0  0  0  0
    9.3190   64.5810   -0.6520 C   0  0  0  0  0  0  0  0  0  0  0  0
    9.4430   64.6770    0.8610 C   0  0  2  0  0  0  0  0  0  0  0  0
    8.4710   65.6950    1.4300 C   0  0  0  0  0  0  0  0  0  0  0  0
    7.2810   65.4260    1.5560 O   0  0  0  0  0  0  0  0  0  0  0  0
    9.0570   66.9260    1.6620 N   0  0  0  0  0  0  0  0  0  0  0  0
    8.4450   68.0320    2.2930 C   0  0  0  0  0  0  0  0  0  0  0  0
    7.7330   68.9160    1.4800 C   0  0  0  0  0  0  0  0  0  0  0  0
    7.0900   70.0360    2.0290 C   0  0  0  0  0  0  0  0  0  0  0  0
    7.1450   70.3210    3.4030 C   0  0  0  0  0  0  0  0  0  0  0  0
    6.4860   71.4780    3.9760 N   0  0  0  0  0  0  0  0  0  0  0  0
    7.1370   72.7140    4.0380 C   0  0  0  0  0  0  0  0  0  0  0  0
    6.5730   73.8060    4.5670 C   0  0  0  0  0  0  0  0  0  0  0  0
    5.2440   73.7450    5.1010 C   0  0  0  0  0  0  0  0  0  0  0  0
    4.5660   72.5960    5.0680 C   0  0  0  0  0  0  0  0  0  0  0  0
    5.1740   71.3580    4.4990 C   0  0  0  0  0  0  0  0  0  0  0  0
    4.4920   70.3350    4.5630 O   0  0  0  0  0  0  0  0  0  0  0  0
    7.8960   69.4460    4.2010 C   0  0  0  0  0  0  0  0  0  0  0  0
    8.5380   68.3290    3.6540 C   0  0  0  0  0  0  0  0  0  0  0  0
    9.3130   67.6100    4.4770 F   0  0  0  0  0  0  0  0  0  0  0  0
   13.1110   65.7800    2.0440 H   0  0  0  0  0  0  0  0  0  0  0  0
   15.0111   63.6869    2.8923 H   0  0  0  0  0  0  0  0  0  0  0  0
   16.2806   63.4040    5.0385 H   0  0  0  0  0  0  0  0  0  0  0  0
   13.3031   65.7735    7.0060 H   0  0  0  0  0  0  0  0  0  0  0  0
   11.0608   66.1629    1.1347 H   0  0  0  0  0  0  0  0  0  0  0  0
   12.1075   65.3467   -0.7514 H   0  0  0  0  0  0  0  0  0  0  0  0
   12.4087   63.8071    0.0646 H   0  0  0  0  0  0  0  0  0  0  0  0
   11.9214   63.8151   -2.5997 H   0  0  0  0  0  0  0  0  0  0  0  0
   10.2255   63.1297   -2.8885 H   0  0  0  0  0  0  0  0  0  0  0  0
    9.5157   65.5939   -2.7155 H   0  0  0  0  0  0  0  0  0  0  0  0
    9.2524   65.5780   -1.1120 H   0  0  0  0  0  0  0  0  0  0  0  0
    8.4155   64.0532   -0.9913 H   0  0  0  0  0  0  0  0  0  0  0  0
    9.1902   63.7478    1.3927 H   0  0  0  0  0  0  0  0  0  0  0  0
    9.9100   67.1210    1.1500 H   0  0  0  0  0  0  0  0  0  0  0  0
    7.6754   68.7325    0.3969 H   0  0  0  0  0  0  0  0  0  0  0  0
    6.5276   70.7090    1.3651 H   0  0  0  0  0  0  0  0  0  0  0  0
    8.1573   72.7920    3.6343 H   0  0  0  0  0  0  0  0  0  0  0  0
    7.1310   74.7537    4.5922 H   0  0  0  0  0  0  0  0  0  0  0  0
    4.7838   74.6438    5.5373 H   0  0  0  0  0  0  0  0  0  0  0  0
    3.5415   72.5611    5.4671 H   0  0  0  0  0  0  0  0  0  0  0  0
    7.9824   69.6417    5.2800 H   0  0  0  0  0  0  0  0  0  0  0  0
  1  2  2  0
  2  3  1  0
  3  4  1  0
  4  5  2  0
  5  6  1  0
  6  7  2  0
  7  8  1  0
  7  9  1  0
  9 10  2  0
  2 11  1  0
 11 12  1  0
 12 13  1  0
 13 14  1  0
 14 15  1  0
 15 16  1  0
 15 17  1  0
 13 18  1  0
 18 19  1  0
 19 20  1  0
 20 21  2  0
 20 22  1  0
 22 23  1  0
 23 24  2  0
 24 25  1  0
 25 26  2  0
 26 27  1  0
 27 28  1  0
 28 29  2  0
 29 30  1  0
 30 31  2  0
 31 32  1  0
 32 33  2  0
 26 34  1  0
 34 35  2  0
 35 36  1  0
 10  4  1  0
 19 11  1  0
 35 23  1  0
 32 27  1  0
  3 37  1  0
  5 38  1  0
  6 39  1  0
  9 40  1  0
 11 41  1  1
 12 42  1  0
 12 43  1  0
 14 44  1  0
 14 45  1  0
 15 46  1  0
 18 47  1  0
 18 48  1  0
 19 49  1  1
 22 50  1  0
 24 51  1  0
 25 52  1  0
 28 53  1  0
 29 54  1  0
 30 55  1  0
 31 56  1  0
 34 57  1  0
M  END
>  <meeko>  (4) 
{"is_sidechain": [false], "free_energy": -8.79, "intermolecular_energy": -11.811, "internal_energy": -1.57}

$$$$
2xbv_ligand
     RDKit          3D

 57 60  0  0  0  0  0  0  0  0999 V2000
    7.6200   62.0150    4.2390 O   0  0  0  0  0  0  0  0  0  0  0  0
    8.0580   61.9020    3.0990 C   0  0  0  0  0  0  0  0  0  0  0  0
    7.9410   60.7780    2.3090 N   0  0  0  0  0  0  0  0  0  0  0  0
    7.3430   59.5570    2.6200 C   0  0  0  0  0  0  0  0  0  0  0  0
    7.8900   58.6150    3.4820 C   0  0  0  0  0  0  0  0  0  0  0  0
    7.1990   57.4230    3.7150 C   0  0  0  0  0  0  0  0  0  0  0  0
    5.9850   57.2070    3.0810 C   0  0  0  0  0  0  0  0  0  0  0  0
    5.1030   55.7600    3.3370 Cl  0  0  0  0  0  0  0  0  0  0  0  0
    5.5100   58.1950    2.2360 C   0  0  0  0  0  0  0  0  0  0  0  0
    6.1630   59.3590    1.9940 N   0  0  0  0  0  0  0  0  0  0  0  0
    8.8070   63.0290    2.3970 C   0  0  1  0  0  0  0  0  0  0  0  0
    9.9770   62.5530    1.5240 C   0  0  0  0  0  0  0  0  0  0  0  0
    9.7040   63.0780    0.1750 N   0  0  0  0  0  0  0  0  0  0  0  0
   10.9200   63.3430   -0.6180 C   0  0  0  0  0  0  0  0  0  0  0  0
   11.8410   64.4680   -0.1130 C   0  0  0  0  0  0  0  0  0  0  0  0
   12.8490   63.9630    0.6420 F   0  0  0  0  0  0  0  0  0  0  0  0
   12.4060   65.1390   -1.1450 F   0  0  0  0  0  0  0  0  0  0  0  0
    8.8660   64.2580    0.3540 C   0  0  0  0  0  0  0  0  0  0  0  0
    7.8940   63.7930    1.4270 C   0  0  2  0  0  0  0  0  0  0  0  0
    7.1860   64.9690    2.0760 C   0  0  0  0  0  0  0  0  0  0  0  0
    6.0840   64.8300    2.5960 O   0  0  0  0  0  0  0  0  0  0  0  0
    7.8620   66.1630    1.9070 N   0  0  0  0  0  0  0  0  0  0  0  0
    7.5190   67.4030    2.4910 C   0  0  0  0  0  0  0  0  0  0  0  0
    6.6920   68.2490    1.7510 C   0  0  0  0  0  0  0  0  0  0  0  0
    6.2990   69.4960    2.2630 C   0  0  0  0  0  0  0  0  0  0  0  0
    6.7270   69.9470    3.5210 C   0  0  0  0  0  0  0  0  0  0  0  0
    6.3270   71.2350    4.0540 N   0  0  0  0  0  0  0  0  0  0  0  0
    7.1410   72.3600    3.8900 C   0  0  0  0  0  0  0  0  0  0  0  0
    6.8190   73.5660    4.3730 C   0  0  0  0  0  0  0  0  0  0  0  0
    5.5940   73.7500    5.0930 C   0  0  0  0  0  0  0  0  0  0  0  0
    4.7700   72.7170    5.2810 C   0  0  0  0  0  0  0  0  0  0  0  0
    5.1090   71.3570    4.7690 C   0  0  0  0  0  0  0  0  0  0  0  0
    4.3140   70.4580    5.0390 O   0  0  0  0  0  0  0  0  0  0  0  0
    7.5890   69.1030    4.2360 C   0  0  0  0  0  0  0  0  0  0  0  0
    7.9820   67.8600    3.7270 C   0  0  0  0  0  0  0  0  0  0  0  0
    8.8850   67.1710    4.4370 F   0  0  0  0  0  0  0  0  0  0  0  0
    8.2970   60.8030    1.3520 H   0  0  0  0  0  0  0  0  0  0  0  0
    8.8549   58.8050    3.9749 H   0  0  0  0  0  0  0  0  0  0  0  0
    7.6139   56.6639    4.3944 H   0  0  0  0  0  0  0  0  0  0  0  0
    4.5472   58.0265    1.7315 H   0  0  0  0  0  0  0  0  0  0  0  0
    9.1713   63.6496    3.2290 H   0  0  0  0  0  0  0  0  0  0  0  0
   10.9283   62.9520    1.9060 H   0  0  0  0  0  0  0  0  0  0  0  0
   10.0649   61.4565    1.5239 H   0  0  0  0  0  0  0  0  0  0  0  0
   11.5102   62.4151   -0.6440 H   0  0  0  0  0  0  0  0  0  0  0  0
   10.5576   63.6836   -1.5992 H   0  0  0  0  0  0  0  0  0  0  0  0
   11.2136   65.1469    0.4831 H   0  0  0  0  0  0  0  0  0  0  0  0
    9.4571   65.1203    0.6962 H   0  0  0  0  0  0  0  0  0  0  0  0
    8.3773   64.6002   -0.5701 H   0  0  0  0  0  0  0  0  0  0  0  0
    7.0715   63.1684    1.0482 H   0  0  0  0  0  0  0  0  0  0  0  0
    8.5220   66.2010    1.1380 H   0  0  0  0  0  0  0  0  0  0  0  0
    6.3441   67.9355    0.7556 H   0  0  0  0  0  0  0  0  0  0  0  0
    5.6375   70.1369    1.6615 H   0  0  0  0  0  0  0  0  0  0  0  0
    8.0872   72.2490    3.3401 H   0  0  0  0  0  0  0  0  0  0  0  0
    7.4967   74.4182    4.2168 H   0  0  0  0  0  0  0  0  0  0  0  0
    5.3328   74.7419    5.4905 H   0  0  0  0  0  0  0  0  0  0  0  0
    3.8250   72.8708    5.8225 H   0  0  0  0  0  0  0  0  0  0  0  0
    7.9645   69.4250    5.2185 H   0  0  0  0  0  0  0  0  0  0  0  0
  1  2  2  0
  2  3  1  0
  3  4  1  0
  4  5  2  0
  5  6  1  0
  6  7  2  0
  7  8  1  0
  7  9  1  0
  9 10  2  0
  2 11  1  0
 11 12  1  0
 12 13  1  0
 13 14  1  0
 14 15  1  0
 15 16  1  0
 15 17  1  0
 13 18  1  0
 18 19  1  0
 19 20  1  0
 20 21  2  0
 20 22  1  0
 22 23  1  0
 23 24  2  0
 24 25  1  0
 25 26  2  0
 26 27  1  0
 27 28  1  0
 28 29  2  0
 29 30  1  0
 30 31  2  0
 31 32  1  0
 32 33  2  0
 26 34  1  0
 34 35  2  0
 35 36  1  0
 10  4  1  0
 19 11  1  0
 35 23  1  0
 32 27  1  0
  3 37  1  0
  5 38  1  0
  6 39  1  0
  9 40  1  0
 11 41  1  1
 12 42  1  0
 12 43  1  0
 14 44  1  0
 14 45  1  0
 15 46  1  0
 18 47  1  0
 18 48  1  0
 19 49  1  6
 22 50  1  0
 24 51  1  0
 25 52  1  0
 28 53  1  0
 29 54  1  0
 30 55  1  0
 31 56  1  0
 34 57  1  0
M  END
>  <meeko>  (5) 
{"is_sidechain": [false], "free_energy": -8.753, "intermolecular_energy": -11.708, "internal_energy": -1.62}

$$$$
2xbv_ligand
     RDKit          3D

 57 60  0  0  0  0  0  0  0  0999 V2000
    9.6170   67.5680    4.6460 O   0  0  0  0  0  0  0  0  0  0  0  0
    9.5230   67.2030    3.4790 C   0  0  0  0  0  0  0  0  0  0  0  0
   10.4710   66.4740    2.7930 N   0  0  0  0  0  0  0  0  0  0  0  0
   11.7120   66.0240    3.2430 C   0  0  0  0  0  0  0  0  0  0  0  0
   12.6480   65.3790    2.4440 C   0  0  0  0  0  0  0  0  0  0  0  0
   13.8590   64.9700    3.0100 C   0  0  0  0  0  0  0  0  0  0  0  0
   14.0980   65.2150    4.3530 C   0  0  0  0  0  0  0  0  0  0  0  0
   15.5690   64.7300    5.0890 Cl  0  0  0  0  0  0  0  0  0  0  0  0
   13.1130   65.8610    5.0800 C   0  0  0  0  0  0  0  0  0  0  0  0
   11.9300   66.2670    4.5540 N   0  0  0  0  0  0  0  0  0  0  0  0
    8.3040   67.5220    2.6210 C   0  0  1  0  0  0  0  0  0  0  0  0
    8.3110   68.9370    2.0270 C   0  0  0  0  0  0  0  0  0  0  0  0
    8.1940   68.7550    0.5690 N   0  0  0  0  0  0  0  0  0  0  0  0
    7.5220   69.8740   -0.1190 C   0  0  0  0  0  0  0  0  0  0  0  0
    7.3540   69.7450   -1.6440 C   0  0  0  0  0  0  0  0  0  0  0  0
    6.2600   70.4270   -2.0680 F   0  0  0  0  0  0  0  0  0  0  0  0
    8.4260   70.2530   -2.2990 F   0  0  0  0  0  0  0  0  0  0  0  0
    7.5290   67.4730    0.3660 C   0  0  0  0  0  0  0  0  0  0  0  0
    8.2180   66.5950    1.4000 C   0  0  2  0  0  0  0  0  0  0  0  0
    7.4220   65.3300    1.6660 C   0  0  0  0  0  0  0  0  0  0  0  0
    6.2160   65.2880    1.4480 O   0  0  0  0  0  0  0  0  0  0  0  0
    8.1780   64.3350    2.2600 N   0  0  0  0  0  0  0  0  0  0  0  0
    7.7530   63.0130    2.5210 C   0  0  0  0  0  0  0  0  0  0  0  0
    8.0500   62.0470    1.5580 C   0  0  0  0  0  0  0  0  0  0  0  0
    7.6690   60.7090    1.7430 C   0  0  0  0  0  0  0  0  0  0  0  0
    6.9690   60.2910    2.8860 C   0  0  0  0  0  0  0  0  0  0  0  0
    6.5710   58.9100    3.0820 N   0  0  0  0  0  0  0  0  0  0  0  0
    7.3990   58.0170    3.7670 C   0  0  0  0  0  0  0  0  0  0  0  0
    7.0790   56.7330    3.9630 C   0  0  0  0  0  0  0  0  0  0  0  0
    5.8390   56.2150    3.4630 C   0  0  0  0  0  0  0  0  0  0  0  0
    5.0010   57.0160    2.8030 C   0  0  0  0  0  0  0  0  0  0  0  0
    5.3370   58.4490    2.5560 C   0  0  0  0  0  0  0  0  0  0  0  0
    4.5270   59.0940    1.8910 O   0  0  0  0  0  0  0  0  0  0  0  0
    6.6450   61.2790    3.8260 C   0  0  0  0  0  0  0  0  0  0  0  0
    7.0230   62.6140    3.6420 C   0  0  0  0  0  0  0  0  0  0  0  0
    6.5810   63.5000    4.5430 F   0  0  0  0  0  0  0  0  0  0  0  0
   10.2740   66.1760    1.8360 H   0  0  0  0  0  0  0  0  0  0  0  0
   12.4389   65.1927    1.3803 H   0  0  0  0  0  0  0  0  0  0  0  0
   14.6147   64.4588    2.3956 H   0  0  0  0  0  0  0  0  0  0  0  0
   13.3002   66.0566    6.1462 H   0  0  0  0  0  0  0  0  0  0  0  0
    7.4620   67.3993    3.3181 H   0  0  0  0  0  0  0  0  0  0  0  0
    7.4601   69.5189    2.4109 H   0  0  0  0  0  0  0  0  0  0  0  0
    9.2245   69.4873    2.2966 H   0  0  0  0  0  0  0  0  0  0  0  0
    6.5188   69.9810    0.3193 H   0  0  0  0  0  0  0  0  0  0  0  0
    8.1813   70.7422    0.0275 H   0  0  0  0  0  0  0  0  0  0  0  0
    7.2490   68.6718   -1.8614 H   0  0  0  0  0  0  0  0  0  0  0  0
    6.4488   67.5474    0.5602 H   0  0  0  0  0  0  0  0  0  0  0  0
    7.6046   67.0910   -0.6628 H   0  0  0  0  0  0  0  0  0  0  0  0
    9.2050   66.2226    1.0884 H   0  0  0  0  0  0  0  0  0  0  0  0
    9.0190   64.6360    2.7390 H   0  0  0  0  0  0  0  0  0  0  0  0
    8.5886   62.3377    0.6440 H   0  0  0  0  0  0  0  0  0  0  0  0
    7.9257   59.9679    0.9718 H   0  0  0  0  0  0  0  0  0  0  0  0
    8.3566   58.3862    4.1627 H   0  0  0  0  0  0  0  0  0  0  0  0
    7.7689   56.0729    4.5091 H   0  0  0  0  0  0  0  0  0  0  0  0
    5.5790   55.1583    3.6235 H   0  0  0  0  0  0  0  0  0  0  0  0
    4.0459   56.6134    2.4345 H   0  0  0  0  0  0  0  0  0  0  0  0
    6.0813   60.9990    4.7281 H   0  0  0  0  0  0  0  0  0  0  0  0
  1  2  2  0
  2  3  1  0
  3  4  1  0
  4  5  2  0
  5  6  1  0
  6  7  2  0
  7  8  1  0
  7  9  1  0
  9 10  2  0
  2 11  1  0
 11 12  1  0
 12 13  1  0
 13 14  1  0
 14 15  1  0
 15 16  1  0
 15 17  1  0
 13 18  1  0
 18 19  1  0
 19 20  1  0
 20 21  2  0
 20 22  1  0
 22 23  1  0
 23 24  2  0
 24 25  1  0
 25 26  2  0
 26 27  1  0
 27 28  1  0
 28 29  2  0
 29 30  1  0
 30 31  2  0
 31 32  1  0
 32 33  2  0
 26 34  1  0
 34 35  2  0
 35 36  1  0
 10  4  1  0
 19 11  1  0
 35 23  1  0
 32 27  1  0
  3 37  1  0
  5 38  1  0
  6 39  1  0
  9 40  1  0
 11 41  1  1
 12 42  1  0
 12 43  1  0
 14 44  1  0
 14 45  1  0
 15 46  1  0
 18 47  1  0
 18 48  1  0
 19 49  1  6
 22 50  1  0
 24 51  1  0
 25 52  1  0
 28 53  1  0
 29 54  1  0
 30 55  1  0
 31 56  1  0
 34 57  1  0
M  END
>  <meeko>  (6) 
{"is_sidechain": [false], "free_energy": -8.628, "intermolecular_energy": -12.43, "internal_energy": -0.721}

$$$$
2xbv_ligand
     RDKit          3D

 57 60  0  0  0  0  0  0  0  0999 V2000
   12.9140   65.1710   -1.3300 O   0  0  0  0  0  0  0  0  0  0  0  0
   11.9620   64.6390   -0.7690 C   0  0  0  0  0  0  0  0  0  0  0  0
   10.7910   64.2510   -1.3850 N   0  0  0  0  0  0  0  0  0  0  0  0
   10.4280   64.3910   -2.7240 C   0  0  0  0  0  0  0  0  0  0  0  0
   10.0760   65.5960   -3.3190 C   0  0  0  0  0  0  0  0  0  0  0  0
    9.7260   65.6110   -4.6720 C   0  0  0  0  0  0  0  0  0  0  0  0
    9.7370   64.4240   -5.3890 C   0  0  0  0  0  0  0  0  0  0  0  0
    9.3140   64.3950   -7.0500 Cl  0  0  0  0  0  0  0  0  0  0  0  0
   10.0970   63.2670   -4.7220 C   0  0  0  0  0  0  0  0  0  0  0  0
   10.4400   63.2270   -3.4100 N   0  0  0  0  0  0  0  0  0  0  0  0
   11.9620   64.3320    0.7230 C   0  0  1  0  0  0  0  0  0  0  0  0
   13.3460   63.9860    1.2910 C   0  0  0  0  0  0  0  0  0  0  0  0
   13.5770   64.9480    2.3830 N   0  0  0  0  0  0  0  0  0  0  0  0
   14.4420   64.4290    3.4600 C   0  0  0  0  0  0  0  0  0  0  0  0
   14.5180   65.2680    4.7490 C   0  0  0  0  0  0  0  0  0  0  0  0
   13.6510   64.7990    5.6810 F   0  0  0  0  0  0  0  0  0  0  0  0
   15.7590   65.2220    5.2910 F   0  0  0  0  0  0  0  0  0  0  0  0
   12.2600   65.3610    2.8540 C   0  0  0  0  0  0  0  0  0  0  0  0
   11.5030   65.5430    1.5480 C   0  0  2  0  0  0  0  0  0  0  0  0
   10.0030   65.5730    1.7800 C   0  0  0  0  0  0  0  0  0  0  0  0
    9.2390   65.9790    0.9100 O   0  0  0  0  0  0  0  0  0  0  0  0
    9.6510   65.2100    3.0680 N   0  0  0  0  0  0  0  0  0  0  0  0
    8.3360   65.0290    3.5500 C   0  0  0  0  0  0  0  0  0  0  0  0
    7.7670   63.7650    3.3890 C   0  0  0  0  0  0  0  0  0  0  0  0
    6.4670   63.4990    3.8470 C   0  0  0  0  0  0  0  0  0  0  0  0
    5.6850   64.4870    4.4670 C   0  0  0  0  0  0  0  0  0  0  0  0
    4.3410   64.2190    4.9390 N   0  0  0  0  0  0  0  0  0  0  0  0
    4.0970   63.9510    6.2890 C   0  0  0  0  0  0  0  0  0  0  0  0
    2.8750   63.6880    6.7680 C   0  0  0  0  0  0  0  0  0  0  0  0
    1.7430   63.6740    5.8890 C   0  0  0  0  0  0  0  0  0  0  0  0
    1.9070   63.9270    4.5890 C   0  0  0  0  0  0  0  0  0  0  0  0
    3.2590   64.2080    4.0220 C   0  0  0  0  0  0  0  0  0  0  0  0
    3.3170   64.3740    2.8040 O   0  0  0  0  0  0  0  0  0  0  0  0
    6.2550   65.7620    4.5870 C   0  0  0  0  0  0  0  0  0  0  0  0
    7.5510   66.0270    4.1300 C   0  0  0  0  0  0  0  0  0  0  0  0
    7.9700   67.2980    4.1980 F   0  0  0  0  0  0  0  0  0  0  0  0
   10.0760   63.7690   -0.8370 H   0  0  0  0  0  0  0  0  0  0  0  0
   10.0728   66.5267   -2.7326 H   0  0  0  0  0  0  0  0  0  0  0  0
    9.4448   66.5543   -5.1630 H   0  0  0  0  0  0  0  0  0  0  0  0
   10.1057   62.3241   -5.2885 H   0  0  0  0  0  0  0  0  0  0  0  0
   11.2833   63.4702    0.8045 H   0  0  0  0  0  0  0  0  0  0  0  0
   13.3560   62.9563    1.6777 H   0  0  0  0  0  0  0  0  0  0  0  0
   14.1293   64.0477    0.5212 H   0  0  0  0  0  0  0  0  0  0  0  0
   14.0712   63.4301    3.7335 H   0  0  0  0  0  0  0  0  0  0  0  0
   15.4607   64.4424    3.0452 H   0  0  0  0  0  0  0  0  0  0  0  0
   14.2639   66.3011    4.4697 H   0  0  0  0  0  0  0  0  0  0  0  0
   11.7970   64.5839    3.4799 H   0  0  0  0  0  0  0  0  0  0  0  0
   12.2762   66.2601    3.4875 H   0  0  0  0  0  0  0  0  0  0  0  0
   11.7082   66.4963    1.0390 H   0  0  0  0  0  0  0  0  0  0  0  0
   10.3760   65.2930    3.7710 H   0  0  0  0  0  0  0  0  0  0  0  0
    8.3439   62.9678    2.8975 H   0  0  0  0  0  0  0  0  0  0  0  0
    6.0497   62.4896    3.7168 H   0  0  0  0  0  0  0  0  0  0  0  0
    4.9461   63.9565    6.9882 H   0  0  0  0  0  0  0  0  0  0  0  0
    2.7391   63.4819    7.8399 H   0  0  0  0  0  0  0  0  0  0  0  0
    0.7405   63.4550    6.2854 H   0  0  0  0  0  0  0  0  0  0  0  0
    1.0309   63.9285    3.9239 H   0  0  0  0  0  0  0  0  0  0  0  0
    5.6714   66.5713    5.0501 H   0  0  0  0  0  0  0  0  0  0  0  0
  1  2  2  0
  2  3  1  0
  3  4  1  0
  4  5  2  0
  5  6  1  0
  6  7  2  0
  7  8  1  0
  7  9  1  0
  9 10  2  0
  2 11  1  0
 11 12  1  0
 12 13  1  0
 13 14  1  0
 14 15  1  0
 15 16  1  0
 15 17  1  0
 13 18  1  0
 18 19  1  0
 19 20  1  0
 20 21  2  0
 20 22  1  0
 22 23  1  0
 23 24  2  0
 24 25  1  0
 25 26  2  0
 26 27  1  0
 27 28  1  0
 28 29  2  0
 29 30  1  0
 30 31  2  0
 31 32  1  0
 32 33  2  0
 26 34  1  0
 34 35  2  0
 35 36  1  0
 10  4  1  0
 19 11  1  0
 35 23  1  0
 32 27  1  0
  3 37  1  0
  5 38  1  0
  6 39  1  0
  9 40  1  0
 11 41  1  6
 12 42  1  0
 12 43  1  0
 14 44  1  0
 14 45  1  0
 15 46  1  0
 18 47  1  0
 18 48  1  0
 19 49  1  6
 22 50  1  0
 24 51  1  0
 25 52  1  0
 28 53  1  0
 29 54  1  0
 30 55  1  0
 31 56  1  0
 34 57  1  0
M  END
>  <meeko>  (7) 
{"is_sidechain": [false], "free_energy": -8.378, "intermolecular_energy": -11.221, "internal_energy": -1.58}

$$$$
