3coz_ligand
     RDKit          3D

 54 56  0  0  0  0  0  0  0  0999 V2000
   14.0470    8.0360    7.4450 C   0  0  0  0  0  0  0  0  0  0  0  0
   14.5130    9.4060    6.9330 C   0  0  0  0  0  0  0  0  0  0  0  0
   13.9680   10.4880    7.8730 C   0  0  0  0  0  0  0  0  0  0  0  0
   16.0490    9.4950    6.8000 C   0  0  1  0  0  0  0  0  0  0  0  0
   16.6580    8.1340    7.0860 N   0  0  0  0  0  0  0  0  0  0  0  0
   16.4740    9.9240    5.3800 C   0  0  0  0  0  0  0  0  0  0  0  0
   17.0800    9.1250    4.6670 O   0  0  0  0  0  0  0  0  0  0  0  0
   16.2030   11.2360    4.9970 N   0  0  0  0  0  0  0  0  0  0  0  0
   16.8820   11.9170    3.6400 S   0  0  0  0  0  0  0  0  0  0  0  0
   18.2310   11.4090    3.5740 O   0  0  0  0  0  0  0  0  0  0  0  0
   16.5910   13.3250    3.7370 O   0  0  0  0  0  0  0  0  0  0  0  0
   16.0210   11.2790    2.4280 O   0  0  0  0  0  0  0  0  0  0  0  0
   14.6070   11.2900    2.5390 C   0  0  0  0  0  0  0  0  0  0  0  0
   14.0370   10.0480    1.8620 C   0  0  1  0  0  0  0  0  0  0  0  0
   13.4750   10.3950    0.5860 O   0  0  0  0  0  0  0  0  0  0  0  0
   13.6900    9.2750   -0.3210 C   0  0  1  0  0  0  0  0  0  0  0  0
   14.4730    9.7380   -1.4540 N   0  0  0  0  0  0  0  0  0  0  0  0
   15.7210   10.3040   -1.4350 C   0  0  0  0  0  0  0  0  0  0  0  0
   16.1570   10.5780   -2.6470 N   0  0  0  0  0  0  0  0  0  0  0  0
   15.1190   10.2260   -3.4850 C   0  0  0  0  0  0  0  0  0  0  0  0
   14.9530   10.2930   -4.8790 C   0  0  0  0  0  0  0  0  0  0  0  0
   15.9150   10.8060   -5.7350 N   0  0  0  0  0  0  0  0  0  0  0  0
   13.8050    9.8200   -5.4140 N   0  0  0  0  0  0  0  0  0  0  0  0
   12.8590    9.3330   -4.5820 C   0  0  0  0  0  0  0  0  0  0  0  0
   12.9050    9.2190   -3.2380 N   0  0  0  0  0  0  0  0  0  0  0  0
   14.0660    9.6920   -2.7600 C   0  0  0  0  0  0  0  0  0  0  0  0
   14.3860    8.1740    0.4930 C   0  0  2  0  0  0  0  0  0  0  0  0
   13.4180    7.3060    1.1080 O   0  0  0  0  0  0  0  0  0  0  0  0
   15.0870    8.9750    1.5780 C   0  0  2  0  0  0  0  0  0  0  0  0
   15.3990    8.1480    2.6970 O   0  0  0  0  0  0  0  0  0  0  0  0
   14.0471    8.0362    8.5450 H   0  0  0  0  0  0  0  0  0  0  0  0
   13.0297    7.8342    7.0785 H   0  0  0  0  0  0  0  0  0  0  0  0
   14.7303    7.2558    7.0785 H   0  0  0  0  0  0  0  0  0  0  0  0
   14.1171    9.5585    5.9181 H   0  0  0  0  0  0  0  0  0  0  0  0
   14.1237   10.1789    8.9171 H   0  0  0  0  0  0  0  0  0  0  0  0
   14.4968   11.4347    7.6881 H   0  0  0  0  0  0  0  0  0  0  0  0
   12.8925   10.6266    7.6881 H   0  0  0  0  0  0  0  0  0  0  0  0
   16.4033   10.2481    7.5193 H   0  0  0  0  0  0  0  0  0  0  0  0
   17.6840    8.1290    7.1060 H   0  0  0  0  0  0  0  0  0  0  0  0
   16.3070    7.7750    7.9880 H   0  0  0  0  0  0  0  0  0  0  0  0
   16.3560    7.4390    6.3850 H   0  0  0  0  0  0  0  0  0  0  0  0
   15.7120   11.9300    5.5570 H   0  0  0  0  0  0  0  0  0  0  0  0
   14.3221   11.2924    3.6015 H   0  0  0  0  0  0  0  0  0  0  0  0
   14.2068   12.1911    2.0514 H   0  0  0  0  0  0  0  0  0  0  0  0
   13.2891    9.6532    2.5654 H   0  0  0  0  0  0  0  0  0  0  0  0
   12.7560    8.8653   -0.7331 H   0  0  0  0  0  0  0  0  0  0  0  0
   16.2910   10.5056   -0.5161 H   0  0  0  0  0  0  0  0  0  0  0  0
   15.5500   11.3590   -6.5010 H   0  0  0  0  0  0  0  0  0  0  0  0
   16.7470   11.1250   -5.2570 H   0  0  0  0  0  0  0  0  0  0  0  0
   11.9322    8.9846   -5.0613 H   0  0  0  0  0  0  0  0  0  0  0  0
   15.0466    7.5379   -0.1145 H   0  0  0  0  0  0  0  0  0  0  0  0
   13.7910    6.4050    1.0230 H   0  0  0  0  0  0  0  0  0  0  0  0
   16.0647    9.4006    1.3080 H   0  0  0  0  0  0  0  0  0  0  0  0
   14.9080    7.3090    2.5880 H   0  0  0  0  0  0  0  0  0  0  0  0
  1  2  1  0
  2  3  1  0
  2  4  1  0
  4  5  1  0
  4  6  1  0
  6  7  2  0
  6  8  1  0
  8  9  1  0
  9 10  2  0
  9 11  2  0
  9 12  1  0
 12 13  1  0
 13 14  1  0
 14 15  1  0
 15 16  1  0
 16 17  1  0
 17 18  1  0
 18 19  2  0
 19 20  1  0
 20 21  2  0
 21 22  1  0
 21 23  1  0
 23 24  2  0
 24 25  1  0
 25 26  2  0
 16 27  1  0
 27 28  1  0
 27 29  1  0
 29 30  1  0
 29 14  1  0
 26 17  1  0
 26 20  1  0
  1 31  1  0
  1 32  1  0
  1 33  1  0
  2 34  1  0
  3 35  1  0
  3 36  1  0
  3 37  1  0
  4 38  1  1
  5 39  1  0
  5 40  1  0
  5 41  1  0
  8 42  1  0
 13 43  1  0
 13 44  1  0
 14 45  1  1
 16 46  1  6
 18 47  1  0
 22 48  1  0
 22 49  1  0
 24 50  1  0
 27 51  1  6
 28 52  1  0
 29 53  1  6
 30 54  1  0
M  CHG  1   5   1
M  END
>  <meeko>  (1) 
{"is_sidechain": [false], "free_energy": -9.256, "intermolecular_energy": -14.126, "internal_energy": -1.024}

$$$$
3coz_ligand
     RDKit          3D

 54 56  0  0  0  0  0  0  0  0999 V2000
   22.5110    8.6740    1.4090 C   0  0  0  0  0  0  0  0  0  0  0  0
   22.5300    9.2640   -0.0070 C   0  0  0  0  0  0  0  0  0  0  0  0
   23.3410    8.3280   -0.9130 C   0  0  0  0  0  0  0  0  0  0  0  0
   21.1110    9.5000   -0.5680 C   0  0  1  0  0  0  0  0  0  0  0  0
   20.3100    8.2140   -0.4660 N   0  0  0  0  0  0  0  0  0  0  0  0
   20.3620   10.5970    0.2180 C   0  0  0  0  0  0  0  0  0  0  0  0
   20.8500   11.7230    0.2910 O   0  0  0  0  0  0  0  0  0  0  0  0
   19.1860   10.2300    0.8690 N   0  0  0  0  0  0  0  0  0  0  0  0
   18.4600   11.2120    1.9990 S   0  0  0  0  0  0  0  0  0  0  0  0
   18.1180   12.4290    1.3040 O   0  0  0  0  0  0  0  0  0  0  0  0
   19.3430   11.1940    3.1370 O   0  0  0  0  0  0  0  0  0  0  0  0
   17.1000   10.4190    2.3680 O   0  0  0  0  0  0  0  0  0  0  0  0
   15.9170   11.1780    2.5530 C   0  0  0  0  0  0  0  0  0  0  0  0
   14.7400   10.4420    1.9200 C   0  0  1  0  0  0  0  0  0  0  0  0
   14.2810   11.1500    0.7570 O   0  0  0  0  0  0  0  0  0  0  0  0
   13.8190   10.1690   -0.2150 C   0  0  1  0  0  0  0  0  0  0  0  0
   14.5960   10.3180   -1.4330 N   0  0  0  0  0  0  0  0  0  0  0  0
   15.8880   10.7580   -1.5550 C   0  0  0  0  0  0  0  0  0  0  0  0
   16.3010   10.7380   -2.8040 N   0  0  0  0  0  0  0  0  0  0  0  0
   15.2060   10.3220   -3.5330 C   0  0  0  0  0  0  0  0  0  0  0  0
   14.9950   10.1200   -4.9080 C   0  0  0  0  0  0  0  0  0  0  0  0
   15.9650   10.3580   -5.8680 N   0  0  0  0  0  0  0  0  0  0  0  0
   13.7910    9.6570   -5.3130 N   0  0  0  0  0  0  0  0  0  0  0  0
   12.8380    9.4390   -4.3810 C   0  0  0  0  0  0  0  0  0  0  0  0
   12.9240    9.5960   -3.0440 N   0  0  0  0  0  0  0  0  0  0  0  0
   14.1380   10.0460   -2.6940 C   0  0  0  0  0  0  0  0  0  0  0  0
   13.9710    8.7890    0.4420 C   0  0  2  0  0  0  0  0  0  0  0  0
   12.7780    8.4310    1.1600 O   0  0  0  0  0  0  0  0  0  0  0  0
   15.0910    9.0340    1.4410 C   0  0  2  0  0  0  0  0  0  0  0  0
   15.0800    8.0450    2.4670 O   0  0  0  0  0  0  0  0  0  0  0  0
   22.5373    9.4897    2.1465 H   0  0  0  0  0  0  0  0  0  0  0  0
   21.5934    8.0835    1.5479 H   0  0  0  0  0  0  0  0  0  0  0  0
   23.3887    8.0257    1.5479 H   0  0  0  0  0  0  0  0  0  0  0  0
   23.0047   10.2557    0.0292 H   0  0  0  0  0  0  0  0  0  0  0  0
   23.9358    7.6416   -0.2925 H   0  0  0  0  0  0  0  0  0  0  0  0
   22.6555    7.7476   -1.5480 H   0  0  0  0  0  0  0  0  0  0  0  0
   24.0131    8.9239   -1.5480 H   0  0  0  0  0  0  0  0  0  0  0  0
   21.2154    9.8219   -1.6147 H   0  0  0  0  0  0  0  0  0  0  0  0
   19.3480    8.2910   -0.8160 H   0  0  0  0  0  0  0  0  0  0  0  0
   20.7910    7.4590   -0.9820 H   0  0  0  0  0  0  0  0  0  0  0  0
   20.2630    7.8840    0.5100 H   0  0  0  0  0  0  0  0  0  0  0  0
   18.7520    9.3100    0.8410 H   0  0  0  0  0  0  0  0  0  0  0  0
   15.7309   11.3116    3.6289 H   0  0  0  0  0  0  0  0  0  0  0  0
   16.0337   12.1630    2.0775 H   0  0  0  0  0  0  0  0  0  0  0  0
   13.9782   10.3819    2.7112 H   0  0  0  0  0  0  0  0  0  0  0  0
   12.7650   10.3044   -0.4993 H   0  0  0  0  0  0  0  0  0  0  0  0
   16.5071   11.0890   -0.7082 H   0  0  0  0  0  0  0  0  0  0  0  0
   16.9030   10.0830   -5.6030 H   0  0  0  0  0  0  0  0  0  0  0  0
   15.6510   10.1670   -6.8110 H   0  0  0  0  0  0  0  0  0  0  0  0
   11.8671    9.0884   -4.7610 H   0  0  0  0  0  0  0  0  0  0  0  0
   14.1621    7.9834   -0.2822 H   0  0  0  0  0  0  0  0  0  0  0  0
   12.2960    9.2730    1.2930 H   0  0  0  0  0  0  0  0  0  0  0  0
   16.1150    8.9643    1.0452 H   0  0  0  0  0  0  0  0  0  0  0  0
   14.2690    8.1820    2.9980 H   0  0  0  0  0  0  0  0  0  0  0  0
  1  2  1  0
  2  3  1  0
  2  4  1  0
  4  5  1  0
  4  6  1  0
  6  7  2  0
  6  8  1  0
  8  9  1  0
  9 10  2  0
  9 11  2  0
  9 12  1  0
 12 13  1  0
 13 14  1  0
 14 15  1  0
 15 16  1  0
 16 17  1  0
 17 18  1  0
 18 19  2  0
 19 20  1  0
 20 21  2  0
 21 22  1  0
 21 23  1  0
 23 24  2  0
 24 25  1  0
 25 26  2  0
 16 27  1  0
 27 28  1  0
 27 29  1  0
 29 30  1  0
 29 14  1  0
 26 17  1  0
 26 20  1  0
  1 31  1  0
  1 32  1  0
  1 33  1  0
  2 34  1  0
  3 35  1  0
  3 36  1  0
  3 37  1  0
  4 38  1  6
  5 39  1  0
  5 40  1  0
  5 41  1  0
  8 42  1  0
 13 43  1  0
 13 44  1  0
 14 45  1  1
 16 46  1  6
 18 47  1  0
 22 48  1  0
 22 49  1  0
 24 50  1  0
 27 51  1  6
 28 52  1  0
 29 53  1  6
 30 54  1  0
M  CHG  1   5   1
M  END
>  <meeko>  (2) 
{"is_sidechain": [false], "free_energy": -9.132, "intermolecular_energy": -13.726, "internal_energy": -1.235}

$$$$
3coz_ligand
     RDKit          3D

 54 56  0  0  0  0  0  0  0  0999 V2000
   22.3670    4.0900    4.3810 C   0  0  0  0  0  0  0  0  0  0  0  0
   21.5200    4.5870    3.2020 C   0  0  0  0  0  0  0  0  0  0  0  0
   20.2170    3.7790    3.1650 C   0  0  0  0  0  0  0  0  0  0  0  0
   21.2410    6.1040    3.2720 C   0  0  1  0  0  0  0  0  0  0  0  0
   21.3580    6.5700    4.7130 N   0  0  0  0  0  0  0  0  0  0  0  0
   22.2470    6.9090    2.4230 C   0  0  0  0  0  0  0  0  0  0  0  0
   23.4100    7.0120    2.8080 O   0  0  0  0  0  0  0  0  0  0  0  0
   21.7610    7.5410    1.2800 N   0  0  0  0  0  0  0  0  0  0  0  0
   22.6470    8.6870    0.4620 S   0  0  0  0  0  0  0  0  0  0  0  0
   23.7890    7.9920   -0.0810 O   0  0  0  0  0  0  0  0  0  0  0  0
   22.7790    9.7890    1.3820 O   0  0  0  0  0  0  0  0  0  0  0  0
   21.6710    9.1210   -0.7520 O   0  0  0  0  0  0  0  0  0  0  0  0
   20.2720    9.0090   -0.5530 C   0  0  0  0  0  0  0  0  0  0  0  0
   19.6230   10.3760   -0.7420 C   0  0  1  0  0  0  0  0  0  0  0  0
   18.2210   10.2240   -1.0180 O   0  0  0  0  0  0  0  0  0  0  0  0
   17.5180   11.3500   -0.4170 C   0  0  1  0  0  0  0  0  0  0  0  0
   16.5530   10.8380    0.5410 N   0  0  0  0  0  0  0  0  0  0  0  0
   16.6790   10.7730    1.9040 C   0  0  0  0  0  0  0  0  0  0  0  0
   15.6000   10.2840    2.4770 N   0  0  0  0  0  0  0  0  0  0  0  0
   14.7590    9.9620    1.4320 C   0  0  0  0  0  0  0  0  0  0  0  0
   13.4770    9.3890    1.3800 C   0  0  0  0  0  0  0  0  0  0  0  0
   12.7790    8.9850    2.5070 N   0  0  0  0  0  0  0  0  0  0  0  0
   12.8890    9.2350    0.1720 N   0  0  0  0  0  0  0  0  0  0  0  0
   13.5720    9.6130   -0.9300 C   0  0  0  0  0  0  0  0  0  0  0  0
   14.7980   10.1710   -1.0040 N   0  0  0  0  0  0  0  0  0  0  0  0
   15.3320   10.3100    0.2190 C   0  0  0  0  0  0  0  0  0  0  0  0
   18.5870   12.2520    0.2150 C   0  0  2  0  0  0  0  0  0  0  0  0
   19.0530   13.2300   -0.7300 O   0  0  0  0  0  0  0  0  0  0  0  0
   19.7100   11.2670    0.4960 C   0  0  2  0  0  0  0  0  0  0  0  0
   20.9550   11.9450    0.6440 O   0  0  0  0  0  0  0  0  0  0  0  0
   21.8821    4.3745    5.3265 H   0  0  0  0  0  0  0  0  0  0  0  0
   22.4585    2.9950    4.3309 H   0  0  0  0  0  0  0  0  0  0  0  0
   23.3676    4.5442    4.3309 H   0  0  0  0  0  0  0  0  0  0  0  0
   22.0842    4.4316    2.2706 H   0  0  0  0  0  0  0  0  0  0  0  0
   19.8842    3.5726    4.1929 H   0  0  0  0  0  0  0  0  0  0  0  0
   19.4428    4.3557    2.6378 H   0  0  0  0  0  0  0  0  0  0  0  0
   20.3894    2.8291    2.6378 H   0  0  0  0  0  0  0  0  0  0  0  0
   20.2281    6.2755    2.8788 H   0  0  0  0  0  0  0  0  0  0  0  0
   22.3010    6.8730    4.9810 H   0  0  0  0  0  0  0  0  0  0  0  0
   20.6990    7.3470    4.8850 H   0  0  0  0  0  0  0  0  0  0  0  0
   21.0710    5.8260    5.3670 H   0  0  0  0  0  0  0  0  0  0  0  0
   20.8070    7.4880    0.9300 H   0  0  0  0  0  0  0  0  0  0  0  0
   19.8531    8.2998   -1.2821 H   0  0  0  0  0  0  0  0  0  0  0  0
   20.0735    8.6455    0.4661 H   0  0  0  0  0  0  0  0  0  0  0  0
   20.1739   10.8440   -1.5711 H   0  0  0  0  0  0  0  0  0  0  0  0
   16.9482   11.9449   -1.1460 H   0  0  0  0  0  0  0  0  0  0  0  0
   17.5764   11.0920    2.4543 H   0  0  0  0  0  0  0  0  0  0  0  0
   12.8800    8.0050    2.7420 H   0  0  0  0  0  0  0  0  0  0  0  0
   12.7930    9.6680    3.2530 H   0  0  0  0  0  0  0  0  0  0  0  0
   13.0633    9.4442   -1.8906 H   0  0  0  0  0  0  0  0  0  0  0  0
   18.2227   12.8041    1.0939 H   0  0  0  0  0  0  0  0  0  0  0  0
   18.6660   14.0790   -0.4340 H   0  0  0  0  0  0  0  0  0  0  0  0
   19.6282   10.6982    1.4340 H   0  0  0  0  0  0  0  0  0  0  0  0
   20.8530   12.5920    1.3710 H   0  0  0  0  0  0  0  0  0  0  0  0
  1  2  1  0
  2  3  1  0
  2  4  1  0
  4  5  1  0
  4  6  1  0
  6  7  2  0
  6  8  1  0
  8  9  1  0
  9 10  2  0
  9 11  2  0
  9 12  1  0
 12 13  1  0
 13 14  1  0
 14 15  1  0
 15 16  1  0
 16 17  1  0
 17 18  1  0
 18 19  2  0
 19 20  1  0
 20 21  2  0
 21 22  1  0
 21 23  1  0
 23 24  2  0
 24 25  1  0
 25 26  2  0
 16 27  1  0
 27 28  1  0
 27 29  1  0
 29 30  1  0
 29 14  1  0
 26 17  1  0
 26 20  1  0
  1 31  1  0
  1 32  1  0
  1 33  1  0
  2 34  1  0
  3 35  1  0
  3 36  1  0
  3 37  1  0
  4 38  1  6
  5 39  1  0
  5 40  1  0
  5 41  1  0
  8 42  1  0
 13 43  1  0
 13 44  1  0
 14 45  1  6
 16 46  1  6
 18 47  1  0
 22 48  1  0
 22 49  1  0
 24 50  1  0
 27 51  1  1
 28 52  1  0
 29 53  1  1
 30 54  1  0
M  CHG  1   5   1
M  END
>  <meeko>  (3) 
{"is_sidechain": [false], "free_energy": -8.985, "intermolecular_energy": -13.569, "internal_energy": -1.167}

$$$$
3coz_ligand
     RDKit          3D

 54 56  0  0  0  0  0  0  0  0999 V2000
   19.4760   10.0130   -0.8510 C   0  0  0  0  0  0  0  0  0  0  0  0
   19.7810   11.2500    0.0050 C   0  0  0  0  0  0  0  0  0  0  0  0
   18.6120   12.2340   -0.1280 C   0  0  0  0  0  0  0  0  0  0  0  0
   20.0540   10.8940    1.4820 C   0  0  1  0  0  0  0  0  0  0  0  0
   20.8800   11.9980    2.1200 N   0  0  0  0  0  0  0  0  0  0  0  0
   18.7450   10.7490    2.2850 C   0  0  0  0  0  0  0  0  0  0  0  0
   18.1430    9.6770    2.2640 O   0  0  0  0  0  0  0  0  0  0  0  0
   18.2710   11.8780    2.9510 N   0  0  0  0  0  0  0  0  0  0  0  0
   16.7320   11.9510    3.5780 S   0  0  0  0  0  0  0  0  0  0  0  0
   16.5290   13.3250    3.9700 O   0  0  0  0  0  0  0  0  0  0  0  0
   16.6540   10.8600    4.5160 O   0  0  0  0  0  0  0  0  0  0  0  0
   15.7910   11.6250    2.3030 O   0  0  0  0  0  0  0  0  0  0  0  0
   14.3960   11.5000    2.5210 C   0  0  0  0  0  0  0  0  0  0  0  0
   13.9040   10.1910    1.9130 C   0  0  1  0  0  0  0  0  0  0  0  0
   13.3610   10.4270    0.6040 O   0  0  0  0  0  0  0  0  0  0  0  0
   13.6540    9.2640   -0.2230 C   0  0  1  0  0  0  0  0  0  0  0  0
   14.4450    9.6910   -1.3640 N   0  0  0  0  0  0  0  0  0  0  0  0
   15.7080   10.2230   -1.3570 C   0  0  0  0  0  0  0  0  0  0  0  0
   16.1470   10.4690   -2.5740 N   0  0  0  0  0  0  0  0  0  0  0  0
   15.0950   10.1370   -3.4040 C   0  0  0  0  0  0  0  0  0  0  0  0
   14.9260   10.1930   -4.7970 C   0  0  0  0  0  0  0  0  0  0  0  0
   15.8980   10.6690   -5.6630 N   0  0  0  0  0  0  0  0  0  0  0  0
   13.7620    9.7460   -5.3220 N   0  0  0  0  0  0  0  0  0  0  0  0
   12.8070    9.2960   -4.4810 C   0  0  0  0  0  0  0  0  0  0  0  0
   12.8550    9.1970   -3.1360 N   0  0  0  0  0  0  0  0  0  0  0  0
   14.0310    9.6420   -2.6680 C   0  0  0  0  0  0  0  0  0  0  0  0
   14.3790    8.2530    0.6770 C   0  0  2  0  0  0  0  0  0  0  0  0
   13.4370    7.3790    1.3240 O   0  0  0  0  0  0  0  0  0  0  0  0
   15.0110    9.1550    1.7250 C   0  0  2  0  0  0  0  0  0  0  0  0
   15.3310    8.4180    2.9030 O   0  0  0  0  0  0  0  0  0  0  0  0
   19.2647    9.1559   -0.1946 H   0  0  0  0  0  0  0  0  0  0  0  0
   18.6003   10.2133   -1.4859 H   0  0  0  0  0  0  0  0  0  0  0  0
   20.3444    9.7833   -1.4859 H   0  0  0  0  0  0  0  0  0  0  0  0
   20.7065   11.7163   -0.3638 H   0  0  0  0  0  0  0  0  0  0  0  0
   18.2637   12.5271    0.8734 H   0  0  0  0  0  0  0  0  0  0  0  0
   18.9453   13.1274   -0.6764 H   0  0  0  0  0  0  0  0  0  0  0  0
   17.7886   11.7532   -0.6764 H   0  0  0  0  0  0  0  0  0  0  0  0
   20.5900    9.9336    1.5001 H   0  0  0  0  0  0  0  0  0  0  0  0
   21.8920   11.8250    2.1080 H   0  0  0  0  0  0  0  0  0  0  0  0
   20.6920   12.8960    1.6460 H   0  0  0  0  0  0  0  0  0  0  0  0
   20.6000   12.1490    3.1010 H   0  0  0  0  0  0  0  0  0  0  0  0
   18.7330   12.7840    2.9890 H   0  0  0  0  0  0  0  0  0  0  0  0
   14.1917   11.5023    3.6019 H   0  0  0  0  0  0  0  0  0  0  0  0
   13.8730   12.3444    2.0482 H   0  0  0  0  0  0  0  0  0  0  0  0
   13.1567    9.8062    2.6226 H   0  0  0  0  0  0  0  0  0  0  0  0
   12.7519    8.7841   -0.6303 H   0  0  0  0  0  0  0  0  0  0  0  0
   16.2867   10.4211   -0.4428 H   0  0  0  0  0  0  0  0  0  0  0  0
   16.8100   10.2430   -5.5540 H   0  0  0  0  0  0  0  0  0  0  0  0
   15.5510   10.8440   -6.5970 H   0  0  0  0  0  0  0  0  0  0  0  0
   11.8690    8.9678   -4.9526 H   0  0  0  0  0  0  0  0  0  0  0  0
   15.0854    7.6131    0.1278 H   0  0  0  0  0  0  0  0  0  0  0  0
   13.6120    7.4780    2.2830 H   0  0  0  0  0  0  0  0  0  0  0  0
   15.9746    9.6096    1.4516 H   0  0  0  0  0  0  0  0  0  0  0  0
   14.7280    8.7200    3.6110 H   0  0  0  0  0  0  0  0  0  0  0  0
  1  2  1  0
  2  3  1  0
  2  4  1  0
  4  5  1  0
  4  6  1  0
  6  7  2  0
  6  8  1  0
  8  9  1  0
  9 10  2  0
  9 11  2  0
  9 12  1  0
 12 13  1  0
 13 14  1  0
 14 15  1  0
 15 16  1  0
 16 17  1  0
 17 18  1  0
 18 19  2  0
 19 20  1  0
 20 21  2  0
 21 22  1  0
 21 23  1  0
 23 24  2  0
 24 25  1  0
 25 26  2  0
 16 27  1  0
 27 28  1  0
 27 29  1  0
 29 30  1  0
 29 14  1  0
 26 17  1  0
 26 20  1  0
  1 31  1  0
  1 32  1  0
  1 33  1  0
  2 34  1  0
  3 35  1  0
  3 36  1  0
  3 37  1  0
  4 38  1  6
  5 39  1  0
  5 40  1  0
  5 41  1  0
  8 42  1  0
 13 43  1  0
 13 44  1  0
 14 45  1  1
 16 46  1  6
 18 47  1  0
 22 48  1  0
 22 49  1  0
 24 50  1  0
 27 51  1  6
 28 52  1  0
 29 53  1  6
 30 54  1  0
M  CHG  1   5   1
M  END
>  <meeko>  (4) 
{"is_sidechain": [false], "free_energy": -8.785, "intermolecular_energy": -13.338, "internal_energy": -1.094}

$$$$
3coz_ligand
     RDKit          3D

 54 56  0  0  0  0  0  0  0  0999 V2000
   14.8820   10.8580   -3.1790 C   0  0  0  0  0  0  0  0  0  0  0  0
   13.8240    9.9670   -2.5140 C   0  0  0  0  0  0  0  0  0  0  0  0
   12.9600    9.3360   -3.6130 C   0  0  0  0  0  0  0  0  0  0  0  0
   14.4470    8.8900   -1.6000 C   0  0  1  0  0  0  0  0  0  0  0  0
   15.9590    8.9270   -1.7390 N   0  0  0  0  0  0  0  0  0  0  0  0
   14.0950    9.1280   -0.1170 C   0  0  0  0  0  0  0  0  0  0  0  0
   12.9140    9.2230    0.2130 O   0  0  0  0  0  0  0  0  0  0  0  0
   15.1530    9.2900    0.7760 N   0  0  0  0  0  0  0  0  0  0  0  0
   14.9240    9.8640    2.3210 S   0  0  0  0  0  0  0  0  0  0  0  0
   14.4930    8.7320    3.1040 O   0  0  0  0  0  0  0  0  0  0  0  0
   14.1180   11.0490    2.1670 O   0  0  0  0  0  0  0  0  0  0  0  0
   16.4120   10.2900    2.7880 O   0  0  0  0  0  0  0  0  0  0  0  0
   16.6950   11.6720    2.9290 C   0  0  0  0  0  0  0  0  0  0  0  0
   17.7590   12.0770    1.9140 C   0  0  1  0  0  0  0  0  0  0  0  0
   19.0690   11.9460    2.4910 O   0  0  0  0  0  0  0  0  0  0  0  0
   19.9870   11.5360    1.4370 C   0  0  1  0  0  0  0  0  0  0  0  0
   20.5860   10.2660    1.8090 N   0  0  0  0  0  0  0  0  0  0  0  0
   20.3130    9.5020    2.9130 C   0  0  0  0  0  0  0  0  0  0  0  0
   21.0140    8.3870    2.9270 N   0  0  0  0  0  0  0  0  0  0  0  0
   21.8210    8.4610    1.8100 C   0  0  0  0  0  0  0  0  0  0  0  0
   22.8010    7.6040    1.2820 C   0  0  0  0  0  0  0  0  0  0  0  0
   23.1730    6.4130    1.8860 N   0  0  0  0  0  0  0  0  0  0  0  0
   23.4000    7.9490    0.1210 N   0  0  0  0  0  0  0  0  0  0  0  0
   23.0510    9.1160   -0.4620 C   0  0  0  0  0  0  0  0  0  0  0  0
   22.1320   10.0150   -0.0510 N   0  0  0  0  0  0  0  0  0  0  0  0
   21.5600    9.6200    1.0970 C   0  0  0  0  0  0  0  0  0  0  0  0
   19.1690   11.4680    0.1390 C   0  0  2  0  0  0  0  0  0  0  0  0
   19.1810   12.7360   -0.5390 O   0  0  0  0  0  0  0  0  0  0  0  0
   17.7660   11.2030    0.6600 C   0  0  2  0  0  0  0  0  0  0  0  0
   16.7870   11.5640   -0.3110 O   0  0  0  0  0  0  0  0  0  0  0  0
   15.4785   11.3603   -2.4032 H   0  0  0  0  0  0  0  0  0  0  0  0
   15.5415   10.2392   -3.8052 H   0  0  0  0  0  0  0  0  0  0  0  0
   14.3844   11.6131   -3.8052 H   0  0  0  0  0  0  0  0  0  0  0  0
   13.1998   10.5899   -1.8565 H   0  0  0  0  0  0  0  0  0  0  0  0
   12.1533    8.7469   -3.1523 H   0  0  0  0  0  0  0  0  0  0  0  0
   12.5238   10.1296   -4.2374 H   0  0  0  0  0  0  0  0  0  0  0  0
   13.5832    8.6790   -4.2374 H   0  0  0  0  0  0  0  0  0  0  0  0
   14.0422    7.9150   -1.9091 H   0  0  0  0  0  0  0  0  0  0  0  0
   16.4620    8.9710   -0.8450 H   0  0  0  0  0  0  0  0  0  0  0  0
   16.2840    8.0970   -2.2610 H   0  0  0  0  0  0  0  0  0  0  0  0
   16.2580    9.7340   -2.3070 H   0  0  0  0  0  0  0  0  0  0  0  0
   16.1420    9.2270    0.5450 H   0  0  0  0  0  0  0  0  0  0  0  0
   15.7786   12.2542    2.7523 H   0  0  0  0  0  0  0  0  0  0  0  0
   17.0634   11.8698    3.9464 H   0  0  0  0  0  0  0  0  0  0  0  0
   17.5152   13.1137    1.6388 H   0  0  0  0  0  0  0  0  0  0  0  0
   20.8179   12.2413    1.2881 H   0  0  0  0  0  0  0  0  0  0  0  0
   19.5936    9.7861    3.6951 H   0  0  0  0  0  0  0  0  0  0  0  0
   22.4040    5.7990    2.1260 H   0  0  0  0  0  0  0  0  0  0  0  0
   24.0120    6.0090    1.4910 H   0  0  0  0  0  0  0  0  0  0  0  0
   23.5841    9.3660   -1.3911 H   0  0  0  0  0  0  0  0  0  0  0  0
   19.5489   10.7207   -0.5732 H   0  0  0  0  0  0  0  0  0  0  0  0
   20.1220   13.0020   -0.5720 H   0  0  0  0  0  0  0  0  0  0  0  0
   17.5224   10.1519    0.8742 H   0  0  0  0  0  0  0  0  0  0  0  0
   17.2600   11.7640   -1.1440 H   0  0  0  0  0  0  0  0  0  0  0  0
  1  2  1  0
  2  3  1  0
  2  4  1  0
  4  5  1  0
  4  6  1  0
  6  7  2  0
  6  8  1  0
  8  9  1  0
  9 10  2  0
  9 11  2  0
  9 12  1  0
 12 13  1  0
 13 14  1  0
 14 15  1  0
 15 16  1  0
 16 17  1  0
 17 18  1  0
 18 19  2  0
 19 20  1  0
 20 21  2  0
 21 22  1  0
 21 23  1  0
 23 24  2  0
 24 25  1  0
 25 26  2  0
 16 27  1  0
 27 28  1  0
 27 29  1  0
 29 30  1  0
 29 14  1  0
 26 17  1  0
 26 20  1  0
  1 31  1  0
  1 32  1  0
  1 33  1  0
  2 34  1  0
  3 35  1  0
  3 36  1  0
  3 37  1  0
  4 38  1  6
  5 39  1  0
  5 40  1  0
  5 41  1  0
  8 42  1  0
 13 43  1  0
 13 44  1  0
 14 45  1  6
 16 46  1  6
 18 47  1  0
 22 48  1  0
 22 49  1  0
 24 50  1  0
 27 51  1  6
 28 52  1  0
 29 53  1  1
 30 54  1  0
M  CHG  1   5   1
M  END
>  <meeko>  (5) 
{"is_sidechain": [false], "free_energy": -8.624, "intermolecular_energy": -12.822, "internal_energy": -1.365}

$$$$
3coz_ligand
     RDKit          3D

 54 56  0  0  0  0  0  0  0  0999 V2000
   15.2270   10.2130   -5.0940 C   0  0  0  0  0  0  0  0  0  0  0  0
   14.3310    9.8620   -3.8990 C   0  0  0  0  0  0  0  0  0  0  0  0
   13.3970    8.7180   -4.3120 C   0  0  0  0  0  0  0  0  0  0  0  0
   15.1430    9.5000   -2.6370 C   0  0  1  0  0  0  0  0  0  0  0  0
   16.3050   10.4680   -2.4930 N   0  0  0  0  0  0  0  0  0  0  0  0
   14.2820    9.5900   -1.3600 C   0  0  0  0  0  0  0  0  0  0  0  0
   13.3680   10.4110   -1.3070 O   0  0  0  0  0  0  0  0  0  0  0  0
   14.6320    8.7670   -0.2900 N   0  0  0  0  0  0  0  0  0  0  0  0
   14.0030    8.9870    1.2340 S   0  0  0  0  0  0  0  0  0  0  0  0
   14.7670    8.1270    2.1050 O   0  0  0  0  0  0  0  0  0  0  0  0
   12.5770    8.8560    1.0760 O   0  0  0  0  0  0  0  0  0  0  0  0
   14.3620   10.5270    1.5700 O   0  0  0  0  0  0  0  0  0  0  0  0
   14.9410   10.8150    2.8320 C   0  0  0  0  0  0  0  0  0  0  0  0
   16.3400   11.3870    2.6270 C   0  0  1  0  0  0  0  0  0  0  0  0
   17.1800   11.0480    3.7430 O   0  0  0  0  0  0  0  0  0  0  0  0
   18.5340   10.8480    3.2430 C   0  0  1  0  0  0  0  0  0  0  0  0
   18.9530    9.4940    3.5610 N   0  0  0  0  0  0  0  0  0  0  0  0
   18.1560    8.4100    3.8220 C   0  0  0  0  0  0  0  0  0  0  0  0
   18.8620    7.3200    4.0400 N   0  0  0  0  0  0  0  0  0  0  0  0
   20.1780    7.7310    3.9760 C   0  0  0  0  0  0  0  0  0  0  0  0
   21.3980    7.0540    4.1410 C   0  0  0  0  0  0  0  0  0  0  0  0
   21.4830    5.7070    4.4550 N   0  0  0  0  0  0  0  0  0  0  0  0
   22.5460    7.7470    3.9720 N   0  0  0  0  0  0  0  0  0  0  0  0
   22.4680    9.0640    3.6810 C   0  0  0  0  0  0  0  0  0  0  0  0
   21.3620    9.8160    3.5000 N   0  0  0  0  0  0  0  0  0  0  0  0
   20.2530    9.0800    3.6690 C   0  0  0  0  0  0  0  0  0  0  0  0
   18.4960   11.1370    1.7350 C   0  0  2  0  0  0  0  0  0  0  0  0
   18.7570   12.5270    1.4750 O   0  0  0  0  0  0  0  0  0  0  0  0
   17.0470   10.8360    1.3900 C   0  0  2  0  0  0  0  0  0  0  0  0
   16.6740   11.4730    0.1700 O   0  0  0  0  0  0  0  0  0  0  0  0
   16.1932   10.5915   -4.7291 H   0  0  0  0  0  0  0  0  0  0  0  0
   15.3927    9.3133   -5.7048 H   0  0  0  0  0  0  0  0  0  0  0  0
   14.7375   10.9858   -5.7048 H   0  0  0  0  0  0  0  0  0  0  0  0
   13.7400   10.7489   -3.6269 H   0  0  0  0  0  0  0  0  0  0  0  0
   12.9970    8.2281   -3.4120 H   0  0  0  0  0  0  0  0  0  0  0  0
   12.5663    9.1207   -4.9101 H   0  0  0  0  0  0  0  0  0  0  0  0
   13.9577    7.9846   -4.9101 H   0  0  0  0  0  0  0  0  0  0  0  0
   15.4981    8.4655   -2.7538 H   0  0  0  0  0  0  0  0  0  0  0  0
   16.1300   11.2390   -1.8390 H   0  0  0  0  0  0  0  0  0  0  0  0
   17.1490    9.9580   -2.1860 H   0  0  0  0  0  0  0  0  0  0  0  0
   16.5570   10.8800   -3.4040 H   0  0  0  0  0  0  0  0  0  0  0  0
   15.3830    8.0800   -0.2890 H   0  0  0  0  0  0  0  0  0  0  0  0
   14.3179   11.5498    3.3629 H   0  0  0  0  0  0  0  0  0  0  0  0
   15.0042    9.8921    3.4272 H   0  0  0  0  0  0  0  0  0  0  0  0
   16.1949   12.4715    2.5142 H   0  0  0  0  0  0  0  0  0  0  0  0
   19.2708   11.5197    3.7077 H   0  0  0  0  0  0  0  0  0  0  0  0
   17.0569    8.4462    3.8465 H   0  0  0  0  0  0  0  0  0  0  0  0
   21.2910    5.0780    3.6860 H   0  0  0  0  0  0  0  0  0  0  0  0
   22.2460    5.4890    5.0830 H   0  0  0  0  0  0  0  0  0  0  0  0
   23.4284    9.5905    3.5785 H   0  0  0  0  0  0  0  0  0  0  0  0
   19.2388   10.5601    1.1645 H   0  0  0  0  0  0  0  0  0  0  0  0
   19.3090   12.5370    0.6670 H   0  0  0  0  0  0  0  0  0  0  0  0
   16.8063    9.7797    1.1996 H   0  0  0  0  0  0  0  0  0  0  0  0
   16.6430   10.7830   -0.5240 H   0  0  0  0  0  0  0  0  0  0  0  0
  1  2  1  0
  2  3  1  0
  2  4  1  0
  4  5  1  0
  4  6  1  0
  6  7  2  0
  6  8  1  0
  8  9  1  0
  9 10  2  0
  9 11  2  0
  9 12  1  0
 12 13  1  0
 13 14  1  0
 14 15  1  0
 15 16  1  0
 16 17  1  0
 17 18  1  0
 18 19  2  0
 19 20  1  0
 20 21  2  0
 21 22  1  0
 21 23  1  0
 23 24  2  0
 24 25  1  0
 25 26  2  0
 16 27  1  0
 27 28  1  0
 27 29  1  0
 29 30  1  0
 29 14  1  0
 26 17  1  0
 26 20  1  0
  1 31  1  0
  1 32  1  0
  1 33  1  0
  2 34  1  0
  3 35  1  0
  3 36  1  0
  3 37  1  0
  4 38  1  6
  5 39  1  0
  5 40  1  0
  5 41  1  0
  8 42  1  0
 13 43  1  0
 13 44  1  0
 14 45  1  6
 16 46  1  1
 18 47  1  0
 22 48  1  0
 22 49  1  0
 24 50  1  0
 27 51  1  6
 28 52  1  0
 29 53  1  6
 30 54  1  0
M  CHG  1   5   1
M  END
>  <meeko>  (6) 
{"is_sidechain": [false], "free_energy": -8.598, "intermolecular_energy": -12.772, "internal_energy": -1.373}

$$$$
3coz_ligand
     RDKit          3D

 54 56  0  0  0  0  0  0  0  0999 V2000
   15.0010    9.4570    4.1660 C   0  0  0  0  0  0  0  0  0  0  0  0
   15.4670    9.5460    2.7070 C   0  0  0  0  0  0  0  0  0  0  0  0
   14.5080    8.7230    1.8390 C   0  0  0  0  0  0  0  0  0  0  0  0
   15.5710   11.0030    2.2070 C   0  0  1  0  0  0  0  0  0  0  0  0
   14.7350   11.9020    3.1020 N   0  0  0  0  0  0  0  0  0  0  0  0
   17.0270   11.5140    2.2380 C   0  0  0  0  0  0  0  0  0  0  0  0
   17.5450   11.7880    3.3190 O   0  0  0  0  0  0  0  0  0  0  0  0
   17.6660   11.7040    1.0140 N   0  0  0  0  0  0  0  0  0  0  0  0
   19.0980   12.5420    0.8870 S   0  0  0  0  0  0  0  0  0  0  0  0
   18.8080   13.8880    1.3190 O   0  0  0  0  0  0  0  0  0  0  0  0
   19.5950   12.2440   -0.4320 O   0  0  0  0  0  0  0  0  0  0  0  0
   20.0480   11.8310    1.9870 O   0  0  0  0  0  0  0  0  0  0  0  0
   21.4280   11.6990    1.6880 C   0  0  0  0  0  0  0  0  0  0  0  0
   21.7710   10.2220    1.5240 C   0  0  1  0  0  0  0  0  0  0  0  0
   22.9800    9.9140    2.2380 O   0  0  0  0  0  0  0  0  0  0  0  0
   22.8650    8.5560    2.7530 C   0  0  1  0  0  0  0  0  0  0  0  0
   22.9840    8.5950    4.2010 N   0  0  0  0  0  0  0  0  0  0  0  0
   22.2150    9.3040    5.0860 C   0  0  0  0  0  0  0  0  0  0  0  0
   22.5720    9.0860    6.3350 N   0  0  0  0  0  0  0  0  0  0  0  0
   23.6600    8.2420    6.2500 C   0  0  0  0  0  0  0  0  0  0  0  0
   24.4980    7.6650    7.2190 C   0  0  0  0  0  0  0  0  0  0  0  0
   24.3610    7.8980    8.5780 N   0  0  0  0  0  0  0  0  0  0  0  0
   25.4780    6.8290    6.8070 N   0  0  0  0  0  0  0  0  0  0  0  0
   25.6240    6.6100    5.4830 C   0  0  0  0  0  0  0  0  0  0  0  0
   24.8860    7.1050    4.4670 N   0  0  0  0  0  0  0  0  0  0  0  0
   23.9240    7.9180    4.9290 C   0  0  0  0  0  0  0  0  0  0  0  0
   21.5140    8.0110    2.2670 C   0  0  2  0  0  0  0  0  0  0  0  0
   21.6540    7.3640    0.9900 O   0  0  0  0  0  0  0  0  0  0  0  0
   20.7030    9.2850    2.0850 C   0  0  2  0  0  0  0  0  0  0  0  0
   19.6000    9.0630    1.2100 O   0  0  0  0  0  0  0  0  0  0  0  0
   15.8584    9.6207    4.8354 H   0  0  0  0  0  0  0  0  0  0  0  0
   14.2368   10.2254    4.3543 H   0  0  0  0  0  0  0  0  0  0  0  0
   14.5737    8.4610    4.3543 H   0  0  0  0  0  0  0  0  0  0  0  0
   16.4845    9.1342    2.6350 H   0  0  0  0  0  0  0  0  0  0  0  0
   13.8331    8.1438    2.4863 H   0  0  0  0  0  0  0  0  0  0  0  0
   13.9165    9.3989    1.2040 H   0  0  0  0  0  0  0  0  0  0  0  0
   15.0863    8.0358    1.2040 H   0  0  0  0  0  0  0  0  0  0  0  0
   15.2085   11.0262    1.1687 H   0  0  0  0  0  0  0  0  0  0  0  0
   14.5330   12.8240    2.6990 H   0  0  0  0  0  0  0  0  0  0  0  0
   13.8420   11.4360    3.3300 H   0  0  0  0  0  0  0  0  0  0  0  0
   15.1980   12.0520    4.0110 H   0  0  0  0  0  0  0  0  0  0  0  0
   17.2730   11.4970    0.0980 H   0  0  0  0  0  0  0  0  0  0  0  0
   21.6541   12.2343    0.7540 H   0  0  0  0  0  0  0  0  0  0  0  0
   22.0244   12.1262    2.5077 H   0  0  0  0  0  0  0  0  0  0  0  0
   21.8637   10.0648    0.4392 H   0  0  0  0  0  0  0  0  0  0  0  0
   23.6605    7.8876    2.3919 H   0  0  0  0  0  0  0  0  0  0  0  0
   21.3963    9.9758    4.7886 H   0  0  0  0  0  0  0  0  0  0  0  0
   24.6040    8.8350    8.8750 H   0  0  0  0  0  0  0  0  0  0  0  0
   23.5450    7.4570    8.9810 H   0  0  0  0  0  0  0  0  0  0  0  0
   26.4500    5.9429    5.1953 H   0  0  0  0  0  0  0  0  0  0  0  0
   21.0730    7.2733    2.9535 H   0  0  0  0  0  0  0  0  0  0  0  0
   22.3660    6.7030    1.1150 H   0  0  0  0  0  0  0  0  0  0  0  0
   20.2214    9.6840    2.9899 H   0  0  0  0  0  0  0  0  0  0  0  0
   19.9460    8.6310    0.4040 H   0  0  0  0  0  0  0  0  0  0  0  0
  1  2  1  0
  2  3  1  0
  2  4  1  0
  4  5  1  0
  4  6  1  0
  6  7  2  0
  6  8  1  0
  8  9  1  0
  9 10  2  0
  9 11  2  0
  9 12  1  0
 12 13  1  0
 13 14  1  0
 14 15  1  0
 15 16  1  0
 16 17  1  0
 17 18  1  0
 18 19  2  0
 19 20  1  0
 20 21  2  0
 21 22  1  0
 21 23  1  0
 23 24  2  0
 24 25  1  0
 25 26  2  0
 16 27  1  0
 27 28  1  0
 27 29  1  0
 29 30  1  0
 29 14  1  0
 26 17  1  0
 26 20  1  0
  1 31  1  0
  1 32  1  0
  1 33  1  0
  2 34  1  0
  3 35  1  0
  3 36  1  0
  3 37  1  0
  4 38  1  6
  5 39  1  0
  5 40  1  0
  5 41  1  0
  8 42  1  0
 13 43  1  0
 13 44  1  0
 14 45  1  6
 16 46  1  6
 18 47  1  0
 22 48  1  0
 22 49  1  0
 24 50  1  0
 27 51  1  1
 28 52  1  0
 29 53  1  1
 30 54  1  0
M  CHG  1   5   1
M  END
>  <meeko>  (7) 
{"is_sidechain": [false], "free_energy": -8.538, "intermolecular_energy": -13.007, "internal_energy": -1.047}

$$$$
3coz_ligand
     RDKit          3D

 54 56  0  0  0  0  0  0  0  0999 V2000
   22.9060   10.2780    5.7630 C   0  0  0  0  0  0  0  0  0  0  0  0
   23.0750    8.8600    6.3240 C   0  0  0  0  0  0  0  0  0  0  0  0
   22.6340    8.8630    7.7930 C   0  0  0  0  0  0  0  0  0  0  0  0
   22.3020    7.8040    5.5050 C   0  0  1  0  0  0  0  0  0  0  0  0
   20.8100    8.0520    5.6470 N   0  0  0  0  0  0  0  0  0  0  0  0
   22.6590    7.8700    4.0060 C   0  0  0  0  0  0  0  0  0  0  0  0
   23.8340    7.7500    3.6620 O   0  0  0  0  0  0  0  0  0  0  0  0
   21.6240    8.1320    3.1100 N   0  0  0  0  0  0  0  0  0  0  0  0
   21.9130    8.5440    1.5250 S   0  0  0  0  0  0  0  0  0  0  0  0
   22.4060    7.3470    0.8880 O   0  0  0  0  0  0  0  0  0  0  0  0
   22.6840    9.7600    1.5850 O   0  0  0  0  0  0  0  0  0  0  0  0
   20.4390    8.8760    0.9480 O   0  0  0  0  0  0  0  0  0  0  0  0
   20.3150    9.1580   -0.4360 C   0  0  0  0  0  0  0  0  0  0  0  0
   19.6420   10.5150   -0.6180 C   0  0  1  0  0  0  0  0  0  0  0  0
   18.2630   10.3380   -0.9840 O   0  0  0  0  0  0  0  0  0  0  0  0
   17.4950   11.4240   -0.3890 C   0  0  1  0  0  0  0  0  0  0  0  0
   16.4880   10.8540    0.4900 N   0  0  0  0  0  0  0  0  0  0  0  0
   16.5530   10.7010    1.8500 C   0  0  0  0  0  0  0  0  0  0  0  0
   15.4490   10.1790    2.3410 N   0  0  0  0  0  0  0  0  0  0  0  0
   14.6560    9.9270    1.2400 C   0  0  0  0  0  0  0  0  0  0  0  0
   13.3780    9.3610    1.0940 C   0  0  0  0  0  0  0  0  0  0  0  0
   12.6300    8.8880    2.1600 N   0  0  0  0  0  0  0  0  0  0  0  0
   12.8450    9.2870   -0.1470 N   0  0  0  0  0  0  0  0  0  0  0  0
   13.5770    9.7340   -1.1900 C   0  0  0  0  0  0  0  0  0  0  0  0
   14.8060   10.2920   -1.1720 N   0  0  0  0  0  0  0  0  0  0  0  0
   15.2840   10.3510    0.0800 C   0  0  0  0  0  0  0  0  0  0  0  0
   18.5000   12.3290    0.3390 C   0  0  2  0  0  0  0  0  0  0  0  0
   18.9960   13.3520   -0.5410 O   0  0  0  0  0  0  0  0  0  0  0  0
   19.6300   11.3620    0.6540 C   0  0  2  0  0  0  0  0  0  0  0  0
   20.8450   12.0650    0.9020 O   0  0  0  0  0  0  0  0  0  0  0  0
   22.8207   10.9934    6.5942 H   0  0  0  0  0  0  0  0  0  0  0  0
   23.7799   10.5349    5.1463 H   0  0  0  0  0  0  0  0  0  0  0  0
   21.9962   10.3223    5.1463 H   0  0  0  0  0  0  0  0  0  0  0  0
   24.1348    8.5743    6.2513 H   0  0  0  0  0  0  0  0  0  0  0  0
   23.5218    8.8570    8.4424 H   0  0  0  0  0  0  0  0  0  0  0  0
   22.0380    9.7652    7.9951 H   0  0  0  0  0  0  0  0  0  0  0  0
   22.0258    7.9690    7.9951 H   0  0  0  0  0  0  0  0  0  0  0  0
   22.5804    6.8128    5.8925 H   0  0  0  0  0  0  0  0  0  0  0  0
   20.5600    8.6770    6.4230 H   0  0  0  0  0  0  0  0  0  0  0  0
   20.4350    8.4480    4.7700 H   0  0  0  0  0  0  0  0  0  0  0  0
   20.2990    7.1660    5.7820 H   0  0  0  0  0  0  0  0  0  0  0  0
   20.6420    8.2450    3.3520 H   0  0  0  0  0  0  0  0  0  0  0  0
   21.3134    9.1786   -0.8973 H   0  0  0  0  0  0  0  0  0  0  0  0
   19.7061    8.3783   -0.9169 H   0  0  0  0  0  0  0  0  0  0  0  0
   20.2286   11.0263   -1.3955 H   0  0  0  0  0  0  0  0  0  0  0  0
   16.9547   12.0306   -1.1308 H   0  0  0  0  0  0  0  0  0  0  0  0
   17.4248   10.9813    2.4595 H   0  0  0  0  0  0  0  0  0  0  0  0
   12.8680    7.9510    2.4640 H   0  0  0  0  0  0  0  0  0  0  0  0
   12.4380    9.5920    2.8590 H   0  0  0  0  0  0  0  0  0  0  0  0
   13.1121    9.6301   -2.1815 H   0  0  0  0  0  0  0  0  0  0  0  0
   18.0687   12.8397    1.2126 H   0  0  0  0  0  0  0  0  0  0  0  0
   18.3450   13.4010   -1.2710 H   0  0  0  0  0  0  0  0  0  0  0  0
   19.5070   10.7571    1.5645 H   0  0  0  0  0  0  0  0  0  0  0  0
   21.3450   12.0920    0.0620 H   0  0  0  0  0  0  0  0  0  0  0  0
  1  2  1  0
  2  3  1  0
  2  4  1  0
  4  5  1  0
  4  6  1  0
  6  7  2  0
  6  8  1  0
  8  9  1  0
  9 10  2  0
  9 11  2  0
  9 12  1  0
 12 13  1  0
 13 14  1  0
 14 15  1  0
 15 16  1  0
 16 17  1  0
 17 18  1  0
 18 19  2  0
 19 20  1  0
 20 21  2  0
 21 22  1  0
 21 23  1  0
 23 24  2  0
 24 25  1  0
 25 26  2  0
 16 27  1  0
 27 28  1  0
 27 29  1  0
 29 30  1  0
 29 14  1  0
 26 17  1  0
 26 20  1  0
  1 31  1  0
  1 32  1  0
  1 33  1  0
  2 34  1  0
  3 35  1  0
  3 36  1  0
  3 37  1  0
  4 38  1  1
  5 39  1  0
  5 40  1  0
  5 41  1  0
  8 42  1  0
 13 43  1  0
 13 44  1  0
 14 45  1  6
 16 46  1  6
 18 47  1  0
 22 48  1  0
 22 49  1  0
 24 50  1  0
 27 51  1  1
 28 52  1  0
 29 53  1  1
 30 54  1  0
M  CHG  1   5   1
M  END
>  <meeko>  (8) 
{"is_sidechain": [false], "free_energy": -8.454, "intermolecular_energy": -12.774, "internal_energy": -1.152}

$$$$
3coz_ligand
     RDKit          3D

 54 56  0  0  0  0  0  0  0  0999 V2000
   13.5390   10.8040   -1.6430 C   0  0  0  0  0  0  0  0  0  0  0  0
   14.2350   10.8410   -0.2770 C   0  0  0  0  0  0  0  0  0  0  0  0
   13.2480   10.3430    0.7860 C   0  0  0  0  0  0  0  0  0  0  0  0
   15.5450   10.0230   -0.2580 C   0  0  1  0  0  0  0  0  0  0  0  0
   15.4720    8.9350   -1.3160 N   0  0  0  0  0  0  0  0  0  0  0  0
   16.7730   10.9060   -0.5600 C   0  0  0  0  0  0  0  0  0  0  0  0
   17.0490   11.1730   -1.7290 O   0  0  0  0  0  0  0  0  0  0  0  0
   17.5570   11.3070    0.5200 N   0  0  0  0  0  0  0  0  0  0  0  0
   19.0650   11.9780    0.3150 S   0  0  0  0  0  0  0  0  0  0  0  0
   18.8490   13.3970    0.1620 O   0  0  0  0  0  0  0  0  0  0  0  0
   19.6990   11.1790   -0.7030 O   0  0  0  0  0  0  0  0  0  0  0  0
   19.7940   11.7080    1.7330 O   0  0  0  0  0  0  0  0  0  0  0  0
   21.2110   11.6650    1.7550 C   0  0  0  0  0  0  0  0  0  0  0  0
   21.6760   10.2250    1.5640 C   0  0  1  0  0  0  0  0  0  0  0  0
   22.9120   10.0080    2.2640 O   0  0  0  0  0  0  0  0  0  0  0  0
   22.9160    8.6360    2.7560 C   0  0  1  0  0  0  0  0  0  0  0  0
   23.0440    8.6620    4.2030 N   0  0  0  0  0  0  0  0  0  0  0  0
   22.3300    9.4180    5.0950 C   0  0  0  0  0  0  0  0  0  0  0  0
   22.6760    9.1700    6.3410 N   0  0  0  0  0  0  0  0  0  0  0  0
   23.7040    8.2550    6.2470 C   0  0  0  0  0  0  0  0  0  0  0  0
   24.5050    7.6190    7.2110 C   0  0  0  0  0  0  0  0  0  0  0  0
   24.3910    7.8550    8.5710 N   0  0  0  0  0  0  0  0  0  0  0  0
   25.4240    6.7200    6.7910 N   0  0  0  0  0  0  0  0  0  0  0  0
   25.5500    6.4970    5.4650 C   0  0  0  0  0  0  0  0  0  0  0  0
   24.8430    7.0450    4.4540 N   0  0  0  0  0  0  0  0  0  0  0  0
   23.9400    7.9190    4.9240 C   0  0  0  0  0  0  0  0  0  0  0  0
   21.6120    7.9880    2.2700 C   0  0  2  0  0  0  0  0  0  0  0  0
   21.7960    7.3760    0.9820 O   0  0  0  0  0  0  0  0  0  0  0  0
   20.6960    9.1920    2.1160 C   0  0  2  0  0  0  0  0  0  0  0  0
   19.6070    8.8920    1.2450 O   0  0  0  0  0  0  0  0  0  0  0  0
   12.4501   10.7461   -1.4983 H   0  0  0  0  0  0  0  0  0  0  0  0
   13.7862   11.7166   -2.2053 H   0  0  0  0  0  0  0  0  0  0  0  0
   13.8815    9.9228   -2.2053 H   0  0  0  0  0  0  0  0  0  0  0  0
   14.5293   11.8781   -0.0582 H   0  0  0  0  0  0  0  0  0  0  0  0
   13.6538   10.5477    1.7877 H   0  0  0  0  0  0  0  0  0  0  0  0
   12.2866   10.8639    0.6664 H   0  0  0  0  0  0  0  0  0  0  0  0
   13.0957    9.2602    0.6664 H   0  0  0  0  0  0  0  0  0  0  0  0
   15.6563    9.5934    0.7485 H   0  0  0  0  0  0  0  0  0  0  0  0
   16.1700    8.1910   -1.2000 H   0  0  0  0  0  0  0  0  0  0  0  0
   14.5310    8.5100   -1.3180 H   0  0  0  0  0  0  0  0  0  0  0  0
   15.5890    9.3300   -2.2610 H   0  0  0  0  0  0  0  0  0  0  0  0
   17.3700   11.1020    1.4990 H   0  0  0  0  0  0  0  0  0  0  0  0
   21.6100   12.2905    0.9429 H   0  0  0  0  0  0  0  0  0  0  0  0
   21.5756   12.0443    2.7210 H   0  0  0  0  0  0  0  0  0  0  0  0
   21.7726   10.0946    0.4760 H   0  0  0  0  0  0  0  0  0  0  0  0
   23.7611    8.0420    2.3780 H   0  0  0  0  0  0  0  0  0  0  0  0
   21.5586   10.1464    4.8045 H   0  0  0  0  0  0  0  0  0  0  0  0
   25.2170    7.6340    9.1130 H   0  0  0  0  0  0  0  0  0  0  0  0
   23.8790    8.6990    8.7890 H   0  0  0  0  0  0  0  0  0  0  0  0
   26.3280    5.7770    5.1713 H   0  0  0  0  0  0  0  0  0  0  0  0
   21.2393    7.2046    2.9463 H   0  0  0  0  0  0  0  0  0  0  0  0
   21.4780    8.0390    0.3350 H   0  0  0  0  0  0  0  0  0  0  0  0
   20.1909    9.5343    3.0312 H   0  0  0  0  0  0  0  0  0  0  0  0
   19.9820    8.5040    0.4290 H   0  0  0  0  0  0  0  0  0  0  0  0
  1  2  1  0
  2  3  1  0
  2  4  1  0
  4  5  1  0
  4  6  1  0
  6  7  2  0
  6  8  1  0
  8  9  1  0
  9 10  2  0
  9 11  2  0
  9 12  1  0
 12 13  1  0
 13 14  1  0
 14 15  1  0
 15 16  1  0
 16 17  1  0
 17 18  1  0
 18 19  2  0
 19 20  1  0
 20 21  2  0
 21 22  1  0
 21 23  1  0
 23 24  2  0
 24 25  1  0
 25 26  2  0
 16 27  1  0
 27 28  1  0
 27 29  1  0
 29 30  1  0
 29 14  1  0
 26 17  1  0
 26 20  1  0
  1 31  1  0
  1 32  1  0
  1 33  1  0
  2 34  1  0
  3 35  1  0
  3 36  1  0
  3 37  1  0
  4 38  1  1
  5 39  1  0
  5 40  1  0
  5 41  1  0
  8 42  1  0
 13 43  1  0
 13 44  1  0
 14 45  1  6
 16 46  1  6
 18 47  1  0
 22 48  1  0
 22 49  1  0
 24 50  1  0
 27 51  1  1
 28 52  1  0
 29 53  1  1
 30 54  1  0
M  CHG  1   5   1
M  END
>  <meeko>  (9) 
{"is_sidechain": [false], "free_energy": -8.342, "intermolecular_energy": -12.942, "internal_energy": -0.814}

$$$$
