3b5r_ligand
     RDKit          3D

 41 42  0  0  0  0  0  0  0  0999 V2000
   29.4510   -0.7930    2.7870 C   0  0  0  0  0  0  0  0  0  0  0  0
   29.7150    0.4400    3.6490 C   0  0  2  0  0  0  0  0  0  0  0  0
   30.6330    1.2780    2.9180 O   0  0  0  0  0  0  0  0  0  0  0  0
   30.3150    0.0730    5.0180 C   0  0  0  0  0  0  0  0  0  0  0  0
   30.1000    1.1750    5.9120 O   0  0  0  0  0  0  0  0  0  0  0  0
   29.8620    0.8740    7.2240 C   0  0  0  0  0  0  0  0  0  0  0  0
   29.3340    1.9290    7.9780 C   0  0  0  0  0  0  0  0  0  0  0  0
   29.0390    1.7640    9.3350 C   0  0  0  0  0  0  0  0  0  0  0  0
   29.2720    0.5330    9.9430 C   0  0  0  0  0  0  0  0  0  0  0  0
   28.9080    0.3280   11.6120 Cl  0  0  0  0  0  0  0  0  0  0  0  0
   29.7960   -0.5180    9.1930 C   0  0  0  0  0  0  0  0  0  0  0  0
   30.0260   -1.7120    9.7590 F   0  0  0  0  0  0  0  0  0  0  0  0
   30.0920   -0.3560    7.8380 C   0  0  0  0  0  0  0  0  0  0  0  0
   28.3920    1.2050    3.8730 C   0  0  0  0  0  0  0  0  0  0  0  0
   27.3430    0.6270    4.1380 O   0  0  0  0  0  0  0  0  0  0  0  0
   28.5560    2.5670    3.6790 N   0  0  0  0  0  0  0  0  0  0  0  0
   27.5830    3.5780    3.7270 C   0  0  0  0  0  0  0  0  0  0  0  0
   28.0320    4.9000    3.6570 C   0  0  0  0  0  0  0  0  0  0  0  0
   27.1260    5.9630    3.6950 C   0  0  0  0  0  0  0  0  0  0  0  0
   25.7520    5.7190    3.8010 C   0  0  0  0  0  0  0  0  0  0  0  0
   24.8560    6.8420    3.8370 C   0  0  0  0  0  0  0  0  0  0  0  0
   24.1430    7.7560    3.8650 N   0  0  0  0  0  0  0  0  0  0  0  0
   25.2820    4.3960    3.8680 C   0  0  0  0  0  0  0  0  0  0  0  0
   23.8050    4.1040    3.9770 C   0  0  0  0  0  0  0  0  0  0  0  0
   23.0290    4.9140    3.2060 F   0  0  0  0  0  0  0  0  0  0  0  0
   23.5000    2.8330    3.6020 F   0  0  0  0  0  0  0  0  0  0  0  0
   23.3410    4.2520    5.2480 F   0  0  0  0  0  0  0  0  0  0  0  0
   26.2110    3.3350    3.8280 C   0  0  0  0  0  0  0  0  0  0  0  0
   29.2651   -1.6613    3.4362 H   0  0  0  0  0  0  0  0  0  0  0  0
   28.5707   -0.6148    2.1520 H   0  0  0  0  0  0  0  0  0  0  0  0
   30.3271   -0.9909    2.1520 H   0  0  0  0  0  0  0  0  0  0  0  0
   31.5080    0.8480    3.0000 H   0  0  0  0  0  0  0  0  0  0  0  0
   29.8211   -0.8276    5.4116 H   0  0  0  0  0  0  0  0  0  0  0  0
   31.3913   -0.1312    4.9186 H   0  0  0  0  0  0  0  0  0  0  0  0
   29.1488    2.9006    7.4966 H   0  0  0  0  0  0  0  0  0  0  0  0
   28.6259    2.6005    9.9179 H   0  0  0  0  0  0  0  0  0  0  0  0
   30.5046   -1.1948    7.2581 H   0  0  0  0  0  0  0  0  0  0  0  0
   29.5310    2.8490    3.5910 H   0  0  0  0  0  0  0  0  0  0  0  0
   29.1092    5.1054    3.5712 H   0  0  0  0  0  0  0  0  0  0  0  0
   27.4949    6.9979    3.6413 H   0  0  0  0  0  0  0  0  0  0  0  0
   25.8485    2.2976    3.8772 H   0  0  0  0  0  0  0  0  0  0  0  0
  1  2  1  0
  2  3  1  6
  2  4  1  0
  4  5  1  0
  5  6  1  0
  6  7  2  0
  7  8  1  0
  8  9  2  0
  9 10  1  0
  9 11  1  0
 11 12  1  0
 11 13  2  0
  2 14  1  0
 14 15  2  0
 14 16  1  0
 16 17  1  0
 17 18  2  0
 18 19  1  0
 19 20  2  0
 20 21  1  0
 21 22  3  0
 20 23  1  0
 23 24  1  0
 24 25  1  0
 24 26  1  0
 24 27  1  0
 23 28  2  0
 13  6  1  0
 28 17  1  0
  1 29  1  0
  1 30  1  0
  1 31  1  0
  3 32  1  0
  4 33  1  0
  4 34  1  0
  7 35  1  0
  8 36  1  0
 13 37  1  0
 16 38  1  0
 18 39  1  0
 19 40  1  0
 28 41  1  0
M  END
>  <meeko>  (1) 
{"is_sidechain": [false], "free_energy": -11.381, "intermolecular_energy": -15.705, "internal_energy": -0.406}

$$$$
3b5r_ligand
     RDKit          3D

 41 42  0  0  0  0  0  0  0  0999 V2000
   30.1060   -1.2260    3.0260 C   0  0  0  0  0  0  0  0  0  0  0  0
   29.9930    0.0910    3.7910 C   0  0  2  0  0  0  0  0  0  0  0  0
   30.6650    1.0960    3.0050 O   0  0  0  0  0  0  0  0  0  0  0  0
   30.6290    0.0060    5.1900 C   0  0  0  0  0  0  0  0  0  0  0  0
   30.1000    1.0740    5.9900 O   0  0  0  0  0  0  0  0  0  0  0  0
   29.8660    0.8050    7.3100 C   0  0  0  0  0  0  0  0  0  0  0  0
   29.2920    1.8610    8.0260 C   0  0  0  0  0  0  0  0  0  0  0  0
   28.9950    1.7270    9.3860 C   0  0  0  0  0  0  0  0  0  0  0  0
   29.2750    0.5260   10.0350 C   0  0  0  0  0  0  0  0  0  0  0  0
   28.9090    0.3600   11.7080 Cl  0  0  0  0  0  0  0  0  0  0  0  0
   29.8460   -0.5250    9.3210 C   0  0  0  0  0  0  0  0  0  0  0  0
   30.1210   -1.6900    9.9260 F   0  0  0  0  0  0  0  0  0  0  0  0
   30.1430   -0.3940    7.9640 C   0  0  0  0  0  0  0  0  0  0  0  0
   28.5050    0.4730    3.9420 C   0  0  0  0  0  0  0  0  0  0  0  0
   27.6340   -0.3680    4.1460 O   0  0  0  0  0  0  0  0  0  0  0  0
   28.3090    1.8330    3.7630 N   0  0  0  0  0  0  0  0  0  0  0  0
   27.1010    2.5480    3.7610 C   0  0  0  0  0  0  0  0  0  0  0  0
   25.9190    1.8020    3.7880 C   0  0  0  0  0  0  0  0  0  0  0  0
   24.6760    2.4400    3.7920 C   0  0  0  0  0  0  0  0  0  0  0  0
   24.5960    3.8380    3.7700 C   0  0  0  0  0  0  0  0  0  0  0  0
   23.2960    4.4510    3.7730 C   0  0  0  0  0  0  0  0  0  0  0  0
   22.2420    4.9340    3.7770 N   0  0  0  0  0  0  0  0  0  0  0  0
   25.7740    4.6030    3.7460 C   0  0  0  0  0  0  0  0  0  0  0  0
   25.7170    6.1110    3.7270 C   0  0  0  0  0  0  0  0  0  0  0  0
   26.9170    6.7070    3.9690 F   0  0  0  0  0  0  0  0  0  0  0  0
   25.2980    6.5970    2.5280 F   0  0  0  0  0  0  0  0  0  0  0  0
   24.8640    6.6080    4.6630 F   0  0  0  0  0  0  0  0  0  0  0  0
   27.0210    3.9420    3.7440 C   0  0  0  0  0  0  0  0  0  0  0  0
   30.1775   -2.0598    3.7399 H   0  0  0  0  0  0  0  0  0  0  0  0
   29.2161   -1.3602    2.3935 H   0  0  0  0  0  0  0  0  0  0  0  0
   31.0058   -1.2066    2.3935 H   0  0  0  0  0  0  0  0  0  0  0  0
   31.3970    0.6310    2.5490 H   0  0  0  0  0  0  0  0  0  0  0  0
   30.3839   -0.9617    5.6521 H   0  0  0  0  0  0  0  0  0  0  0  0
   31.7230    0.0936    5.1155 H   0  0  0  0  0  0  0  0  0  0  0  0
   29.0715    2.8086    7.5128 H   0  0  0  0  0  0  0  0  0  0  0  0
   28.5436    2.5636    9.9395 H   0  0  0  0  0  0  0  0  0  0  0  0
   30.5935   -1.2329    7.4132 H   0  0  0  0  0  0  0  0  0  0  0  0
   29.1780    2.3650    3.7320 H   0  0  0  0  0  0  0  0  0  0  0  0
   25.9680    0.7032    3.8063 H   0  0  0  0  0  0  0  0  0  0  0  0
   23.7541    1.8403    3.8126 H   0  0  0  0  0  0  0  0  0  0  0  0
   27.9468    4.5358    3.7288 H   0  0  0  0  0  0  0  0  0  0  0  0
  1  2  1  0
  2  3  1  6
  2  4  1  0
  4  5  1  0
  5  6  1  0
  6  7  2  0
  7  8  1  0
  8  9  2  0
  9 10  1  0
  9 11  1  0
 11 12  1  0
 11 13  2  0
  2 14  1  0
 14 15  2  0
 14 16  1  0
 16 17  1  0
 17 18  2  0
 18 19  1  0
 19 20  2  0
 20 21  1  0
 21 22  3  0
 20 23  1  0
 23 24  1  0
 24 25  1  0
 24 26  1  0
 24 27  1  0
 23 28  2  0
 13  6  1  0
 28 17  1  0
  1 29  1  0
  1 30  1  0
  1 31  1  0
  3 32  1  0
  4 33  1  0
  4 34  1  0
  7 35  1  0
  8 36  1  0
 13 37  1  0
 16 38  1  0
 18 39  1  0
 19 40  1  0
 28 41  1  0
M  END
>  <meeko>  (2) 
{"is_sidechain": [false], "free_energy": -10.224, "intermolecular_energy": -14.178, "internal_energy": -0.336}

$$$$
3b5r_ligand
     RDKit          3D

 41 42  0  0  0  0  0  0  0  0999 V2000
   30.5320    0.8030    3.0150 C   0  0  0  0  0  0  0  0  0  0  0  0
   29.0580    1.0290    3.3450 C   0  0  2  0  0  0  0  0  0  0  0  0
   28.2890    0.3380    2.3410 O   0  0  0  0  0  0  0  0  0  0  0  0
   28.6880    2.5240    3.3540 C   0  0  0  0  0  0  0  0  0  0  0  0
   27.6470    2.7220    4.3220 O   0  0  0  0  0  0  0  0  0  0  0  0
   26.8140    3.7890    4.1290 C   0  0  0  0  0  0  0  0  0  0  0  0
   27.4420    4.9360    3.6310 C   0  0  0  0  0  0  0  0  0  0  0  0
   26.7110    6.1030    3.3820 C   0  0  0  0  0  0  0  0  0  0  0  0
   25.3420    6.1220    3.6340 C   0  0  0  0  0  0  0  0  0  0  0  0
   24.4420    7.5560    3.3290 Cl  0  0  0  0  0  0  0  0  0  0  0  0
   24.7170    4.9790    4.1290 C   0  0  0  0  0  0  0  0  0  0  0  0
   23.3990    4.9760    4.3770 F   0  0  0  0  0  0  0  0  0  0  0  0
   25.4430    3.8140    4.3780 C   0  0  0  0  0  0  0  0  0  0  0  0
   28.7430    0.4290    4.7320 C   0  0  0  0  0  0  0  0  0  0  0  0
   27.9200   -0.4700    4.8810 O   0  0  0  0  0  0  0  0  0  0  0  0
   29.4530    1.0690    5.7350 N   0  0  0  0  0  0  0  0  0  0  0  0
   29.3920    0.8550    7.1210 C   0  0  0  0  0  0  0  0  0  0  0  0
   29.0510    1.9490    7.9210 C   0  0  0  0  0  0  0  0  0  0  0  0
   28.9650    1.8160    9.3090 C   0  0  0  0  0  0  0  0  0  0  0  0
   29.2160    0.5820    9.9200 C   0  0  0  0  0  0  0  0  0  0  0  0
   29.1170    0.4920   11.3510 C   0  0  0  0  0  0  0  0  0  0  0  0
   29.0330    0.4300   12.5060 N   0  0  0  0  0  0  0  0  0  0  0  0
   29.5560   -0.5300    9.1310 C   0  0  0  0  0  0  0  0  0  0  0  0
   29.8270   -1.8740    9.7630 C   0  0  0  0  0  0  0  0  0  0  0  0
   30.5320   -2.7220    8.9640 F   0  0  0  0  0  0  0  0  0  0  0  0
   30.5450   -1.7680   10.9130 F   0  0  0  0  0  0  0  0  0  0  0  0
   28.6830   -2.5350   10.0830 F   0  0  0  0  0  0  0  0  0  0  0  0
   29.6380   -0.3780    7.7310 C   0  0  0  0  0  0  0  0  0  0  0  0
   31.1074    0.7148    3.9484 H   0  0  0  0  0  0  0  0  0  0  0  0
   30.6390   -0.1220    2.4295 H   0  0  0  0  0  0  0  0  0  0  0  0
   30.9112    1.6535    2.4295 H   0  0  0  0  0  0  0  0  0  0  0  0
   28.8070    0.4100    1.5130 H   0  0  0  0  0  0  0  0  0  0  0  0
   29.5688    3.1241    3.6262 H   0  0  0  0  0  0  0  0  0  0  0  0
   28.3444    2.8366    2.3569 H   0  0  0  0  0  0  0  0  0  0  0  0
   28.5239    4.9201    3.4328 H   0  0  0  0  0  0  0  0  0  0  0  0
   27.2145    6.9990    2.9899 H   0  0  0  0  0  0  0  0  0  0  0  0
   24.9358    2.9196    4.7689 H   0  0  0  0  0  0  0  0  0  0  0  0
   30.1730    1.6980    5.3810 H   0  0  0  0  0  0  0  0  0  0  0  0
   28.8484    2.9239    7.4534 H   0  0  0  0  0  0  0  0  0  0  0  0
   28.6983    2.6869    9.9258 H   0  0  0  0  0  0  0  0  0  0  0  0
   29.9004   -1.2458    7.1081 H   0  0  0  0  0  0  0  0  0  0  0  0
  1  2  1  0
  2  3  1  6
  2  4  1  0
  4  5  1  0
  5  6  1  0
  6  7  2  0
  7  8  1  0
  8  9  2  0
  9 10  1  0
  9 11  1  0
 11 12  1  0
 11 13  2  0
  2 14  1  0
 14 15  2  0
 14 16  1  0
 16 17  1  0
 17 18  2  0
 18 19  1  0
 19 20  2  0
 20 21  1  0
 21 22  3  0
 20 23  1  0
 23 24  1  0
 24 25  1  0
 24 26  1  0
 24 27  1  0
 23 28  2  0
 13  6  1  0
 28 17  1  0
  1 29  1  0
  1 30  1  0
  1 31  1  0
  3 32  1  0
  4 33  1  0
  4 34  1  0
  7 35  1  0
  8 36  1  0
 13 37  1  0
 16 38  1  0
 18 39  1  0
 19 40  1  0
 28 41  1  0
M  END
>  <meeko>  (3) 
{"is_sidechain": [false], "free_energy": -8.603, "intermolecular_energy": -11.626, "internal_energy": -0.652}

$$$$
