4tmn_ligand
     RDKit          3D

 68 69  0  0  0  0  0  0  0  0999 V2000
   46.3000   15.4940   -8.5840 C   0  0  0  0  0  0  0  0  0  0  0  0
   46.0510   16.4190   -9.7790 C   0  0  0  0  0  0  0  0  0  0  0  0
   45.8970   17.8560   -9.2660 C   0  0  0  0  0  0  0  0  0  0  0  0
   47.1870   16.3510  -10.8200 C   0  0  0  0  0  0  0  0  0  0  0  0
   48.1790   17.5370  -10.8040 C   0  0  2  0  0  0  0  0  0  0  0  0
   48.6400   17.8310  -12.1950 N   0  0  0  0  0  0  0  0  0  0  0  0
   48.7200   19.5350  -12.6310 P   0  0  2  0  0  5  0  0  0  0  0  0
   48.9030   19.5290  -14.1250 O   0  0  0  0  0  0  0  0  0  0  0  0
   49.6400   20.2180  -11.6590 O   0  0  0  0  0  0  0  0  0  0  0  0
   46.9430   20.0520  -12.2810 C   0  0  2  0  0  0  0  0  0  0  0  0
   45.9900   19.4920  -13.3390 C   0  0  0  0  0  0  0  0  0  0  0  0
   44.7850   18.7900  -12.7470 C   0  0  0  0  0  0  0  0  0  0  0  0
   44.5030   17.4600  -13.0900 C   0  0  0  0  0  0  0  0  0  0  0  0
   43.4010   16.8040  -12.5410 C   0  0  0  0  0  0  0  0  0  0  0  0
   42.5700   17.4710  -11.6410 C   0  0  0  0  0  0  0  0  0  0  0  0
   42.8450   18.7920  -11.2890 C   0  0  0  0  0  0  0  0  0  0  0  0
   43.9470   19.4480  -11.8390 C   0  0  0  0  0  0  0  0  0  0  0  0
   46.9610   21.5010  -12.0530 N   0  0  0  0  0  0  0  0  0  0  0  0
   46.5820   22.3690  -13.0330 C   0  0  0  0  0  0  0  0  0  0  0  0
   45.6370   22.2560  -13.8000 O   0  0  0  0  0  0  0  0  0  0  0  0
   47.4110   23.4380  -12.9880 O   0  0  0  0  0  0  0  0  0  0  0  0
   48.2620   23.5460  -14.1250 C   0  0  0  0  0  0  0  0  0  0  0  0
   49.6690   23.2830  -13.6550 C   0  0  0  0  0  0  0  0  0  0  0  0
   50.0530   23.5760  -12.3380 C   0  0  0  0  0  0  0  0  0  0  0  0
   51.3430   23.2790  -11.8950 C   0  0  0  0  0  0  0  0  0  0  0  0
   52.2560   22.6790  -12.7610 C   0  0  0  0  0  0  0  0  0  0  0  0
   51.8800   22.3730  -14.0670 C   0  0  0  0  0  0  0  0  0  0  0  0
   50.5930   22.6730  -14.5130 C   0  0  0  0  0  0  0  0  0  0  0  0
   49.3650   17.1120   -9.9060 C   0  0  0  0  0  0  0  0  0  0  0  0
   49.9070   16.0090  -10.0010 O   0  0  0  0  0  0  0  0  0  0  0  0
   49.6640   18.0090   -8.9030 N   0  0  0  0  0  0  0  0  0  0  0  0
   50.6040   17.7430   -7.7990 C   0  0  1  0  0  0  0  0  0  0  0  0
   50.9720   19.0390   -7.0910 C   0  0  0  0  0  0  0  0  0  0  0  0
   50.0290   16.7430   -6.7390 C   0  0  0  0  0  0  0  0  0  0  0  0
   48.8390   16.9470   -6.3600 O   0  0  0  0  0  0  0  0  0  0  0  0
   50.8420   15.8430   -6.3600 O   0  0  0  0  0  0  0  0  0  0  0  0
   46.1493   16.0539   -7.6492 H   0  0  0  0  0  0  0  0  0  0  0  0
   45.5975   14.6484   -8.6222 H   0  0  0  0  0  0  0  0  0  0  0  0
   47.3321   15.1153   -8.6222 H   0  0  0  0  0  0  0  0  0  0  0  0
   45.1325   16.0867  -10.2848 H   0  0  0  0  0  0  0  0  0  0  0  0
   45.8971   17.8546   -8.1660 H   0  0  0  0  0  0  0  0  0  0  0  0
   46.7347   18.4678   -9.6320 H   0  0  0  0  0  0  0  0  0  0  0  0
   44.9487   18.2763   -9.6320 H   0  0  0  0  0  0  0  0  0  0  0  0
   47.7586   15.4291  -10.6376 H   0  0  0  0  0  0  0  0  0  0  0  0
   46.6961   16.3822  -11.8039 H   0  0  0  0  0  0  0  0  0  0  0  0
   47.7096   18.4520  -10.4135 H   0  0  0  0  0  0  0  0  0  0  0  0
   49.6230   17.5440  -12.3110 H   0  0  0  0  0  0  0  0  0  0  0  0
   46.5209   19.6116  -11.3656 H   0  0  0  0  0  0  0  0  0  0  0  0
   45.6366   20.3237  -13.9661 H   0  0  0  0  0  0  0  0  0  0  0  0
   46.5503   18.7446  -13.9200 H   0  0  0  0  0  0  0  0  0  0  0  0
   45.1564   16.9293  -13.7981 H   0  0  0  0  0  0  0  0  0  0  0  0
   43.1875   15.7610  -12.8178 H   0  0  0  0  0  0  0  0  0  0  0  0
   41.6991   16.9558  -11.2096 H   0  0  0  0  0  0  0  0  0  0  0  0
   42.1922   19.3178  -10.5766 H   0  0  0  0  0  0  0  0  0  0  0  0
   44.1588   20.4899  -11.5570 H   0  0  0  0  0  0  0  0  0  0  0  0
   47.8810   21.7720  -11.7280 H   0  0  0  0  0  0  0  0  0  0  0  0
   47.9732   22.8038  -14.8838 H   0  0  0  0  0  0  0  0  0  0  0  0
   48.1822   24.5448  -14.5789 H   0  0  0  0  0  0  0  0  0  0  0  0
   49.3329   24.0428  -11.6499 H   0  0  0  0  0  0  0  0  0  0  0  0
   51.6390   23.5183  -10.8630 H   0  0  0  0  0  0  0  0  0  0  0  0
   53.2734   22.4472  -12.4130 H   0  0  0  0  0  0  0  0  0  0  0  0
   52.5993   21.8940  -14.7476 H   0  0  0  0  0  0  0  0  0  0  0  0
   50.3017   22.4290  -15.5453 H   0  0  0  0  0  0  0  0  0  0  0  0
   49.0850   18.8290   -8.7430 H   0  0  0  0  0  0  0  0  0  0  0  0
   51.4928   17.2843   -8.2568 H   0  0  0  0  0  0  0  0  0  0  0  0
   50.9289   18.8871   -6.0024 H   0  0  0  0  0  0  0  0  0  0  0  0
   51.9905   19.3380   -7.3794 H   0  0  0  0  0  0  0  0  0  0  0  0
   50.2626   19.8286   -7.3794 H   0  0  0  0  0  0  0  0  0  0  0  0
  1  2  1  0
  2  3  1  0
  2  4  1  0
  4  5  1  0
  5  6  1  0
  6  7  1  0
  7  8  2  0
  7  9  1  1
  7 10  1  0
 10 11  1  0
 11 12  1  0
 12 13  2  0
 13 14  1  0
 14 15  2  0
 15 16  1  0
 16 17  2  0
 10 18  1  0
 18 19  1  0
 19 20  2  0
 19 21  1  0
 21 22  1  0
 22 23  1  0
 23 24  2  0
 24 25  1  0
 25 26  2  0
 26 27  1  0
 27 28  2  0
  5 29  1  0
 29 30  2  0
 29 31  1  0
 31 32  1  0
 32 33  1  0
 32 34  1  0
 34 35  2  0
 34 36  1  0
 17 12  1  0
 28 23  1  0
  1 37  1  0
  1 38  1  0
  1 39  1  0
  2 40  1  0
  3 41  1  0
  3 42  1  0
  3 43  1  0
  4 44  1  0
  4 45  1  0
  5 46  1  1
  6 47  1  0
 10 48  1  1
 11 49  1  0
 11 50  1  0
 13 51  1  0
 14 52  1  0
 15 53  1  0
 16 54  1  0
 17 55  1  0
 18 56  1  0
 22 57  1  0
 22 58  1  0
 24 59  1  0
 25 60  1  0
 26 61  1  0
 27 62  1  0
 28 63  1  0
 31 64  1  0
 32 65  1  6
 33 66  1  0
 33 67  1  0
 33 68  1  0
M  CHG  2   9  -1  36  -1
M  END
>  <meeko>  (1) 
{"is_sidechain": [false], "free_energy": -8.44, "intermolecular_energy": -15.348, "internal_energy": -3.137}

$$$$
4tmn_ligand
     RDKit          3D

 68 69  0  0  0  0  0  0  0  0999 V2000
   51.7360   24.2430  -12.2000 C   0  0  0  0  0  0  0  0  0  0  0  0
   51.0200   22.9070  -12.4140 C   0  0  0  0  0  0  0  0  0  0  0  0
   51.6740   22.1800  -13.5960 C   0  0  0  0  0  0  0  0  0  0  0  0
   51.0610   22.0100  -11.1590 C   0  0  0  0  0  0  0  0  0  0  0  0
   50.1150   20.7880  -11.1810 C   0  0  2  0  0  0  0  0  0  0  0  0
   48.7630   21.2020  -11.6640 N   0  0  0  0  0  0  0  0  0  0  0  0
   48.2560   20.5150  -13.2050 P   0  0  2  0  0  5  0  0  0  0  0  0
   49.1620   19.3300  -13.3990 O   0  0  0  0  0  0  0  0  0  0  0  0
   48.1000   21.6440  -14.1840 O   0  0  0  0  0  0  0  0  0  0  0  0
   46.5560   19.8560  -12.7320 C   0  0  2  0  0  0  0  0  0  0  0  0
   46.2160   20.2040  -11.2820 C   0  0  0  0  0  0  0  0  0  0  0  0
   44.9490   19.5360  -10.7870 C   0  0  0  0  0  0  0  0  0  0  0  0
   43.6940   20.0320  -11.1700 C   0  0  0  0  0  0  0  0  0  0  0  0
   42.5230   19.4160  -10.7260 C   0  0  0  0  0  0  0  0  0  0  0  0
   42.5950   18.2970   -9.8970 C   0  0  0  0  0  0  0  0  0  0  0  0
   43.8380   17.7940   -9.5150 C   0  0  0  0  0  0  0  0  0  0  0  0
   45.0090   18.4110   -9.9580 C   0  0  0  0  0  0  0  0  0  0  0  0
   46.5190   18.4480  -13.1410 N   0  0  0  0  0  0  0  0  0  0  0  0
   46.0930   18.0900  -14.3850 C   0  0  0  0  0  0  0  0  0  0  0  0
   46.3490   18.6430  -15.4440 O   0  0  0  0  0  0  0  0  0  0  0  0
   45.3620   16.9570  -14.2670 O   0  0  0  0  0  0  0  0  0  0  0  0
   44.2390   17.0930  -13.4010 C   0  0  0  0  0  0  0  0  0  0  0  0
   43.4700   15.7990  -13.4640 C   0  0  0  0  0  0  0  0  0  0  0  0
   43.6360   14.9150  -14.5410 C   0  0  0  0  0  0  0  0  0  0  0  0
   42.9590   13.6940  -14.5640 C   0  0  0  0  0  0  0  0  0  0  0  0
   42.1200   13.3420  -13.5080 C   0  0  0  0  0  0  0  0  0  0  0  0
   41.9580   14.2080  -12.4290 C   0  0  0  0  0  0  0  0  0  0  0  0
   42.6290   15.4310  -12.4060 C   0  0  0  0  0  0  0  0  0  0  0  0
   50.0450   20.2540   -9.7310 C   0  0  0  0  0  0  0  0  0  0  0  0
   50.5960   20.8240   -8.7860 O   0  0  0  0  0  0  0  0  0  0  0  0
   49.4420   19.0200   -9.6100 N   0  0  0  0  0  0  0  0  0  0  0  0
   49.4370   18.2110   -8.3790 C   0  0  1  0  0  0  0  0  0  0  0  0
   48.2100   17.3110   -8.3400 C   0  0  0  0  0  0  0  0  0  0  0  0
   50.7140   17.3150   -8.2350 C   0  0  0  0  0  0  0  0  0  0  0  0
   50.8190   16.3480   -9.0450 O   0  0  0  0  0  0  0  0  0  0  0  0
   51.4990   17.6550   -7.2940 O   0  0  0  0  0  0  0  0  0  0  0  0
   51.8390   24.4352  -11.1218 H   0  0  0  0  0  0  0  0  0  0  0  0
   52.7334   24.2026  -12.6622 H   0  0  0  0  0  0  0  0  0  0  0  0
   51.1501   25.0512  -12.6622 H   0  0  0  0  0  0  0  0  0  0  0  0
   49.9608   23.1169  -12.6240 H   0  0  0  0  0  0  0  0  0  0  0  0
   52.3647   21.4122  -13.2174 H   0  0  0  0  0  0  0  0  0  0  0  0
   50.8954   21.7026  -14.2091 H   0  0  0  0  0  0  0  0  0  0  0  0
   52.2308   22.9039  -14.2091 H   0  0  0  0  0  0  0  0  0  0  0  0
   52.0900   21.6394  -11.0412 H   0  0  0  0  0  0  0  0  0  0  0  0
   50.7179   22.6415  -10.3262 H   0  0  0  0  0  0  0  0  0  0  0  0
   50.4812   20.0053  -11.8617 H   0  0  0  0  0  0  0  0  0  0  0  0
   48.0340   20.8420  -11.0300 H   0  0  0  0  0  0  0  0  0  0  0  0
   45.7242   20.3419  -13.2630 H   0  0  0  0  0  0  0  0  0  0  0  0
   47.0517   19.8859  -10.6413 H   0  0  0  0  0  0  0  0  0  0  0  0
   46.0504   21.2906  -11.2377 H   0  0  0  0  0  0  0  0  0  0  0  0
   43.6323   20.9133  -11.8254 H   0  0  0  0  0  0  0  0  0  0  0  0
   41.5433   19.8132  -11.0300 H   0  0  0  0  0  0  0  0  0  0  0  0
   41.6726   17.8119   -9.5450 H   0  0  0  0  0  0  0  0  0  0  0  0
   43.8959   16.9096   -8.8635 H   0  0  0  0  0  0  0  0  0  0  0  0
   45.9866   18.0094   -9.6528 H   0  0  0  0  0  0  0  0  0  0  0  0
   45.9860   17.9210  -12.4590 H   0  0  0  0  0  0  0  0  0  0  0  0
   44.5774   17.2808  -12.3713 H   0  0  0  0  0  0  0  0  0  0  0  0
   43.6071   17.9387  -13.7101 H   0  0  0  0  0  0  0  0  0  0  0  0
   44.3036   15.1856  -15.3723 H   0  0  0  0  0  0  0  0  0  0  0  0
   43.0878   13.0098  -15.4156 H   0  0  0  0  0  0  0  0  0  0  0  0
   41.5859   12.3805  -13.5267 H   0  0  0  0  0  0  0  0  0  0  0  0
   41.2998   13.9271  -11.5936 H   0  0  0  0  0  0  0  0  0  0  0  0
   42.4967   16.1108  -11.5514 H   0  0  0  0  0  0  0  0  0  0  0  0
   49.1530   18.4960  -10.4320 H   0  0  0  0  0  0  0  0  0  0  0  0
   49.4225   18.9258   -7.5430 H   0  0  0  0  0  0  0  0  0  0  0  0
   47.9359   17.1099   -7.2939 H   0  0  0  0  0  0  0  0  0  0  0  0
   47.3725   17.8106   -8.8490 H   0  0  0  0  0  0  0  0  0  0  0  0
   48.4349   16.3621   -8.8490 H   0  0  0  0  0  0  0  0  0  0  0  0
  1  2  1  0
  2  3  1  0
  2  4  1  0
  4  5  1  0
  5  6  1  0
  6  7  1  0
  7  8  2  0
  7  9  1  6
  7 10  1  0
 10 11  1  0
 11 12  1  0
 12 13  2  0
 13 14  1  0
 14 15  2  0
 15 16  1  0
 16 17  2  0
 10 18  1  0
 18 19  1  0
 19 20  2  0
 19 21  1  0
 21 22  1  0
 22 23  1  0
 23 24  2  0
 24 25  1  0
 25 26  2  0
 26 27  1  0
 27 28  2  0
  5 29  1  0
 29 30  2  0
 29 31  1  0
 31 32  1  0
 32 33  1  0
 32 34  1  0
 34 35  2  0
 34 36  1  0
 17 12  1  0
 28 23  1  0
  1 37  1  0
  1 38  1  0
  1 39  1  0
  2 40  1  0
  3 41  1  0
  3 42  1  0
  3 43  1  0
  4 44  1  0
  4 45  1  0
  5 46  1  6
  6 47  1  0
 10 48  1  6
 11 49  1  0
 11 50  1  0
 13 51  1  0
 14 52  1  0
 15 53  1  0
 16 54  1  0
 17 55  1  0
 18 56  1  0
 22 57  1  0
 22 58  1  0
 24 59  1  0
 25 60  1  0
 26 61  1  0
 27 62  1  0
 28 63  1  0
 31 64  1  0
 32 65  1  1
 33 66  1  0
 33 67  1  0
 33 68  1  0
M  CHG  2   9  -1  36  -1
M  END
>  <meeko>  (2) 
{"is_sidechain": [false], "free_energy": -8.432, "intermolecular_energy": -15.819, "internal_energy": -2.65}

$$$$
4tmn_ligand
     RDKit          3D

 68 69  0  0  0  0  0  0  0  0999 V2000
   39.5780   13.5360   -3.8790 C   0  0  0  0  0  0  0  0  0  0  0  0
   40.3980   13.9110   -5.1170 C   0  0  0  0  0  0  0  0  0  0  0  0
   41.2150   12.6900   -5.5550 C   0  0  0  0  0  0  0  0  0  0  0  0
   39.5130   14.3970   -6.2830 C   0  0  0  0  0  0  0  0  0  0  0  0
   40.2410   14.6060   -7.6300 C   0  0  2  0  0  0  0  0  0  0  0  0
   41.1690   15.7740   -7.5300 N   0  0  0  0  0  0  0  0  0  0  0  0
   42.8340   15.4730   -8.0190 P   0  0  2  0  0  5  0  0  0  0  0  0
   42.9120   13.9790   -8.1730 O   0  0  0  0  0  0  0  0  0  0  0  0
   43.7310   16.2920   -7.1340 O   0  0  0  0  0  0  0  0  0  0  0  0
   42.8110   16.2190   -9.7490 C   0  0  2  0  0  0  0  0  0  0  0  0
   42.3140   17.6650   -9.7170 C   0  0  0  0  0  0  0  0  0  0  0  0
   43.2910   18.6480  -10.3290 C   0  0  0  0  0  0  0  0  0  0  0  0
   42.8410   19.6230  -11.2310 C   0  0  0  0  0  0  0  0  0  0  0  0
   43.7340   20.5370  -11.7910 C   0  0  0  0  0  0  0  0  0  0  0  0
   45.0860   20.4880  -11.4520 C   0  0  0  0  0  0  0  0  0  0  0  0
   45.5420   19.5260  -10.5530 C   0  0  0  0  0  0  0  0  0  0  0  0
   44.6490   18.6100   -9.9940 C   0  0  0  0  0  0  0  0  0  0  0  0
   42.1170   15.2600  -10.6150 N   0  0  0  0  0  0  0  0  0  0  0  0
   41.8660   15.5500  -11.9230 C   0  0  0  0  0  0  0  0  0  0  0  0
   42.6170   16.0950  -12.7180 O   0  0  0  0  0  0  0  0  0  0  0  0
   40.6370   15.0750  -12.2280 O   0  0  0  0  0  0  0  0  0  0  0  0
   40.4720   13.6920  -11.9300 C   0  0  0  0  0  0  0  0  0  0  0  0
   40.2840   12.9740  -13.2410 C   0  0  0  0  0  0  0  0  0  0  0  0
   41.3220   12.2100  -13.7970 C   0  0  0  0  0  0  0  0  0  0  0  0
   41.1220   11.5040  -14.9850 C   0  0  0  0  0  0  0  0  0  0  0  0
   39.8830   11.5460  -15.6210 C   0  0  0  0  0  0  0  0  0  0  0  0
   38.8420   12.2920  -15.0700 C   0  0  0  0  0  0  0  0  0  0  0  0
   39.0410   13.0020  -13.8860 C   0  0  0  0  0  0  0  0  0  0  0  0
   39.1450   14.8610   -8.6930 C   0  0  0  0  0  0  0  0  0  0  0  0
   39.1410   15.8600   -9.4150 O   0  0  0  0  0  0  0  0  0  0  0  0
   38.1060   13.9550   -8.6620 N   0  0  0  0  0  0  0  0  0  0  0  0
   36.8530   14.0980   -9.4230 C   0  0  1  0  0  0  0  0  0  0  0  0
   36.9870   13.4500  -10.7940 C   0  0  0  0  0  0  0  0  0  0  0  0
   35.6220   13.4640   -8.6920 C   0  0  0  0  0  0  0  0  0  0  0  0
   34.5040   13.5660   -9.2770 O   0  0  0  0  0  0  0  0  0  0  0  0
   35.8870   12.9310   -7.5680 O   0  0  0  0  0  0  0  0  0  0  0  0
   40.1441   13.7949   -2.9720 H   0  0  0  0  0  0  0  0  0  0  0  0
   38.6270   14.0887   -3.8879 H   0  0  0  0  0  0  0  0  0  0  0  0
   39.3740   12.4551   -3.8879 H   0  0  0  0  0  0  0  0  0  0  0  0
   41.0611   14.7466   -4.8485 H   0  0  0  0  0  0  0  0  0  0  0  0
   41.5752   12.1517   -4.6659 H   0  0  0  0  0  0  0  0  0  0  0  0
   40.5816   12.0216   -6.1567 H   0  0  0  0  0  0  0  0  0  0  0  0
   42.0745   13.0206   -6.1567 H   0  0  0  0  0  0  0  0  0  0  0  0
   38.7192   13.6517   -6.4391 H   0  0  0  0  0  0  0  0  0  0  0  0
   39.1395   15.3879   -5.9853 H   0  0  0  0  0  0  0  0  0  0  0  0
   40.8455   13.7284   -7.9026 H   0  0  0  0  0  0  0  0  0  0  0  0
   40.8890   16.5080   -8.1970 H   0  0  0  0  0  0  0  0  0  0  0  0
   43.8092   16.3514  -10.1918 H   0  0  0  0  0  0  0  0  0  0  0  0
   41.3671   17.7212  -10.2740 H   0  0  0  0  0  0  0  0  0  0  0  0
   42.1903   17.9437   -8.6601 H   0  0  0  0  0  0  0  0  0  0  0  0
   41.7751   19.6675  -11.4992 H   0  0  0  0  0  0  0  0  0  0  0  0
   43.3718   21.2962  -12.4998 H   0  0  0  0  0  0  0  0  0  0  0  0
   45.7911   21.2076  -11.8936 H   0  0  0  0  0  0  0  0  0  0  0  0
   46.6077   19.4882  -10.2832 H   0  0  0  0  0  0  0  0  0  0  0  0
   45.0156   17.8530   -9.2851 H   0  0  0  0  0  0  0  0  0  0  0  0
   41.2440   14.9930  -10.1770 H   0  0  0  0  0  0  0  0  0  0  0  0
   41.3648   13.3082  -11.4146 H   0  0  0  0  0  0  0  0  0  0  0  0
   39.6056   13.5349  -11.2706 H   0  0  0  0  0  0  0  0  0  0  0  0
   42.2992   12.1672  -13.2937 H   0  0  0  0  0  0  0  0  0  0  0  0
   41.9430   10.9144  -15.4190 H   0  0  0  0  0  0  0  0  0  0  0  0
   39.7262   10.9907  -16.5575 H   0  0  0  0  0  0  0  0  0  0  0  0
   37.8624   12.3207  -15.5697 H   0  0  0  0  0  0  0  0  0  0  0  0
   38.2157   13.5882  -13.4556 H   0  0  0  0  0  0  0  0  0  0  0  0
   38.0530   13.2440   -7.9380 H   0  0  0  0  0  0  0  0  0  0  0  0
   36.6752   15.1792   -9.5196 H   0  0  0  0  0  0  0  0  0  0  0  0
   37.2084   12.3793  -10.6734 H   0  0  0  0  0  0  0  0  0  0  0  0
   36.0452   13.5694  -11.3496 H   0  0  0  0  0  0  0  0  0  0  0  0
   37.8042   13.9331  -11.3496 H   0  0  0  0  0  0  0  0  0  0  0  0
  1  2  1  0
  2  3  1  0
  2  4  1  0
  4  5  1  0
  5  6  1  0
  6  7  1  0
  7  8  2  0
  7  9  1  1
  7 10  1  0
 10 11  1  0
 11 12  1  0
 12 13  2  0
 13 14  1  0
 14 15  2  0
 15 16  1  0
 16 17  2  0
 10 18  1  0
 18 19  1  0
 19 20  2  0
 19 21  1  0
 21 22  1  0
 22 23  1  0
 23 24  2  0
 24 25  1  0
 25 26  2  0
 26 27  1  0
 27 28  2  0
  5 29  1  0
 29 30  2  0
 29 31  1  0
 31 32  1  0
 32 33  1  0
 32 34  1  0
 34 35  2  0
 34 36  1  0
 17 12  1  0
 28 23  1  0
  1 37  1  0
  1 38  1  0
  1 39  1  0
  2 40  1  0
  3 41  1  0
  3 42  1  0
  3 43  1  0
  4 44  1  0
  4 45  1  0
  5 46  1  6
  6 47  1  0
 10 48  1  6
 11 49  1  0
 11 50  1  0
 13 51  1  0
 14 52  1  0
 15 53  1  0
 16 54  1  0
 17 55  1  0
 18 56  1  0
 22 57  1  0
 22 58  1  0
 24 59  1  0
 25 60  1  0
 26 61  1  0
 27 62  1  0
 28 63  1  0
 31 64  1  0
 32 65  1  6
 33 66  1  0
 33 67  1  0
 33 68  1  0
M  CHG  2   9  -1  36  -1
M  END
>  <meeko>  (3) 
{"is_sidechain": [false], "free_energy": -8.417, "intermolecular_energy": -15.857, "internal_energy": -2.586}

$$$$
4tmn_ligand
     RDKit          3D

 68 69  0  0  0  0  0  0  0  0999 V2000
   34.4240   14.1530   -9.6050 C   0  0  0  0  0  0  0  0  0  0  0  0
   35.9140   14.4570   -9.4390 C   0  0  0  0  0  0  0  0  0  0  0  0
   36.5460   13.3690   -8.5630 C   0  0  0  0  0  0  0  0  0  0  0  0
   36.6520   14.5360  -10.7920 C   0  0  0  0  0  0  0  0  0  0  0  0
   38.1920   14.4230  -10.7200 C   0  0  2  0  0  0  0  0  0  0  0  0
   38.7610   15.6490  -10.0820 N   0  0  0  0  0  0  0  0  0  0  0  0
   39.8100   15.3740   -8.6940 P   0  0  2  0  0  5  0  0  0  0  0  0
   40.6040   14.1500   -9.0650 O   0  0  0  0  0  0  0  0  0  0  0  0
   38.9770   15.5110   -7.4510 O   0  0  0  0  0  0  0  0  0  0  0  0
   40.9590   16.8590   -8.8460 C   0  0  2  0  0  0  0  0  0  0  0  0
   40.6670   17.6510  -10.1220 C   0  0  0  0  0  0  0  0  0  0  0  0
   41.9150   18.0100  -10.9020 C   0  0  0  0  0  0  0  0  0  0  0  0
   42.5020   19.2750  -10.7520 C   0  0  0  0  0  0  0  0  0  0  0  0
   43.6570   19.6090  -11.4610 C   0  0  0  0  0  0  0  0  0  0  0  0
   44.2380   18.6810  -12.3240 C   0  0  0  0  0  0  0  0  0  0  0  0
   43.6640   17.4190  -12.4770 C   0  0  0  0  0  0  0  0  0  0  0  0
   42.5080   17.0860  -11.7690 C   0  0  0  0  0  0  0  0  0  0  0  0
   42.3220   16.3640   -8.6270 N   0  0  0  0  0  0  0  0  0  0  0  0
   42.8450   16.2830   -7.3710 C   0  0  0  0  0  0  0  0  0  0  0  0
   42.2820   15.8990   -6.3560 O   0  0  0  0  0  0  0  0  0  0  0  0
   44.1450   16.6550   -7.4340 O   0  0  0  0  0  0  0  0  0  0  0  0
   44.5350   17.1390   -8.7160 C   0  0  0  0  0  0  0  0  0  0  0  0
   46.0300   17.3250   -8.6840 C   0  0  0  0  0  0  0  0  0  0  0  0
   46.6700   18.1600   -9.6130 C   0  0  0  0  0  0  0  0  0  0  0  0
   48.0490   18.3690   -9.5430 C   0  0  0  0  0  0  0  0  0  0  0  0
   48.7970   17.7560   -8.5400 C   0  0  0  0  0  0  0  0  0  0  0  0
   48.1680   16.9350   -7.6050 C   0  0  0  0  0  0  0  0  0  0  0  0
   46.7920   16.7210   -7.6760 C   0  0  0  0  0  0  0  0  0  0  0  0
   38.6950   14.2720  -12.1750 C   0  0  0  0  0  0  0  0  0  0  0  0
   37.9420   14.3520  -13.1490 O   0  0  0  0  0  0  0  0  0  0  0  0
   40.0180   13.9000  -12.2810 N   0  0  0  0  0  0  0  0  0  0  0  0
   40.6720   13.4930  -13.5370 C   0  0  1  0  0  0  0  0  0  0  0  0
   42.1460   13.8710  -13.5150 C   0  0  0  0  0  0  0  0  0  0  0  0
   40.5580   11.9550  -13.8110 C   0  0  0  0  0  0  0  0  0  0  0  0
   39.5460   11.5730  -14.4690 O   0  0  0  0  0  0  0  0  0  0  0  0
   41.4960   11.2550  -13.3160 O   0  0  0  0  0  0  0  0  0  0  0  0
   33.9566   14.0576   -8.6138 H   0  0  0  0  0  0  0  0  0  0  0  0
   33.9424   14.9714  -10.1603 H   0  0  0  0  0  0  0  0  0  0  0  0
   34.3015   13.2114  -10.1603 H   0  0  0  0  0  0  0  0  0  0  0  0
   36.0102   15.4438   -8.9625 H   0  0  0  0  0  0  0  0  0  0  0  0
   36.3995   13.6212   -7.5024 H   0  0  0  0  0  0  0  0  0  0  0  0
   36.0693   12.4015   -8.7791 H   0  0  0  0  0  0  0  0  0  0  0  0
   37.6226   13.3037   -8.7791 H   0  0  0  0  0  0  0  0  0  0  0  0
   36.2819   13.7181  -11.4277 H   0  0  0  0  0  0  0  0  0  0  0  0
   36.4421   15.5392  -11.1913 H   0  0  0  0  0  0  0  0  0  0  0  0
   38.5065   13.5611  -10.1131 H   0  0  0  0  0  0  0  0  0  0  0  0
   39.4040   16.1220  -10.7340 H   0  0  0  0  0  0  0  0  0  0  0  0
   40.7958   17.6309   -8.0794 H   0  0  0  0  0  0  0  0  0  0  0  0
   40.0139   17.0453  -10.7674 H   0  0  0  0  0  0  0  0  0  0  0  0
   40.1894   18.5943   -9.8184 H   0  0  0  0  0  0  0  0  0  0  0  0
   42.0486   20.0096  -10.0703 H   0  0  0  0  0  0  0  0  0  0  0  0
   44.1088   20.6045  -11.3388 H   0  0  0  0  0  0  0  0  0  0  0  0
   45.1479   18.9437  -12.8835 H   0  0  0  0  0  0  0  0  0  0  0  0
   44.1228   16.6854  -13.1563 H   0  0  0  0  0  0  0  0  0  0  0  0
   42.0598   16.0892  -11.8938 H   0  0  0  0  0  0  0  0  0  0  0  0
   42.9630   16.8960   -9.2030 H   0  0  0  0  0  0  0  0  0  0  0  0
   44.2621   16.4102   -9.4934 H   0  0  0  0  0  0  0  0  0  0  0  0
   44.0276   18.0872   -8.9472 H   0  0  0  0  0  0  0  0  0  0  0  0
   46.0818   18.6528  -10.4011 H   0  0  0  0  0  0  0  0  0  0  0  0
   48.5449   19.0178  -10.2800 H   0  0  0  0  0  0  0  0  0  0  0  0
   49.8834   17.9197   -8.4858 H   0  0  0  0  0  0  0  0  0  0  0  0
   48.7581   16.4554   -6.8102 H   0  0  0  0  0  0  0  0  0  0  0  0
   46.3013   16.0730   -6.9348 H   0  0  0  0  0  0  0  0  0  0  0  0
   40.5650   13.6710  -11.4560 H   0  0  0  0  0  0  0  0  0  0  0  0
   40.1457   14.0255  -14.3429 H   0  0  0  0  0  0  0  0  0  0  0  0
   42.4866   13.9583  -12.4727 H   0  0  0  0  0  0  0  0  0  0  0  0
   42.7315   13.0939  -14.0282 H   0  0  0  0  0  0  0  0  0  0  0  0
   42.2853   14.8339  -14.0282 H   0  0  0  0  0  0  0  0  0  0  0  0
  1  2  1  0
  2  3  1  0
  2  4  1  0
  4  5  1  0
  5  6  1  0
  6  7  1  0
  7  8  2  0
  7  9  1  1
  7 10  1  0
 10 11  1  0
 11 12  1  0
 12 13  2  0
 13 14  1  0
 14 15  2  0
 15 16  1  0
 16 17  2  0
 10 18  1  0
 18 19  1  0
 19 20  2  0
 19 21  1  0
 21 22  1  0
 22 23  1  0
 23 24  2  0
 24 25  1  0
 25 26  2  0
 26 27  1  0
 27 28  2  0
  5 29  1  0
 29 30  2  0
 29 31  1  0
 31 32  1  0
 32 33  1  0
 32 34  1  0
 34 35  2  0
 34 36  1  0
 17 12  1  0
 28 23  1  0
  1 37  1  0
  1 38  1  0
  1 39  1  0
  2 40  1  0
  3 41  1  0
  3 42  1  0
  3 43  1  0
  4 44  1  0
  4 45  1  0
  5 46  1  1
  6 47  1  0
 10 48  1  1
 11 49  1  0
 11 50  1  0
 13 51  1  0
 14 52  1  0
 15 53  1  0
 16 54  1  0
 17 55  1  0
 18 56  1  0
 22 57  1  0
 22 58  1  0
 24 59  1  0
 25 60  1  0
 26 61  1  0
 27 62  1  0
 28 63  1  0
 31 64  1  0
 32 65  1  6
 33 66  1  0
 33 67  1  0
 33 68  1  0
M  CHG  2   9  -1  36  -1
M  END
>  <meeko>  (4) 
{"is_sidechain": [false], "free_energy": -8.386, "intermolecular_energy": -15.818, "internal_energy": -2.568}

$$$$
4tmn_ligand
     RDKit          3D

 68 69  0  0  0  0  0  0  0  0999 V2000
   46.6260   16.6940   -7.5960 C   0  0  0  0  0  0  0  0  0  0  0  0
   45.3770   16.9890   -8.4300 C   0  0  0  0  0  0  0  0  0  0  0  0
   45.6540   18.2090   -9.3170 C   0  0  0  0  0  0  0  0  0  0  0  0
   44.9550   15.7890   -9.3020 C   0  0  0  0  0  0  0  0  0  0  0  0
   43.8890   14.8570   -8.6840 C   0  0  2  0  0  0  0  0  0  0  0  0
   43.3600   15.4580   -7.4220 N   0  0  0  0  0  0  0  0  0  0  0  0
   41.8660   14.7570   -6.8060 P   0  0  2  0  0  5  0  0  0  0  0  0
   41.6260   15.4760   -5.5070 O   0  0  0  0  0  0  0  0  0  0  0  0
   41.9610   13.2650   -6.9550 O   0  0  0  0  0  0  0  0  0  0  0  0
   40.6380   15.4360   -8.0630 C   0  0  2  0  0  0  0  0  0  0  0  0
   40.4450   14.4590   -9.2250 C   0  0  0  0  0  0  0  0  0  0  0  0
   38.9960   14.0830   -9.4560 C   0  0  0  0  0  0  0  0  0  0  0  0
   38.5560   13.7210  -10.7380 C   0  0  0  0  0  0  0  0  0  0  0  0
   37.2250   13.3640  -10.9550 C   0  0  0  0  0  0  0  0  0  0  0  0
   36.3210   13.3620   -9.8940 C   0  0  0  0  0  0  0  0  0  0  0  0
   36.7490   13.7160   -8.6160 C   0  0  0  0  0  0  0  0  0  0  0  0
   38.0810   14.0740   -8.3980 C   0  0  0  0  0  0  0  0  0  0  0  0
   41.0570   16.8080   -8.3660 N   0  0  0  0  0  0  0  0  0  0  0  0
   40.2730   17.6300   -9.1190 C   0  0  0  0  0  0  0  0  0  0  0  0
   39.0580   17.7550   -9.0600 O   0  0  0  0  0  0  0  0  0  0  0  0
   41.0810   18.3510   -9.9310 O   0  0  0  0  0  0  0  0  0  0  0  0
   41.5440   17.6220  -11.0630 C   0  0  0  0  0  0  0  0  0  0  0  0
   42.7680   18.3330  -11.5800 C   0  0  0  0  0  0  0  0  0  0  0  0
   43.7090   17.6610  -12.3730 C   0  0  0  0  0  0  0  0  0  0  0  0
   44.8120   18.3420  -12.8930 C   0  0  0  0  0  0  0  0  0  0  0  0
   44.9780   19.7010  -12.6320 C   0  0  0  0  0  0  0  0  0  0  0  0
   44.0420   20.3800  -11.8550 C   0  0  0  0  0  0  0  0  0  0  0  0
   42.9420   19.7010  -11.3310 C   0  0  0  0  0  0  0  0  0  0  0  0
   44.5890   13.5060   -8.4020 C   0  0  0  0  0  0  0  0  0  0  0  0
   44.4460   12.5200   -9.1290 O   0  0  0  0  0  0  0  0  0  0  0  0
   45.2650   13.4580   -7.2010 N   0  0  0  0  0  0  0  0  0  0  0  0
   45.8320   12.2330   -6.6120 C   0  0  1  0  0  0  0  0  0  0  0  0
   47.2890   12.0720   -7.0210 C   0  0  0  0  0  0  0  0  0  0  0  0
   45.7510   12.2170   -5.0480 C   0  0  0  0  0  0  0  0  0  0  0  0
   46.5650   12.9670   -4.4330 O   0  0  0  0  0  0  0  0  0  0  0  0
   44.8800   11.4260   -4.5680 O   0  0  0  0  0  0  0  0  0  0  0  0
   46.3752   16.7532   -6.5266 H   0  0  0  0  0  0  0  0  0  0  0  0
   46.9938   15.6843   -7.8310 H   0  0  0  0  0  0  0  0  0  0  0  0
   47.4067   17.4325   -7.8310 H   0  0  0  0  0  0  0  0  0  0  0  0
   44.5443   17.1909   -7.7402 H   0  0  0  0  0  0  0  0  0  0  0  0
   45.8530   19.0856   -8.6830 H   0  0  0  0  0  0  0  0  0  0  0  0
   46.5297   18.0094   -9.9521 H   0  0  0  0  0  0  0  0  0  0  0  0
   44.7780   18.4071   -9.9521 H   0  0  0  0  0  0  0  0  0  0  0  0
   44.5535   16.1823  -10.2475 H   0  0  0  0  0  0  0  0  0  0  0  0
   45.8584   15.1735   -9.4244 H   0  0  0  0  0  0  0  0  0  0  0  0
   43.0352   14.7137   -9.3626 H   0  0  0  0  0  0  0  0  0  0  0  0
   44.0080   15.2740   -6.6420 H   0  0  0  0  0  0  0  0  0  0  0  0
   39.6085   15.5160   -7.6840 H   0  0  0  0  0  0  0  0  0  0  0  0
   40.8354   14.9250  -10.1417 H   0  0  0  0  0  0  0  0  0  0  0  0
   40.9846   13.5356   -8.9679 H   0  0  0  0  0  0  0  0  0  0  0  0
   39.2658   13.7186  -11.5783 H   0  0  0  0  0  0  0  0  0  0  0  0
   36.8886   13.0839  -11.9642 H   0  0  0  0  0  0  0  0  0  0  0  0
   35.2713   13.0814  -10.0653 H   0  0  0  0  0  0  0  0  0  0  0  0
   36.0367   13.7134   -7.7778 H   0  0  0  0  0  0  0  0  0  0  0  0
   38.4132   14.3510   -7.3866 H   0  0  0  0  0  0  0  0  0  0  0  0
   41.9820   16.7870   -8.7800 H   0  0  0  0  0  0  0  0  0  0  0  0
   41.8012   16.5935  -10.7696 H   0  0  0  0  0  0  0  0  0  0  0  0
   40.7659   17.5693  -11.8387 H   0  0  0  0  0  0  0  0  0  0  0  0
   43.5776   16.5901  -12.5871 H   0  0  0  0  0  0  0  0  0  0  0  0
   45.5495   17.8059  -13.5084 H   0  0  0  0  0  0  0  0  0  0  0  0
   45.8478   20.2373  -13.0394 H   0  0  0  0  0  0  0  0  0  0  0  0
   44.1707   21.4539  -11.6543 H   0  0  0  0  0  0  0  0  0  0  0  0
   42.2064   20.2428  -10.7184 H   0  0  0  0  0  0  0  0  0  0  0  0
   45.2180   14.2310   -6.5430 H   0  0  0  0  0  0  0  0  0  0  0  0
   45.2257   11.3995   -6.9962 H   0  0  0  0  0  0  0  0  0  0  0  0
   47.9171   12.0026   -6.1206 H   0  0  0  0  0  0  0  0  0  0  0  0
   47.4029   11.1558   -7.6190 H   0  0  0  0  0  0  0  0  0  0  0  0
   47.6002   12.9412   -7.6190 H   0  0  0  0  0  0  0  0  0  0  0  0
  1  2  1  0
  2  3  1  0
  2  4  1  0
  4  5  1  0
  5  6  1  0
  6  7  1  0
  7  8  2  0
  7  9  1  1
  7 10  1  0
 10 11  1  0
 11 12  1  0
 12 13  2  0
 13 14  1  0
 14 15  2  0
 15 16  1  0
 16 17  2  0
 10 18  1  0
 18 19  1  0
 19 20  2  0
 19 21  1  0
 21 22  1  0
 22 23  1  0
 23 24  2  0
 24 25  1  0
 25 26  2  0
 26 27  1  0
 27 28  2  0
  5 29  1  0
 29 30  2  0
 29 31  1  0
 31 32  1  0
 32 33  1  0
 32 34  1  0
 34 35  2  0
 34 36  1  0
 17 12  1  0
 28 23  1  0
  1 37  1  0
  1 38  1  0
  1 39  1  0
  2 40  1  0
  3 41  1  0
  3 42  1  0
  3 43  1  0
  4 44  1  0
  4 45  1  0
  5 46  1  6
  6 47  1  0
 10 48  1  1
 11 49  1  0
 11 50  1  0
 13 51  1  0
 14 52  1  0
 15 53  1  0
 16 54  1  0
 17 55  1  0
 18 56  1  0
 22 57  1  0
 22 58  1  0
 24 59  1  0
 25 60  1  0
 26 61  1  0
 27 62  1  0
 28 63  1  0
 31 64  1  0
 32 65  1  6
 33 66  1  0
 33 67  1  0
 33 68  1  0
M  CHG  2   9  -1  36  -1
M  END
>  <meeko>  (5) 
{"is_sidechain": [false], "free_energy": -8.378, "intermolecular_energy": -15.847, "internal_energy": -2.524}

$$$$
4tmn_ligand
     RDKit          3D

 68 69  0  0  0  0  0  0  0  0999 V2000
   51.1170   22.7130  -14.1940 C   0  0  0  0  0  0  0  0  0  0  0  0
   49.6460   22.3310  -14.3810 C   0  0  0  0  0  0  0  0  0  0  0  0
   49.5750   20.9250  -14.9880 C   0  0  0  0  0  0  0  0  0  0  0  0
   48.8560   22.3720  -13.0570 C   0  0  0  0  0  0  0  0  0  0  0  0
   48.3320   21.0090  -12.5500 C   0  0  2  0  0  0  0  0  0  0  0  0
   46.9240   21.1540  -12.0700 N   0  0  0  0  0  0  0  0  0  0  0  0
   45.6790   20.5240  -13.1450 P   0  0  2  0  0  5  0  0  0  0  0  0
   46.4280   19.6360  -14.1010 O   0  0  0  0  0  0  0  0  0  0  0  0
   44.7970   21.6710  -13.5530 O   0  0  0  0  0  0  0  0  0  0  0  0
   44.7420   19.4070  -11.9520 C   0  0  2  0  0  0  0  0  0  0  0  0
   43.5350   20.1320  -11.3540 C   0  0  0  0  0  0  0  0  0  0  0  0
   42.4580   19.1910  -10.8550 C   0  0  0  0  0  0  0  0  0  0  0  0
   41.7110   19.5140   -9.7130 C   0  0  0  0  0  0  0  0  0  0  0  0
   40.7110   18.6560   -9.2540 C   0  0  0  0  0  0  0  0  0  0  0  0
   40.4460   17.4680   -9.9330 C   0  0  0  0  0  0  0  0  0  0  0  0
   41.1810   17.1390  -11.0720 C   0  0  0  0  0  0  0  0  0  0  0  0
   42.1820   17.9970  -11.5310 C   0  0  0  0  0  0  0  0  0  0  0  0
   45.7370   18.8350  -11.0380 N   0  0  0  0  0  0  0  0  0  0  0  0
   46.1480   17.5420  -11.1710 C   0  0  0  0  0  0  0  0  0  0  0  0
   46.4010   16.9470  -12.2080 O   0  0  0  0  0  0  0  0  0  0  0  0
   46.2920   17.0200   -9.9310 O   0  0  0  0  0  0  0  0  0  0  0  0
   45.3780   17.5560   -8.9800 C   0  0  0  0  0  0  0  0  0  0  0  0
   44.3340   16.5010   -8.7220 C   0  0  0  0  0  0  0  0  0  0  0  0
   43.4360   16.6250   -7.6510 C   0  0  0  0  0  0  0  0  0  0  0  0
   42.4370   15.6700   -7.4510 C   0  0  0  0  0  0  0  0  0  0  0  0
   42.3210   14.5900   -8.3240 C   0  0  0  0  0  0  0  0  0  0  0  0
   43.2010   14.4650   -9.3980 C   0  0  0  0  0  0  0  0  0  0  0  0
   44.2020   15.4150   -9.5960 C   0  0  0  0  0  0  0  0  0  0  0  0
   49.2670   20.5730  -11.3970 C   0  0  0  0  0  0  0  0  0  0  0  0
   50.4840   20.4360  -11.5460 O   0  0  0  0  0  0  0  0  0  0  0  0
   48.6100   20.2140  -10.2400 N   0  0  0  0  0  0  0  0  0  0  0  0
   49.2540   19.5720   -9.0810 C   0  0  1  0  0  0  0  0  0  0  0  0
   49.7660   18.1890   -9.4560 C   0  0  0  0  0  0  0  0  0  0  0  0
   50.4500   20.4070   -8.5100 C   0  0  0  0  0  0  0  0  0  0  0  0
   51.5590   19.8060   -8.4100 O   0  0  0  0  0  0  0  0  0  0  0  0
   50.1590   21.6010   -8.1880 O   0  0  0  0  0  0  0  0  0  0  0  0
   51.3467   22.7726  -13.1199 H   0  0  0  0  0  0  0  0  0  0  0  0
   51.7563   21.9511  -14.6639 H   0  0  0  0  0  0  0  0  0  0  0  0
   51.3048   23.6897  -14.6639 H   0  0  0  0  0  0  0  0  0  0  0  0
   49.1834   23.0684  -15.0535 H   0  0  0  0  0  0  0  0  0  0  0  0
   49.5373   20.1786  -14.1808 H   0  0  0  0  0  0  0  0  0  0  0  0
   48.6714   20.8391  -15.6093 H   0  0  0  0  0  0  0  0  0  0  0  0
   50.4654   20.7485  -15.6093 H   0  0  0  0  0  0  0  0  0  0  0  0
   49.5152   22.7907  -12.2823 H   0  0  0  0  0  0  0  0  0  0  0  0
   47.9630   22.9821  -13.2579 H   0  0  0  0  0  0  0  0  0  0  0  0
   48.3306   20.2539  -13.3499 H   0  0  0  0  0  0  0  0  0  0  0  0
   46.7750   20.5800  -11.2270 H   0  0  0  0  0  0  0  0  0  0  0  0
   44.2519   18.5486  -12.4346 H   0  0  0  0  0  0  0  0  0  0  0  0
   43.8801   20.7469  -10.5097 H   0  0  0  0  0  0  0  0  0  0  0  0
   43.0904   20.7405  -12.1553 H   0  0  0  0  0  0  0  0  0  0  0  0
   41.9151   20.4513   -9.1747 H   0  0  0  0  0  0  0  0  0  0  0  0
   40.1317   18.9172   -8.3561 H   0  0  0  0  0  0  0  0  0  0  0  0
   39.6583   16.7908   -9.5712 H   0  0  0  0  0  0  0  0  0  0  0  0
   40.9716   16.2022  -11.6092 H   0  0  0  0  0  0  0  0  0  0  0  0
   42.7578   17.7328  -12.4302 H   0  0  0  0  0  0  0  0  0  0  0  0
   45.4260   18.9720  -10.0840 H   0  0  0  0  0  0  0  0  0  0  0  0
   45.9057   17.8003   -8.0463 H   0  0  0  0  0  0  0  0  0  0  0  0
   44.9152   18.4787   -9.3602 H   0  0  0  0  0  0  0  0  0  0  0  0
   43.5195   17.4803   -6.9643 H   0  0  0  0  0  0  0  0  0  0  0  0
   41.7417   15.7702   -6.6045 H   0  0  0  0  0  0  0  0  0  0  0  0
   41.5354   13.8365   -8.1657 H   0  0  0  0  0  0  0  0  0  0  0  0
   43.1054   13.6155  -10.0903 H   0  0  0  0  0  0  0  0  0  0  0  0
   44.8933   15.3106  -10.4452 H   0  0  0  0  0  0  0  0  0  0  0  0
   47.5950   20.1710  -10.2060 H   0  0  0  0  0  0  0  0  0  0  0  0
   48.4812   19.5021   -8.3014 H   0  0  0  0  0  0  0  0  0  0  0  0
   49.9781   17.6161   -8.5413 H   0  0  0  0  0  0  0  0  0  0  0  0
   49.0027   17.6638  -10.0489 H   0  0  0  0  0  0  0  0  0  0  0  0
   50.6873   18.2874  -10.0489 H   0  0  0  0  0  0  0  0  0  0  0  0
  1  2  1  0
  2  3  1  0
  2  4  1  0
  4  5  1  0
  5  6  1  0
  6  7  1  0
  7  8  2  0
  7  9  1  6
  7 10  1  0
 10 11  1  0
 11 12  1  0
 12 13  2  0
 13 14  1  0
 14 15  2  0
 15 16  1  0
 16 17  2  0
 10 18  1  0
 18 19  1  0
 19 20  2  0
 19 21  1  0
 21 22  1  0
 22 23  1  0
 23 24  2  0
 24 25  1  0
 25 26  2  0
 26 27  1  0
 27 28  2  0
  5 29  1  0
 29 30  2  0
 29 31  1  0
 31 32  1  0
 32 33  1  0
 32 34  1  0
 34 35  2  0
 34 36  1  0
 17 12  1  0
 28 23  1  0
  1 37  1  0
  1 38  1  0
  1 39  1  0
  2 40  1  0
  3 41  1  0
  3 42  1  0
  3 43  1  0
  4 44  1  0
  4 45  1  0
  5 46  1  6
  6 47  1  0
 10 48  1  6
 11 49  1  0
 11 50  1  0
 13 51  1  0
 14 52  1  0
 15 53  1  0
 16 54  1  0
 17 55  1  0
 18 56  1  0
 22 57  1  0
 22 58  1  0
 24 59  1  0
 25 60  1  0
 26 61  1  0
 27 62  1  0
 28 63  1  0
 31 64  1  0
 32 65  1  1
 33 66  1  0
 33 67  1  0
 33 68  1  0
M  CHG  2   9  -1  36  -1
M  END
>  <meeko>  (6) 
{"is_sidechain": [false], "free_energy": -8.345, "intermolecular_energy": -14.94, "internal_energy": -3.371}

$$$$
4tmn_ligand
     RDKit          3D

 68 69  0  0  0  0  0  0  0  0999 V2000
   44.0760   17.0440  -13.1960 C   0  0  0  0  0  0  0  0  0  0  0  0
   44.5480   15.5940  -13.3170 C   0  0  0  0  0  0  0  0  0  0  0  0
   43.8590   14.9500  -14.5260 C   0  0  0  0  0  0  0  0  0  0  0  0
   46.0790   15.4840  -13.4650 C   0  0  0  0  0  0  0  0  0  0  0  0
   46.8920   16.6640  -12.8850 C   0  0  2  0  0  0  0  0  0  0  0  0
   48.0760   16.9400  -13.7550 N   0  0  0  0  0  0  0  0  0  0  0  0
   47.8550   18.1930  -14.9740 P   0  0  2  0  0  5  0  0  0  0  0  0
   46.4130   18.0650  -15.3820 O   0  0  0  0  0  0  0  0  0  0  0  0
   49.0220   18.1280  -15.9180 O   0  0  0  0  0  0  0  0  0  0  0  0
   48.0030   19.7330  -13.8980 C   0  0  2  0  0  0  0  0  0  0  0  0
   49.1190   19.5750  -12.8630 C   0  0  0  0  0  0  0  0  0  0  0  0
   50.0990   20.7290  -12.8580 C   0  0  0  0  0  0  0  0  0  0  0  0
   50.3800   21.4220  -14.0440 C   0  0  0  0  0  0  0  0  0  0  0  0
   51.2750   22.4930  -14.0450 C   0  0  0  0  0  0  0  0  0  0  0  0
   51.8940   22.8840  -12.8590 C   0  0  0  0  0  0  0  0  0  0  0  0
   51.6170   22.2050  -11.6730 C   0  0  0  0  0  0  0  0  0  0  0  0
   50.7240   21.1330  -11.6730 C   0  0  0  0  0  0  0  0  0  0  0  0
   46.6520   20.0510  -13.4270 N   0  0  0  0  0  0  0  0  0  0  0  0
   46.3350   21.3080  -13.0040 C   0  0  0  0  0  0  0  0  0  0  0  0
   46.6700   22.3680  -13.5130 O   0  0  0  0  0  0  0  0  0  0  0  0
   45.5190   21.1950  -11.9310 O   0  0  0  0  0  0  0  0  0  0  0  0
   45.9080   20.1660  -11.0270 C   0  0  0  0  0  0  0  0  0  0  0  0
   44.6550   19.4430  -10.6080 C   0  0  0  0  0  0  0  0  0  0  0  0
   44.7190   18.3160   -9.7740 C   0  0  0  0  0  0  0  0  0  0  0  0
   43.5480   17.6850   -9.3480 C   0  0  0  0  0  0  0  0  0  0  0  0
   42.3060   18.1800   -9.7410 C   0  0  0  0  0  0  0  0  0  0  0  0
   42.2320   19.3050  -10.5590 C   0  0  0  0  0  0  0  0  0  0  0  0
   43.4000   19.9340  -10.9910 C   0  0  0  0  0  0  0  0  0  0  0  0
   47.3360   16.2430  -11.4640 C   0  0  0  0  0  0  0  0  0  0  0  0
   46.5940   15.6310  -10.6910 O   0  0  0  0  0  0  0  0  0  0  0  0
   48.5680   16.7320  -11.0880 N   0  0  0  0  0  0  0  0  0  0  0  0
   49.1180   16.6470   -9.7230 C   0  0  1  0  0  0  0  0  0  0  0  0
   50.2430   15.6240   -9.6660 C   0  0  0  0  0  0  0  0  0  0  0  0
   49.6670   18.0190   -9.2030 C   0  0  0  0  0  0  0  0  0  0  0  0
   50.7870   17.9910   -8.6150 O   0  0  0  0  0  0  0  0  0  0  0  0
   48.9030   19.0130   -9.4160 O   0  0  0  0  0  0  0  0  0  0  0  0
   43.9883   17.3136  -12.1332 H   0  0  0  0  0  0  0  0  0  0  0  0
   44.8042   17.7086  -13.6839 H   0  0  0  0  0  0  0  0  0  0  0  0
   43.0961   17.1526  -13.6839 H   0  0  0  0  0  0  0  0  0  0  0  0
   44.2774   15.0682  -12.3895 H   0  0  0  0  0  0  0  0  0  0  0  0
   43.0968   14.2376  -14.1772 H   0  0  0  0  0  0  0  0  0  0  0  0
   43.3796   15.7313  -15.1340 H   0  0  0  0  0  0  0  0  0  0  0  0
   44.6062   14.4190  -15.1340 H   0  0  0  0  0  0  0  0  0  0  0  0
   46.4034   14.5657  -12.9537 H   0  0  0  0  0  0  0  0  0  0  0  0
   46.2778   15.4842  -14.5469 H   0  0  0  0  0  0  0  0  0  0  0  0
   46.2929   17.5856  -12.8431 H   0  0  0  0  0  0  0  0  0  0  0  0
   48.8440   17.3350  -13.1930 H   0  0  0  0  0  0  0  0  0  0  0  0
   48.3471   20.6263  -14.4399 H   0  0  0  0  0  0  0  0  0  0  0  0
   48.6619   19.5009  -11.8652 H   0  0  0  0  0  0  0  0  0  0  0  0
   49.6837   18.6692  -13.1286 H   0  0  0  0  0  0  0  0  0  0  0  0
   49.8910   21.1191  -14.9816 H   0  0  0  0  0  0  0  0  0  0  0  0
   51.4917   23.0282  -14.9813 H   0  0  0  0  0  0  0  0  0  0  0  0
   52.6003   23.7273  -12.8586 H   0  0  0  0  0  0  0  0  0  0  0  0
   52.1032   22.5149  -10.7362 H   0  0  0  0  0  0  0  0  0  0  0  0
   50.5096   20.6013  -10.7342 H   0  0  0  0  0  0  0  0  0  0  0  0
   46.3950   19.3980  -12.6960 H   0  0  0  0  0  0  0  0  0  0  0  0
   46.5972   19.4679  -11.5248 H   0  0  0  0  0  0  0  0  0  0  0  0
   46.4249   20.5893  -10.1531 H   0  0  0  0  0  0  0  0  0  0  0  0
   45.6970   17.9274   -9.4540 H   0  0  0  0  0  0  0  0  0  0  0  0
   43.6062   16.7967   -8.7018 H   0  0  0  0  0  0  0  0  0  0  0  0
   41.3842   17.6824   -9.4053 H   0  0  0  0  0  0  0  0  0  0  0  0
   41.2512   19.6981  -10.8648 H   0  0  0  0  0  0  0  0  0  0  0  0
   43.3351   20.8219  -11.6370 H   0  0  0  0  0  0  0  0  0  0  0  0
   49.0790   17.3780  -11.6830 H   0  0  0  0  0  0  0  0  0  0  0  0
   48.2831   16.3428   -9.0746 H   0  0  0  0  0  0  0  0  0  0  0  0
   50.4853   15.4036   -8.6159 H   0  0  0  0  0  0  0  0  0  0  0  0
   49.9242   14.6999  -10.1704 H   0  0  0  0  0  0  0  0  0  0  0  0
   51.1327   16.0289  -10.1704 H   0  0  0  0  0  0  0  0  0  0  0  0
  1  2  1  0
  2  3  1  0
  2  4  1  0
  4  5  1  0
  5  6  1  0
  6  7  1  0
  7  8  2  0
  7  9  1  6
  7 10  1  0
 10 11  1  0
 11 12  1  0
 12 13  2  0
 13 14  1  0
 14 15  2  0
 15 16  1  0
 16 17  2  0
 10 18  1  0
 18 19  1  0
 19 20  2  0
 19 21  1  0
 21 22  1  0
 22 23  1  0
 23 24  2  0
 24 25  1  0
 25 26  2  0
 26 27  1  0
 27 28  2  0
  5 29  1  0
 29 30  2  0
 29 31  1  0
 31 32  1  0
 32 33  1  0
 32 34  1  0
 34 35  2  0
 34 36  1  0
 17 12  1  0
 28 23  1  0
  1 37  1  0
  1 38  1  0
  1 39  1  0
  2 40  1  0
  3 41  1  0
  3 42  1  0
  3 43  1  0
  4 44  1  0
  4 45  1  0
  5 46  1  1
  6 47  1  0
 10 48  1  6
 11 49  1  0
 11 50  1  0
 13 51  1  0
 14 52  1  0
 15 53  1  0
 16 54  1  0
 17 55  1  0
 18 56  1  0
 22 57  1  0
 22 58  1  0
 24 59  1  0
 25 60  1  0
 26 61  1  0
 27 62  1  0
 28 63  1  0
 31 64  1  0
 32 65  1  1
 33 66  1  0
 33 67  1  0
 33 68  1  0
M  CHG  2   9  -1  36  -1
M  END
>  <meeko>  (7) 
{"is_sidechain": [false], "free_energy": -8.326, "intermolecular_energy": -15.403, "internal_energy": -2.874}

$$$$
4tmn_ligand
     RDKit          3D

 68 69  0  0  0  0  0  0  0  0999 V2000
   36.4950   16.0110   -8.1340 C   0  0  0  0  0  0  0  0  0  0  0  0
   37.2310   14.7670   -7.6320 C   0  0  0  0  0  0  0  0  0  0  0  0
   36.2260   13.8500   -6.9250 C   0  0  0  0  0  0  0  0  0  0  0  0
   37.9310   13.9980   -8.7720 C   0  0  0  0  0  0  0  0  0  0  0  0
   39.4740   14.0910   -8.7890 C   0  0  2  0  0  0  0  0  0  0  0  0
   39.9360   15.0530   -7.7430 N   0  0  0  0  0  0  0  0  0  0  0  0
   41.2650   14.5000   -6.7280 P   0  0  2  0  0  5  0  0  0  0  0  0
   41.2920   13.0090   -6.9290 O   0  0  0  0  0  0  0  0  0  0  0  0
   41.1430   15.1820   -5.3940 O   0  0  0  0  0  0  0  0  0  0  0  0
   42.7270   15.2240   -7.6700 C   0  0  2  0  0  0  0  0  0  0  0  0
   42.4730   16.6880   -8.0370 C   0  0  0  0  0  0  0  0  0  0  0  0
   43.6590   17.3510   -8.7060 C   0  0  0  0  0  0  0  0  0  0  0  0
   44.9640   17.0450   -8.2950 C   0  0  0  0  0  0  0  0  0  0  0  0
   46.0620   17.6450   -8.9150 C   0  0  0  0  0  0  0  0  0  0  0  0
   45.8650   18.5550   -9.9520 C   0  0  0  0  0  0  0  0  0  0  0  0
   44.5710   18.8630  -10.3710 C   0  0  0  0  0  0  0  0  0  0  0  0
   43.4730   18.2630   -9.7510 C   0  0  0  0  0  0  0  0  0  0  0  0
   43.0480   14.2790   -8.7450 N   0  0  0  0  0  0  0  0  0  0  0  0
   44.2550   13.6470   -8.7850 C   0  0  0  0  0  0  0  0  0  0  0  0
   44.8710   13.1650   -7.8460 O   0  0  0  0  0  0  0  0  0  0  0  0
   44.6520   13.5870  -10.0770 O   0  0  0  0  0  0  0  0  0  0  0  0
   43.6690   14.0530  -10.9960 C   0  0  0  0  0  0  0  0  0  0  0  0
   44.3130   15.1310  -11.8280 C   0  0  0  0  0  0  0  0  0  0  0  0
   45.7090   15.2620  -11.8800 C   0  0  0  0  0  0  0  0  0  0  0  0
   46.2980   16.2300  -12.6950 C   0  0  0  0  0  0  0  0  0  0  0  0
   45.5000   17.0670  -13.4730 C   0  0  0  0  0  0  0  0  0  0  0  0
   44.1130   16.9370  -13.4370 C   0  0  0  0  0  0  0  0  0  0  0  0
   43.5210   15.9740  -12.6200 C   0  0  0  0  0  0  0  0  0  0  0  0
   39.8750   14.5770  -10.2030 C   0  0  0  0  0  0  0  0  0  0  0  0
   40.2010   15.7430  -10.4360 O   0  0  0  0  0  0  0  0  0  0  0  0
   39.6970   13.6370  -11.1960 N   0  0  0  0  0  0  0  0  0  0  0  0
   39.8060   13.9170  -12.6380 C   0  0  1  0  0  0  0  0  0  0  0  0
   41.0110   13.2000  -13.2290 C   0  0  0  0  0  0  0  0  0  0  0  0
   38.5300   13.4880  -13.4390 C   0  0  0  0  0  0  0  0  0  0  0  0
   38.4450   12.2640  -13.7500 O   0  0  0  0  0  0  0  0  0  0  0  0
   37.7270   14.4350  -13.7070 O   0  0  0  0  0  0  0  0  0  0  0  0
   36.1454   16.6019   -7.2746 H   0  0  0  0  0  0  0  0  0  0  0  0
   37.1782   16.6200   -8.7441 H   0  0  0  0  0  0  0  0  0  0  0  0
   35.6323   15.7054   -8.7441 H   0  0  0  0  0  0  0  0  0  0  0  0
   38.0169   15.0932   -6.9349 H   0  0  0  0  0  0  0  0  0  0  0  0
   36.3389   13.9530   -5.8357 H   0  0  0  0  0  0  0  0  0  0  0  0
   35.2036   14.1330   -7.2160 H   0  0  0  0  0  0  0  0  0  0  0  0
   36.4144   12.8061   -7.2160 H   0  0  0  0  0  0  0  0  0  0  0  0
   37.6566   12.9365   -8.6830 H   0  0  0  0  0  0  0  0  0  0  0  0
   37.5901   14.4677   -9.7065 H   0  0  0  0  0  0  0  0  0  0  0  0
   39.9396   13.1188   -8.5697 H   0  0  0  0  0  0  0  0  0  0  0  0
   40.3500   15.8860   -8.1850 H   0  0  0  0  0  0  0  0  0  0  0  0
   43.6446   15.3154   -7.0703 H   0  0  0  0  0  0  0  0  0  0  0  0
   41.6148   16.7322   -8.7237 H   0  0  0  0  0  0  0  0  0  0  0  0
   42.2814   17.2309   -7.0997 H   0  0  0  0  0  0  0  0  0  0  0  0
   45.1243   16.3265   -7.4776 H   0  0  0  0  0  0  0  0  0  0  0  0
   47.0822   17.3994   -8.5850 H   0  0  0  0  0  0  0  0  0  0  0  0
   46.7292   19.0298  -10.4395 H   0  0  0  0  0  0  0  0  0  0  0  0
   44.4151   19.5795  -11.1909 H   0  0  0  0  0  0  0  0  0  0  0  0
   42.4547   18.5090  -10.0864 H   0  0  0  0  0  0  0  0  0  0  0  0
   42.8980   14.7330   -9.6380 H   0  0  0  0  0  0  0  0  0  0  0  0
   43.3352   13.2274  -11.6417 H   0  0  0  0  0  0  0  0  0  0  0  0
   42.7899   14.4439  -10.4627 H   0  0  0  0  0  0  0  0  0  0  0  0
   46.3432   14.5977  -11.2747 H   0  0  0  0  0  0  0  0  0  0  0  0
   47.3929   16.3324  -12.7233 H   0  0  0  0  0  0  0  0  0  0  0  0
   45.9648   17.8297  -14.1150 H   0  0  0  0  0  0  0  0  0  0  0  0
   43.4838   17.5952  -14.0542 H   0  0  0  0  0  0  0  0  0  0  0  0
   42.4257   15.8754  -12.5970 H   0  0  0  0  0  0  0  0  0  0  0  0
   39.2610   12.7410  -10.9970 H   0  0  0  0  0  0  0  0  0  0  0  0
   39.9187   15.0073  -12.7304 H   0  0  0  0  0  0  0  0  0  0  0  0
   41.6475   12.8213  -12.4157 H   0  0  0  0  0  0  0  0  0  0  0  0
   40.6690   12.3584  -13.8492 H   0  0  0  0  0  0  0  0  0  0  0  0
   41.5876   13.9021  -13.8492 H   0  0  0  0  0  0  0  0  0  0  0  0
  1  2  1  0
  2  3  1  0
  2  4  1  0
  4  5  1  0
  5  6  1  0
  6  7  1  0
  7  8  2  0
  7  9  1  1
  7 10  1  0
 10 11  1  0
 11 12  1  0
 12 13  2  0
 13 14  1  0
 14 15  2  0
 15 16  1  0
 16 17  2  0
 10 18  1  0
 18 19  1  0
 19 20  2  0
 19 21  1  0
 21 22  1  0
 22 23  1  0
 23 24  2  0
 24 25  1  0
 25 26  2  0
 26 27  1  0
 27 28  2  0
  5 29  1  0
 29 30  2  0
 29 31  1  0
 31 32  1  0
 32 33  1  0
 32 34  1  0
 34 35  2  0
 34 36  1  0
 17 12  1  0
 28 23  1  0
  1 37  1  0
  1 38  1  0
  1 39  1  0
  2 40  1  0
  3 41  1  0
  3 42  1  0
  3 43  1  0
  4 44  1  0
  4 45  1  0
  5 46  1  1
  6 47  1  0
 10 48  1  1
 11 49  1  0
 11 50  1  0
 13 51  1  0
 14 52  1  0
 15 53  1  0
 16 54  1  0
 17 55  1  0
 18 56  1  0
 22 57  1  0
 22 58  1  0
 24 59  1  0
 25 60  1  0
 26 61  1  0
 27 62  1  0
 28 63  1  0
 31 64  1  0
 32 65  1  1
 33 66  1  0
 33 67  1  0
 33 68  1  0
M  CHG  2   9  -1  36  -1
M  END
>  <meeko>  (8) 
{"is_sidechain": [false], "free_energy": -8.303, "intermolecular_energy": -14.212, "internal_energy": -4.023}

$$$$
4tmn_ligand
     RDKit          3D

 68 69  0  0  0  0  0  0  0  0999 V2000
   36.1500   13.9480   -7.7220 C   0  0  0  0  0  0  0  0  0  0  0  0
   37.1330   15.0970   -7.4880 C   0  0  0  0  0  0  0  0  0  0  0  0
   38.3870   14.5420   -6.8010 C   0  0  0  0  0  0  0  0  0  0  0  0
   37.5240   15.8120   -8.7980 C   0  0  0  0  0  0  0  0  0  0  0  0
   38.9840   15.6040   -9.2610 C   0  0  2  0  0  0  0  0  0  0  0  0
   39.5730   16.9110   -9.6830 N   0  0  0  0  0  0  0  0  0  0  0  0
   40.7470   17.6160   -8.5760 P   0  0  2  0  0  5  0  0  0  0  0  0
   41.0460   16.5110   -7.5990 O   0  0  0  0  0  0  0  0  0  0  0  0
   40.2610   18.9860   -8.1970 O   0  0  0  0  0  0  0  0  0  0  0  0
   42.2330   17.7730   -9.7230 C   0  0  2  0  0  0  0  0  0  0  0  0
   42.2190   19.1150  -10.4590 C   0  0  0  0  0  0  0  0  0  0  0  0
   43.5970   19.5790  -10.8830 C   0  0  0  0  0  0  0  0  0  0  0  0
   43.7410   20.4930  -11.9370 C   0  0  0  0  0  0  0  0  0  0  0  0
   45.0070   20.9320  -12.3260 C   0  0  0  0  0  0  0  0  0  0  0  0
   46.1410   20.4650  -11.6640 C   0  0  0  0  0  0  0  0  0  0  0  0
   46.0090   19.5590  -10.6120 C   0  0  0  0  0  0  0  0  0  0  0  0
   44.7420   19.1190  -10.2240 C   0  0  0  0  0  0  0  0  0  0  0  0
   42.2870   16.5410  -10.5170 N   0  0  0  0  0  0  0  0  0  0  0  0
   43.2190   15.5800  -10.2560 C   0  0  0  0  0  0  0  0  0  0  0  0
   43.5840   15.1800   -9.1610 O   0  0  0  0  0  0  0  0  0  0  0  0
   43.6500   15.0840  -11.4390 O   0  0  0  0  0  0  0  0  0  0  0  0
   45.0650   14.9380  -11.5120 C   0  0  0  0  0  0  0  0  0  0  0  0
   45.5790   16.0310  -12.4120 C   0  0  0  0  0  0  0  0  0  0  0  0
   46.9430   16.3590  -12.4370 C   0  0  0  0  0  0  0  0  0  0  0  0
   47.4190   17.3360  -13.3130 C   0  0  0  0  0  0  0  0  0  0  0  0
   46.5390   17.9860  -14.1770 C   0  0  0  0  0  0  0  0  0  0  0  0
   45.1850   17.6590  -14.1680 C   0  0  0  0  0  0  0  0  0  0  0  0
   44.7060   16.6860  -13.2900 C   0  0  0  0  0  0  0  0  0  0  0  0
   38.9370   14.6100  -10.4460 C   0  0  0  0  0  0  0  0  0  0  0  0
   38.4970   13.4630  -10.3330 O   0  0  0  0  0  0  0  0  0  0  0  0
   39.5570   15.0640  -11.5900 N   0  0  0  0  0  0  0  0  0  0  0  0
   39.8280   14.2340  -12.7770 C   0  0  1  0  0  0  0  0  0  0  0  0
   40.8200   13.1300  -12.4380 C   0  0  0  0  0  0  0  0  0  0  0  0
   38.5350   13.5760  -13.3670 C   0  0  0  0  0  0  0  0  0  0  0  0
   38.5380   12.3140  -13.4630 O   0  0  0  0  0  0  0  0  0  0  0  0
   37.6270   14.3980  -13.7060 O   0  0  0  0  0  0  0  0  0  0  0  0
   35.8113   13.5521   -6.7532 H   0  0  0  0  0  0  0  0  0  0  0  0
   35.2835   14.3168   -8.2905 H   0  0  0  0  0  0  0  0  0  0  0  0
   36.6485   13.1490   -8.2905 H   0  0  0  0  0  0  0  0  0  0  0  0
   36.6394   15.8448   -6.8499 H   0  0  0  0  0  0  0  0  0  0  0  0
   38.2620   14.5973   -5.7095 H   0  0  0  0  0  0  0  0  0  0  0  0
   38.5357   13.4940   -7.1004 H   0  0  0  0  0  0  0  0  0  0  0  0
   39.2627   15.1366   -7.1004 H   0  0  0  0  0  0  0  0  0  0  0  0
   36.8605   15.4453   -9.5950 H   0  0  0  0  0  0  0  0  0  0  0  0
   37.4224   16.8885   -8.5958 H   0  0  0  0  0  0  0  0  0  0  0  0
   39.6128   15.2069   -8.4505 H   0  0  0  0  0  0  0  0  0  0  0  0
   40.1420   16.7860  -10.5330 H   0  0  0  0  0  0  0  0  0  0  0  0
   43.1983   17.8321   -9.1989 H   0  0  0  0  0  0  0  0  0  0  0  0
   41.5925   19.0141  -11.3575 H   0  0  0  0  0  0  0  0  0  0  0  0
   41.8225   19.8662   -9.7601 H   0  0  0  0  0  0  0  0  0  0  0  0
   42.8489   20.8667  -12.4610 H   0  0  0  0  0  0  0  0  0  0  0  0
   45.1101   21.6470  -13.1555 H   0  0  0  0  0  0  0  0  0  0  0  0
   47.1392   20.8107  -11.9709 H   0  0  0  0  0  0  0  0  0  0  0  0
   46.9033   19.1910  -10.0878 H   0  0  0  0  0  0  0  0  0  0  0  0
   44.6433   18.4047   -9.3933 H   0  0  0  0  0  0  0  0  0  0  0  0
   42.3490   16.7840  -11.4980 H   0  0  0  0  0  0  0  0  0  0  0  0
   45.5064   15.0365  -10.5093 H   0  0  0  0  0  0  0  0  0  0  0  0
   45.3358   13.9475  -11.9063 H   0  0  0  0  0  0  0  0  0  0  0  0
   47.6417   15.8430  -11.7620 H   0  0  0  0  0  0  0  0  0  0  0  0
   48.4885   17.5930  -13.3216 H   0  0  0  0  0  0  0  0  0  0  0  0
   46.9139   18.7572  -14.8660 H   0  0  0  0  0  0  0  0  0  0  0  0
   44.4924   18.1685  -14.8540 H   0  0  0  0  0  0  0  0  0  0  0  0
   43.6358   16.4317  -13.2873 H   0  0  0  0  0  0  0  0  0  0  0  0
   40.0640   15.9450  -11.5970 H   0  0  0  0  0  0  0  0  0  0  0  0
   40.2450   14.9121  -13.5361 H   0  0  0  0  0  0  0  0  0  0  0  0
   40.9046   13.0359  -11.3453 H   0  0  0  0  0  0  0  0  0  0  0  0
   40.4680   12.1779  -12.8619 H   0  0  0  0  0  0  0  0  0  0  0  0
   41.8042   13.3785  -12.8619 H   0  0  0  0  0  0  0  0  0  0  0  0
  1  2  1  0
  2  3  1  0
  2  4  1  0
  4  5  1  0
  5  6  1  0
  6  7  1  0
  7  8  2  0
  7  9  1  1
  7 10  1  0
 10 11  1  0
 11 12  1  0
 12 13  2  0
 13 14  1  0
 14 15  2  0
 15 16  1  0
 16 17  2  0
 10 18  1  0
 18 19  1  0
 19 20  2  0
 19 21  1  0
 21 22  1  0
 22 23  1  0
 23 24  2  0
 24 25  1  0
 25 26  2  0
 26 27  1  0
 27 28  2  0
  5 29  1  0
 29 30  2  0
 29 31  1  0
 31 32  1  0
 32 33  1  0
 32 34  1  0
 34 35  2  0
 34 36  1  0
 17 12  1  0
 28 23  1  0
  1 37  1  0
  1 38  1  0
  1 39  1  0
  2 40  1  0
  3 41  1  0
  3 42  1  0
  3 43  1  0
  4 44  1  0
  4 45  1  0
  5 46  1  1
  6 47  1  0
 10 48  1  1
 11 49  1  0
 11 50  1  0
 13 51  1  0
 14 52  1  0
 15 53  1  0
 16 54  1  0
 17 55  1  0
 18 56  1  0
 22 57  1  0
 22 58  1  0
 24 59  1  0
 25 60  1  0
 26 61  1  0
 27 62  1  0
 28 63  1  0
 31 64  1  0
 32 65  1  6
 33 66  1  0
 33 67  1  0
 33 68  1  0
M  CHG  2   9  -1  36  -1
M  END
>  <meeko>  (9) 
{"is_sidechain": [false], "free_energy": -8.239, "intermolecular_energy": -14.637, "internal_energy": -3.482}

$$$$
