3u9q_ligand
     RDKit          3D

 31 30  0  0  0  0  0  0  0  0999 V2000
    2.0840    5.1400   22.2860 C   0  0  0  0  0  0  0  0  0  0  0  0
    2.4730    3.7620   21.7760 C   0  0  0  0  0  0  0  0  0  0  0  0
    3.5280    3.1110   22.6710 C   0  0  0  0  0  0  0  0  0  0  0  0
    3.0440    1.7630   23.2110 C   0  0  0  0  0  0  0  0  0  0  0  0
    2.2990    0.9710   22.1350 C   0  0  0  0  0  0  0  0  0  0  0  0
    1.2380    0.0190   22.7000 C   0  0  0  0  0  0  0  0  0  0  0  0
    1.7600   -0.8670   23.8340 C   0  0  0  0  0  0  0  0  0  0  0  0
    0.8820   -2.0940   24.0990 C   0  0  0  0  0  0  0  0  0  0  0  0
    0.0910   -2.0090   25.4020 C   0  0  0  0  0  0  0  0  0  0  0  0
    0.3490   -3.1500   26.3920 C   0  0  0  0  0  0  0  0  0  0  0  0
    0.4030   -2.8400   27.6130 O   0  0  0  0  0  0  0  0  0  0  0  0
    0.4820   -4.2840   25.8470 O   0  0  0  0  0  0  0  0  0  0  0  0
    2.0847    5.1375   23.3860 H   0  0  0  0  0  0  0  0  0  0  0  0
    2.8073    5.8839   21.9205 H   0  0  0  0  0  0  0  0  0  0  0  0
    1.0785    5.3959   21.9205 H   0  0  0  0  0  0  0  0  0  0  0  0
    1.5781    3.1227   21.7551 H   0  0  0  0  0  0  0  0  0  0  0  0
    2.8974    3.8742   20.7674 H   0  0  0  0  0  0  0  0  0  0  0  0
    4.4464    2.9539   22.0863 H   0  0  0  0  0  0  0  0  0  0  0  0
    3.7193    3.7784   23.5242 H   0  0  0  0  0  0  0  0  0  0  0  0
    3.9128    1.1792   23.5492 H   0  0  0  0  0  0  0  0  0  0  0  0
    2.3533    1.9503   24.0464 H   0  0  0  0  0  0  0  0  0  0  0  0
    1.8031    1.6833   21.4592 H   0  0  0  0  0  0  0  0  0  0  0  0
    3.0447    0.3519   21.6147 H   0  0  0  0  0  0  0  0  0  0  0  0
    0.3997    0.6190   23.0837 H   0  0  0  0  0  0  0  0  0  0  0  0
    0.9305   -0.6481   21.8812 H   0  0  0  0  0  0  0  0  0  0  0  0
    2.7708   -1.2116   23.5705 H   0  0  0  0  0  0  0  0  0  0  0  0
    1.7546   -0.2590   24.7507 H   0  0  0  0  0  0  0  0  0  0  0  0
    0.1707   -2.1991   23.2665 H   0  0  0  0  0  0  0  0  0  0  0  0
    1.5550   -2.9598   24.1858 H   0  0  0  0  0  0  0  0  0  0  0  0
    0.3507   -1.0619   25.8976 H   0  0  0  0  0  0  0  0  0  0  0  0
   -0.9705   -2.0789   25.1223 H   0  0  0  0  0  0  0  0  0  0  0  0
  1  2  1  0
  2  3  1  0
  3  4  1  0
  4  5  1  0
  5  6  1  0
  6  7  1  0
  7  8  1  0
  8  9  1  0
  9 10  1  0
 10 11  2  0
 10 12  1  0
  1 13  1  0
  1 14  1  0
  1 15  1  0
  2 16  1  0
  2 17  1  0
  3 18  1  0
  3 19  1  0
  4 20  1  0
  4 21  1  0
  5 22  1  0
  5 23  1  0
  6 24  1  0
  6 25  1  0
  7 26  1  0
  7 27  1  0
  8 28  1  0
  8 29  1  0
  9 30  1  0
  9 31  1  0
M  CHG  1  12  -1
M  END
>  <meeko>  (1) 
{"is_sidechain": [false], "free_energy": -5.697, "intermolecular_energy": -8.361, "internal_energy": -0.309}

$$$$
3u9q_ligand
     RDKit          3D

 31 30  0  0  0  0  0  0  0  0999 V2000
    0.1390   -2.8640   27.1040 C   0  0  0  0  0  0  0  0  0  0  0  0
   -0.3410   -2.0850   25.8900 C   0  0  0  0  0  0  0  0  0  0  0  0
    0.5450   -2.3450   24.6720 C   0  0  0  0  0  0  0  0  0  0  0  0
    1.4070   -1.1250   24.3390 C   0  0  0  0  0  0  0  0  0  0  0  0
    1.3010   -0.7600   22.8570 C   0  0  0  0  0  0  0  0  0  0  0  0
    2.4450    0.1330   22.3630 C   0  0  0  0  0  0  0  0  0  0  0  0
    2.0110    1.5750   22.0860 C   0  0  0  0  0  0  0  0  0  0  0  0
    2.8750    2.6170   22.8040 C   0  0  0  0  0  0  0  0  0  0  0  0
    3.9260    3.2630   21.9050 C   0  0  0  0  0  0  0  0  0  0  0  0
    3.5310    3.3820   20.4280 C   0  0  0  0  0  0  0  0  0  0  0  0
    2.7120    4.2940   20.1320 O   0  0  0  0  0  0  0  0  0  0  0  0
    4.0850    2.5280   19.6770 O   0  0  0  0  0  0  0  0  0  0  0  0
   -0.1797   -2.3468   28.0210 H   0  0  0  0  0  0  0  0  0  0  0  0
   -0.2926   -3.8756   27.0847 H   0  0  0  0  0  0  0  0  0  0  0  0
    1.2366   -2.9333   27.0847 H   0  0  0  0  0  0  0  0  0  0  0  0
   -1.3713   -2.3897   25.6542 H   0  0  0  0  0  0  0  0  0  0  0  0
   -0.2949   -1.0120   26.1278 H   0  0  0  0  0  0  0  0  0  0  0  0
    1.2026   -3.2010   24.8838 H   0  0  0  0  0  0  0  0  0  0  0  0
   -0.1045   -2.5562   23.8097 H   0  0  0  0  0  0  0  0  0  0  0  0
    1.0687   -0.2708   24.9439 H   0  0  0  0  0  0  0  0  0  0  0  0
    2.4560   -1.3682   24.5635 H   0  0  0  0  0  0  0  0  0  0  0  0
    1.3059   -1.6893   22.2685 H   0  0  0  0  0  0  0  0  0  0  0  0
    0.3685   -0.1904   22.7303 H   0  0  0  0  0  0  0  0  0  0  0  0
    3.2334    0.1468   23.1300 H   0  0  0  0  0  0  0  0  0  0  0  0
    2.8002   -0.2890   21.4113 H   0  0  0  0  0  0  0  0  0  0  0  0
    2.0734    1.7563   21.0028 H   0  0  0  0  0  0  0  0  0  0  0  0
    0.9848    1.6850   22.4665 H   0  0  0  0  0  0  0  0  0  0  0  0
    2.2159    3.4075   23.1921 H   0  0  0  0  0  0  0  0  0  0  0  0
    3.4148    2.0916   23.6056 H   0  0  0  0  0  0  0  0  0  0  0  0
    4.1265    4.2748   22.2872 H   0  0  0  0  0  0  0  0  0  0  0  0
    4.8049    2.6022   21.9358 H   0  0  0  0  0  0  0  0  0  0  0  0
  1  2  1  0
  2  3  1  0
  3  4  1  0
  4  5  1  0
  5  6  1  0
  6  7  1  0
  7  8  1  0
  8  9  1  0
  9 10  1  0
 10 11  2  0
 10 12  1  0
  1 13  1  0
  1 14  1  0
  1 15  1  0
  2 16  1  0
  2 17  1  0
  3 18  1  0
  3 19  1  0
  4 20  1  0
  4 21  1  0
  5 22  1  0
  5 23  1  0
  6 24  1  0
  6 25  1  0
  7 26  1  0
  7 27  1  0
  8 28  1  0
  8 29  1  0
  9 30  1  0
  9 31  1  0
M  CHG  1  12  -1
M  END
>  <meeko>  (2) 
{"is_sidechain": [false], "free_energy": -5.656, "intermolecular_energy": -8.403, "internal_energy": -0.207}

$$$$
3u9q_ligand
     RDKit          3D

 31 30  0  0  0  0  0  0  0  0999 V2000
    2.2300    5.2190   22.4110 C   0  0  0  0  0  0  0  0  0  0  0  0
    2.7720    4.7720   21.0630 C   0  0  0  0  0  0  0  0  0  0  0  0
    3.2160    3.3100   21.0950 C   0  0  0  0  0  0  0  0  0  0  0  0
    3.8170    2.9380   22.4530 C   0  0  0  0  0  0  0  0  0  0  0  0
    2.9900    1.8530   23.1460 C   0  0  0  0  0  0  0  0  0  0  0  0
    1.8300    1.3280   22.2920 C   0  0  0  0  0  0  0  0  0  0  0  0
    1.3720   -0.0770   22.6900 C   0  0  0  0  0  0  0  0  0  0  0  0
    1.8120   -1.1620   21.7010 C   0  0  0  0  0  0  0  0  0  0  0  0
    3.3190   -1.1940   21.4610 C   0  0  0  0  0  0  0  0  0  0  0  0
    3.7670   -0.7010   20.0800 C   0  0  0  0  0  0  0  0  0  0  0  0
    4.6690    0.1790   20.0570 O   0  0  0  0  0  0  0  0  0  0  0  0
    3.1570   -1.2490   19.1160 O   0  0  0  0  0  0  0  0  0  0  0  0
    2.8088    4.7417   23.2155 H   0  0  0  0  0  0  0  0  0  0  0  0
    2.3160    6.3123   22.4965 H   0  0  0  0  0  0  0  0  0  0  0  0
    1.1731    4.9265   22.4965 H   0  0  0  0  0  0  0  0  0  0  0  0
    1.9845    4.8899   20.3041 H   0  0  0  0  0  0  0  0  0  0  0  0
    3.6465    5.3931   20.8194 H   0  0  0  0  0  0  0  0  0  0  0  0
    2.3447    2.6671   20.9011 H   0  0  0  0  0  0  0  0  0  0  0  0
    3.9872    3.1656   20.3240 H   0  0  0  0  0  0  0  0  0  0  0  0
    4.8415    2.5668   22.3024 H   0  0  0  0  0  0  0  0  0  0  0  0
    3.8189    3.8346   23.0903 H   0  0  0  0  0  0  0  0  0  0  0  0
    3.6541    1.0099   23.3869 H   0  0  0  0  0  0  0  0  0  0  0  0
    2.5492    2.3077   24.0454 H   0  0  0  0  0  0  0  0  0  0  0  0
    0.9785    2.0161   22.3990 H   0  0  0  0  0  0  0  0  0  0  0  0
    2.1896    1.2713   21.2540 H   0  0  0  0  0  0  0  0  0  0  0  0
    1.7927   -0.3143   23.6783 H   0  0  0  0  0  0  0  0  0  0  0  0
    0.2720   -0.0706   22.6979 H   0  0  0  0  0  0  0  0  0  0  0  0
    1.5019   -2.1402   22.0971 H   0  0  0  0  0  0  0  0  0  0  0  0
    1.3362   -0.9319   20.7363 H   0  0  0  0  0  0  0  0  0  0  0  0
    3.7989   -0.5605   22.2215 H   0  0  0  0  0  0  0  0  0  0  0  0
    3.6169   -2.2512   21.5210 H   0  0  0  0  0  0  0  0  0  0  0  0
  1  2  1  0
  2  3  1  0
  3  4  1  0
  4  5  1  0
  5  6  1  0
  6  7  1  0
  7  8  1  0
  8  9  1  0
  9 10  1  0
 10 11  2  0
 10 12  1  0
  1 13  1  0
  1 14  1  0
  1 15  1  0
  2 16  1  0
  2 17  1  0
  3 18  1  0
  3 19  1  0
  4 20  1  0
  4 21  1  0
  5 22  1  0
  5 23  1  0
  6 24  1  0
  6 25  1  0
  7 26  1  0
  7 27  1  0
  8 28  1  0
  8 29  1  0
  9 30  1  0
  9 31  1  0
M  CHG  1  12  -1
M  END
>  <meeko>  (3) 
{"is_sidechain": [false], "free_energy": -5.321, "intermolecular_energy": -7.544, "internal_energy": -0.575}

$$$$
3u9q_ligand
     RDKit          3D

 31 30  0  0  0  0  0  0  0  0999 V2000
    0.2660   -4.4360   25.8900 C   0  0  0  0  0  0  0  0  0  0  0  0
   -0.2180   -3.1690   26.5770 C   0  0  0  0  0  0  0  0  0  0  0  0
    0.1760   -1.9190   25.7890 C   0  0  0  0  0  0  0  0  0  0  0  0
    0.6860   -2.2790   24.3920 C   0  0  0  0  0  0  0  0  0  0  0  0
    1.0400   -1.0230   23.5920 C   0  0  0  0  0  0  0  0  0  0  0  0
    2.0140   -1.2860   22.4380 C   0  0  0  0  0  0  0  0  0  0  0  0
    2.5630   -0.0060   21.8040 C   0  0  0  0  0  0  0  0  0  0  0  0
    1.9820    1.2730   22.4160 C   0  0  0  0  0  0  0  0  0  0  0  0
    3.0130    2.1200   23.1560 C   0  0  0  0  0  0  0  0  0  0  0  0
    3.4500    3.3950   22.4240 C   0  0  0  0  0  0  0  0  0  0  0  0
    4.5680    3.3600   21.8430 O   0  0  0  0  0  0  0  0  0  0  0  0
    2.6160    4.3430   22.5010 O   0  0  0  0  0  0  0  0  0  0  0  0
    0.5500   -5.1793   26.6495 H   0  0  0  0  0  0  0  0  0  0  0  0
   -0.5399   -4.8432   25.2617 H   0  0  0  0  0  0  0  0  0  0  0  0
    1.1381   -4.2022   25.2617 H   0  0  0  0  0  0  0  0  0  0  0  0
   -1.3139   -3.2060   26.6642 H   0  0  0  0  0  0  0  0  0  0  0  0
    0.2521   -3.1136   27.5700 H   0  0  0  0  0  0  0  0  0  0  0  0
   -0.7031   -1.2650   25.6918 H   0  0  0  0  0  0  0  0  0  0  0  0
    0.9842   -1.4072   26.3320 H   0  0  0  0  0  0  0  0  0  0  0  0
    1.5834   -2.9078   24.4885 H   0  0  0  0  0  0  0  0  0  0  0  0
   -0.1102   -2.8191   23.8587 H   0  0  0  0  0  0  0  0  0  0  0  0
    0.1126   -0.6028   23.1757 H   0  0  0  0  0  0  0  0  0  0  0  0
    1.5392   -0.3291   24.2843 H   0  0  0  0  0  0  0  0  0  0  0  0
    2.8595   -1.8753   22.8225 H   0  0  0  0  0  0  0  0  0  0  0  0
    1.4554   -1.8222   21.6567 H   0  0  0  0  0  0  0  0  0  0  0  0
    3.6549    0.0085   21.9369 H   0  0  0  0  0  0  0  0  0  0  0  0
    2.2738   -0.0190   20.7428 H   0  0  0  0  0  0  0  0  0  0  0  0
    1.5495    1.8801   21.6070 H   0  0  0  0  0  0  0  0  0  0  0  0
    1.2290    0.9631   23.1555 H   0  0  0  0  0  0  0  0  0  0  0  0
    2.5819    2.4133   24.1246 H   0  0  0  0  0  0  0  0  0  0  0  0
    3.9136    1.4954   23.2501 H   0  0  0  0  0  0  0  0  0  0  0  0
  1  2  1  0
  2  3  1  0
  3  4  1  0
  4  5  1  0
  5  6  1  0
  6  7  1  0
  7  8  1  0
  8  9  1  0
  9 10  1  0
 10 11  2  0
 10 12  1  0
  1 13  1  0
  1 14  1  0
  1 15  1  0
  2 16  1  0
  2 17  1  0
  3 18  1  0
  3 19  1  0
  4 20  1  0
  4 21  1  0
  5 22  1  0
  5 23  1  0
  6 24  1  0
  6 25  1  0
  7 26  1  0
  7 27  1  0
  8 28  1  0
  8 29  1  0
  9 30  1  0
  9 31  1  0
M  CHG  1  12  -1
M  END
>  <meeko>  (4) 
{"is_sidechain": [false], "free_energy": -5.246, "intermolecular_energy": -7.666, "internal_energy": -0.342}

$$$$
3u9q_ligand
     RDKit          3D

 31 30  0  0  0  0  0  0  0  0999 V2000
    0.0010   -2.7090   27.2150 C   0  0  0  0  0  0  0  0  0  0  0  0
   -0.3660   -2.3960   25.7740 C   0  0  0  0  0  0  0  0  0  0  0  0
    0.2930   -3.3760   24.8020 C   0  0  0  0  0  0  0  0  0  0  0  0
    1.3250   -2.6730   23.9170 C   0  0  0  0  0  0  0  0  0  0  0  0
    1.1100   -1.1580   23.9130 C   0  0  0  0  0  0  0  0  0  0  0  0
    1.3290   -0.5130   22.5400 C   0  0  0  0  0  0  0  0  0  0  0  0
    2.0930    0.8120   22.6070 C   0  0  0  0  0  0  0  0  0  0  0  0
    3.3420    0.8380   21.7190 C   0  0  0  0  0  0  0  0  0  0  0  0
    3.7670   -0.5410   21.2220 C   0  0  0  0  0  0  0  0  0  0  0  0
    4.6870   -0.5330   19.9960 C   0  0  0  0  0  0  0  0  0  0  0  0
    5.3490   -1.5830   19.7770 O   0  0  0  0  0  0  0  0  0  0  0  0
    4.6680    0.5530   19.3460 O   0  0  0  0  0  0  0  0  0  0  0  0
   -0.6587   -2.1463   27.8919 H   0  0  0  0  0  0  0  0  0  0  0  0
   -0.1191   -3.7870   27.3981 H   0  0  0  0  0  0  0  0  0  0  0  0
    1.0465   -2.4202   27.3981 H   0  0  0  0  0  0  0  0  0  0  0  0
   -1.4583   -2.4608   25.6612 H   0  0  0  0  0  0  0  0  0  0  0  0
   -0.0074   -1.3830   25.5388 H   0  0  0  0  0  0  0  0  0  0  0  0
    0.7946   -4.1682   25.3771 H   0  0  0  0  0  0  0  0  0  0  0  0
   -0.4882   -3.8002   24.1541 H   0  0  0  0  0  0  0  0  0  0  0  0
    2.3333   -2.8913   24.2988 H   0  0  0  0  0  0  0  0  0  0  0  0
    1.2114   -3.0437   22.8876 H   0  0  0  0  0  0  0  0  0  0  0  0
    0.0782   -0.9519   24.2339 H   0  0  0  0  0  0  0  0  0  0  0  0
    1.8542   -0.7238   24.5968 H   0  0  0  0  0  0  0  0  0  0  0  0
    1.8996   -1.2134   21.9125 H   0  0  0  0  0  0  0  0  0  0  0  0
    0.3356   -0.2949   22.1209 H   0  0  0  0  0  0  0  0  0  0  0  0
    1.4193    1.6200   22.2855 H   0  0  0  0  0  0  0  0  0  0  0  0
    2.4297    0.9414   23.6462 H   0  0  0  0  0  0  0  0  0  0  0  0
    3.1346    1.4737   20.8456 H   0  0  0  0  0  0  0  0  0  0  0  0
    4.1668    1.2277   22.3337 H   0  0  0  0  0  0  0  0  0  0  0  0
    4.2948   -1.0512   22.0413 H   0  0  0  0  0  0  0  0  0  0  0  0
    2.8446   -1.0531   20.9106 H   0  0  0  0  0  0  0  0  0  0  0  0
  1  2  1  0
  2  3  1  0
  3  4  1  0
  4  5  1  0
  5  6  1  0
  6  7  1  0
  7  8  1  0
  8  9  1  0
  9 10  1  0
 10 11  2  0
 10 12  1  0
  1 13  1  0
  1 14  1  0
  1 15  1  0
  2 16  1  0
  2 17  1  0
  3 18  1  0
  3 19  1  0
  4 20  1  0
  4 21  1  0
  5 22  1  0
  5 23  1  0
  6 24  1  0
  6 25  1  0
  7 26  1  0
  7 27  1  0
  8 28  1  0
  8 29  1  0
  9 30  1  0
  9 31  1  0
M  CHG  1  12  -1
M  END
>  <meeko>  (5) 
{"is_sidechain": [false], "free_energy": -5.23, "intermolecular_energy": -7.569, "internal_energy": -0.416}

$$$$
3u9q_ligand
     RDKit          3D

 31 30  0  0  0  0  0  0  0  0999 V2000
   13.7410   -0.0410   14.8870 C   0  0  0  0  0  0  0  0  0  0  0  0
   13.0180   -1.3190   15.2780 C   0  0  0  0  0  0  0  0  0  0  0  0
   11.5200   -1.0810   15.4650 C   0  0  0  0  0  0  0  0  0  0  0  0
   11.0300   -1.6360   16.8050 C   0  0  0  0  0  0  0  0  0  0  0  0
   11.2740   -3.1430   16.9020 C   0  0  0  0  0  0  0  0  0  0  0  0
   10.3180   -3.8570   17.8640 C   0  0  0  0  0  0  0  0  0  0  0  0
   10.5440   -3.4840   19.3310 C   0  0  0  0  0  0  0  0  0  0  0  0
    9.2420   -3.2790   20.1120 C   0  0  0  0  0  0  0  0  0  0  0  0
    8.2600   -2.3330   19.4250 C   0  0  0  0  0  0  0  0  0  0  0  0
    8.2270   -0.9090   19.9940 C   0  0  0  0  0  0  0  0  0  0  0  0
    7.3420   -0.6640   20.8580 O   0  0  0  0  0  0  0  0  0  0  0  0
    9.1080   -0.1410   19.5100 O   0  0  0  0  0  0  0  0  0  0  0  0
   14.0469    0.4997   15.7948 H   0  0  0  0  0  0  0  0  0  0  0  0
   14.6315   -0.2910   14.2916 H   0  0  0  0  0  0  0  0  0  0  0  0
   13.0680    0.5935   14.2916 H   0  0  0  0  0  0  0  0  0  0  0  0
   13.1646   -2.0689   14.4867 H   0  0  0  0  0  0  0  0  0  0  0  0
   13.4331   -1.6715   16.2337 H   0  0  0  0  0  0  0  0  0  0  0  0
   11.3224    0.0006   15.4317 H   0  0  0  0  0  0  0  0  0  0  0  0
   10.9831   -1.6005   14.6576 H   0  0  0  0  0  0  0  0  0  0  0  0
   11.5690   -1.1320   17.6208 H   0  0  0  0  0  0  0  0  0  0  0  0
    9.9482   -1.4525   16.8834 H   0  0  0  0  0  0  0  0  0  0  0  0
   11.1510   -3.5807   15.9004 H   0  0  0  0  0  0  0  0  0  0  0  0
   12.2918   -3.2810   17.2958 H   0  0  0  0  0  0  0  0  0  0  0  0
    9.2859   -3.5916   17.5914 H   0  0  0  0  0  0  0  0  0  0  0  0
   10.5074   -4.9365   17.7697 H   0  0  0  0  0  0  0  0  0  0  0  0
   11.1163   -4.2908   19.8121 H   0  0  0  0  0  0  0  0  0  0  0  0
   11.0857   -2.5267   19.3439 H   0  0  0  0  0  0  0  0  0  0  0  0
    8.7536   -4.2567   20.2368 H   0  0  0  0  0  0  0  0  0  0  0  0
    9.5119   -2.8205   21.0748 H   0  0  0  0  0  0  0  0  0  0  0  0
    8.5343   -2.2695   18.3617 H   0  0  0  0  0  0  0  0  0  0  0  0
    7.2580   -2.7547   19.5927 H   0  0  0  0  0  0  0  0  0  0  0  0
  1  2  1  0
  2  3  1  0
  3  4  1  0
  4  5  1  0
  5  6  1  0
  6  7  1  0
  7  8  1  0
  8  9  1  0
  9 10  1  0
 10 11  2  0
 10 12  1  0
  1 13  1  0
  1 14  1  0
  1 15  1  0
  2 16  1  0
  2 17  1  0
  3 18  1  0
  3 19  1  0
  4 20  1  0
  4 21  1  0
  5 22  1  0
  5 23  1  0
  6 24  1  0
  6 25  1  0
  7 26  1  0
  7 27  1  0
  8 28  1  0
  8 29  1  0
  9 30  1  0
  9 31  1  0
M  CHG  1  12  -1
M  END
>  <meeko>  (6) 
{"is_sidechain": [false], "free_energy": -4.953, "intermolecular_energy": -7.075, "internal_energy": -0.503}

$$$$
3u9q_ligand
     RDKit          3D

 31 30  0  0  0  0  0  0  0  0999 V2000
   -0.0200   -2.7080   27.1110 C   0  0  0  0  0  0  0  0  0  0  0  0
   -0.3890   -2.1490   25.7470 C   0  0  0  0  0  0  0  0  0  0  0  0
    0.7040   -2.4210   24.7140 C   0  0  0  0  0  0  0  0  0  0  0  0
    1.0480   -1.1590   23.9190 C   0  0  0  0  0  0  0  0  0  0  0  0
    1.6490   -1.5100   22.5560 C   0  0  0  0  0  0  0  0  0  0  0  0
    2.7870   -0.5750   22.1300 C   0  0  0  0  0  0  0  0  0  0  0  0
    3.8840   -1.2810   21.3300 C   0  0  0  0  0  0  0  0  0  0  0  0
    5.1780   -0.4680   21.2250 C   0  0  0  0  0  0  0  0  0  0  0  0
    6.4430   -1.3140   21.3430 C   0  0  0  0  0  0  0  0  0  0  0  0
    7.3880   -1.2370   20.1380 C   0  0  0  0  0  0  0  0  0  0  0  0
    7.1490   -2.0190   19.1790 O   0  0  0  0  0  0  0  0  0  0  0  0
    8.3130   -0.3820   20.2640 O   0  0  0  0  0  0  0  0  0  0  0  0
   -0.4438   -2.0660   27.8973 H   0  0  0  0  0  0  0  0  0  0  0  0
   -0.4241   -3.7261   27.2116 H   0  0  0  0  0  0  0  0  0  0  0  0
    1.0750   -2.7365   27.2116 H   0  0  0  0  0  0  0  0  0  0  0  0
   -1.3244   -2.6192   25.4095 H   0  0  0  0  0  0  0  0  0  0  0  0
   -0.5095   -1.0598   25.8423 H   0  0  0  0  0  0  0  0  0  0  0  0
    1.6072   -2.7741   25.2332 H   0  0  0  0  0  0  0  0  0  0  0  0
    0.3345   -3.1826   24.0115 H   0  0  0  0  0  0  0  0  0  0  0  0
    0.1314   -0.5703   23.7661 H   0  0  0  0  0  0  0  0  0  0  0  0
    1.7903   -0.5803   24.4883 H   0  0  0  0  0  0  0  0  0  0  0  0
    2.0409   -2.5368   22.6023 H   0  0  0  0  0  0  0  0  0  0  0  0
    0.8465   -1.4028   21.8114 H   0  0  0  0  0  0  0  0  0  0  0  0
    2.3645    0.2286   21.5090 H   0  0  0  0  0  0  0  0  0  0  0  0
    3.2519   -0.1884   23.0489 H   0  0  0  0  0  0  0  0  0  0  0  0
    4.1125   -2.2385   21.8209 H   0  0  0  0  0  0  0  0  0  0  0  0
    3.5029   -1.4191   20.3074 H   0  0  0  0  0  0  0  0  0  0  0  0
    5.1903    0.0417   20.2503 H   0  0  0  0  0  0  0  0  0  0  0  0
    5.1835    0.2394   22.0674 H   0  0  0  0  0  0  0  0  0  0  0  0
    6.9962   -0.9786   22.2326 H   0  0  0  0  0  0  0  0  0  0  0  0
    6.1088   -2.3601   21.4056 H   0  0  0  0  0  0  0  0  0  0  0  0
  1  2  1  0
  2  3  1  0
  3  4  1  0
  4  5  1  0
  5  6  1  0
  6  7  1  0
  7  8  1  0
  8  9  1  0
  9 10  1  0
 10 11  2  0
 10 12  1  0
  1 13  1  0
  1 14  1  0
  1 15  1  0
  2 16  1  0
  2 17  1  0
  3 18  1  0
  3 19  1  0
  4 20  1  0
  4 21  1  0
  5 22  1  0
  5 23  1  0
  6 24  1  0
  6 25  1  0
  7 26  1  0
  7 27  1  0
  8 28  1  0
  8 29  1  0
  9 30  1  0
  9 31  1  0
M  CHG  1  12  -1
M  END
>  <meeko>  (7) 
{"is_sidechain": [false], "free_energy": -4.885, "intermolecular_energy": -7.315, "internal_energy": -0.163}

$$$$
3u9q_ligand
     RDKit          3D

 31 30  0  0  0  0  0  0  0  0999 V2000
    2.0890    5.1990   21.7400 C   0  0  0  0  0  0  0  0  0  0  0  0
    3.0020    4.7220   20.6230 C   0  0  0  0  0  0  0  0  0  0  0  0
    3.9080    3.5810   21.0880 C   0  0  0  0  0  0  0  0  0  0  0  0
    3.6850    3.2600   22.5680 C   0  0  0  0  0  0  0  0  0  0  0  0
    3.5710    1.7520   22.7960 C   0  0  0  0  0  0  0  0  0  0  0  0
    3.2950    0.9580   21.5140 C   0  0  0  0  0  0  0  0  0  0  0  0
    3.0590   -0.5340   21.7640 C   0  0  0  0  0  0  0  0  0  0  0  0
    1.6000   -0.8720   22.0840 C   0  0  0  0  0  0  0  0  0  0  0  0
    1.2480   -0.7220   23.5620 C   0  0  0  0  0  0  0  0  0  0  0  0
    1.1260   -2.0400   24.3360 C   0  0  0  0  0  0  0  0  0  0  0  0
    1.2660   -3.1020   23.6720 O   0  0  0  0  0  0  0  0  0  0  0  0
    0.8900   -1.8910   25.5700 O   0  0  0  0  0  0  0  0  0  0  0  0
    2.5444    4.9611   22.7126 H   0  0  0  0  0  0  0  0  0  0  0  0
    1.9467    6.2867   21.6580 H   0  0  0  0  0  0  0  0  0  0  0  0
    1.1149    4.6946   21.6580 H   0  0  0  0  0  0  0  0  0  0  0  0
    2.3852    4.3691   19.7834 H   0  0  0  0  0  0  0  0  0  0  0  0
    3.6387    5.5643   20.3144 H   0  0  0  0  0  0  0  0  0  0  0  0
    3.6895    2.6839   20.4901 H   0  0  0  0  0  0  0  0  0  0  0  0
    4.9544    3.8929   20.9547 H   0  0  0  0  0  0  0  0  0  0  0  0
    4.5333    3.6479   23.1510 H   0  0  0  0  0  0  0  0  0  0  0  0
    2.7451    3.7328   22.8891 H   0  0  0  0  0  0  0  0  0  0  0  0
    4.5156    1.3934   23.2309 H   0  0  0  0  0  0  0  0  0  0  0  0
    2.7144    1.5904   23.4669 H   0  0  0  0  0  0  0  0  0  0  0  0
    2.4003    1.3766   21.0300 H   0  0  0  0  0  0  0  0  0  0  0  0
    4.1889    1.0443   20.8788 H   0  0  0  0  0  0  0  0  0  0  0  0
    3.3565   -1.0902   20.8628 H   0  0  0  0  0  0  0  0  0  0  0  0
    3.6585   -0.8157   22.6422 H   0  0  0  0  0  0  0  0  0  0  0  0
    0.9517   -0.2003   21.5022 H   0  0  0  0  0  0  0  0  0  0  0  0
    1.4489   -1.9296   21.8221 H   0  0  0  0  0  0  0  0  0  0  0  0
    2.0325   -0.1170   24.0399 H   0  0  0  0  0  0  0  0  0  0  0  0
    0.2536   -0.2528   23.5952 H   0  0  0  0  0  0  0  0  0  0  0  0
  1  2  1  0
  2  3  1  0
  3  4  1  0
  4  5  1  0
  5  6  1  0
  6  7  1  0
  7  8  1  0
  8  9  1  0
  9 10  1  0
 10 11  2  0
 10 12  1  0
  1 13  1  0
  1 14  1  0
  1 15  1  0
  2 16  1  0
  2 17  1  0
  3 18  1  0
  3 19  1  0
  4 20  1  0
  4 21  1  0
  5 22  1  0
  5 23  1  0
  6 24  1  0
  6 25  1  0
  7 26  1  0
  7 27  1  0
  8 28  1  0
  8 29  1  0
  9 30  1  0
  9 31  1  0
M  CHG  1  12  -1
M  END
>  <meeko>  (8) 
{"is_sidechain": [false], "free_energy": -4.804, "intermolecular_energy": -6.974, "internal_energy": -0.384}

$$$$
3u9q_ligand
     RDKit          3D

 31 30  0  0  0  0  0  0  0  0999 V2000
   10.2580   -4.9960   22.0320 C   0  0  0  0  0  0  0  0  0  0  0  0
    9.1830   -4.3180   21.1980 C   0  0  0  0  0  0  0  0  0  0  0  0
    8.1790   -3.5710   22.0770 C   0  0  0  0  0  0  0  0  0  0  0  0
    7.7010   -2.2820   21.4050 C   0  0  0  0  0  0  0  0  0  0  0  0
    8.1060   -2.2440   19.9300 C   0  0  0  0  0  0  0  0  0  0  0  0
    8.7330   -0.9130   19.5020 C   0  0  0  0  0  0  0  0  0  0  0  0
   10.0280   -1.0820   18.7020 C   0  0  0  0  0  0  0  0  0  0  0  0
   10.3350   -2.5390   18.3450 C   0  0  0  0  0  0  0  0  0  0  0  0
   10.4190   -2.7950   16.8420 C   0  0  0  0  0  0  0  0  0  0  0  0
   11.6310   -2.1660   16.1450 C   0  0  0  0  0  0  0  0  0  0  0  0
   11.4100   -1.1510   15.4300 O   0  0  0  0  0  0  0  0  0  0  0  0
   12.7240   -2.7600   16.3760 O   0  0  0  0  0  0  0  0  0  0  0  0
   10.0360   -4.8560   23.1002 H   0  0  0  0  0  0  0  0  0  0  0  0
   10.2788   -6.0710   21.7996 H   0  0  0  0  0  0  0  0  0  0  0  0
   11.2370   -4.5516   21.7996 H   0  0  0  0  0  0  0  0  0  0  0  0
    9.6606   -3.6018   20.5132 H   0  0  0  0  0  0  0  0  0  0  0  0
    8.6406   -5.0938   20.6377 H   0  0  0  0  0  0  0  0  0  0  0  0
    7.3114   -4.2215   22.2618 H   0  0  0  0  0  0  0  0  0  0  0  0
    8.6756   -3.3057   23.0220 H   0  0  0  0  0  0  0  0  0  0  0  0
    6.6049   -2.2246   21.4777 H   0  0  0  0  0  0  0  0  0  0  0  0
    8.1689   -1.4281   21.9168 H   0  0  0  0  0  0  0  0  0  0  0  0
    8.8358   -3.0468   19.7486 H   0  0  0  0  0  0  0  0  0  0  0  0
    7.1874   -2.3736   19.3390 H   0  0  0  0  0  0  0  0  0  0  0  0
    8.0069   -0.3692   18.8798 H   0  0  0  0  0  0  0  0  0  0  0  0
    8.9870   -0.3628   20.4200 H   0  0  0  0  0  0  0  0  0  0  0  0
    9.9398   -0.5054   17.7694 H   0  0  0  0  0  0  0  0  0  0  0  0
   10.8515   -0.7221   19.3363 H   0  0  0  0  0  0  0  0  0  0  0  0
   11.2989   -2.8127   18.7989 H   0  0  0  0  0  0  0  0  0  0  0  0
    9.5037   -3.1477   18.7301 H   0  0  0  0  0  0  0  0  0  0  0  0
   10.4601   -3.8826   16.6828 H   0  0  0  0  0  0  0  0  0  0  0  0
    9.5299   -2.3224   16.3992 H   0  0  0  0  0  0  0  0  0  0  0  0
  1  2  1  0
  2  3  1  0
  3  4  1  0
  4  5  1  0
  5  6  1  0
  6  7  1  0
  7  8  1  0
  8  9  1  0
  9 10  1  0
 10 11  2  0
 10 12  1  0
  1 13  1  0
  1 14  1  0
  1 15  1  0
  2 16  1  0
  2 17  1  0
  3 18  1  0
  3 19  1  0
  4 20  1  0
  4 21  1  0
  5 22  1  0
  5 23  1  0
  6 24  1  0
  6 25  1  0
  7 26  1  0
  7 27  1  0
  8 28  1  0
  8 29  1  0
  9 30  1  0
  9 31  1  0
M  CHG  1  12  -1
M  END
>  <meeko>  (9) 
{"is_sidechain": [false], "free_energy": -4.779, "intermolecular_energy": -6.692, "internal_energy": -0.631}

$$$$
