4qac_ligand
     RDKit          3D

 43 45  0  0  0  0  0  0  0  0999 V2000
  -44.1080  -47.7860   29.7930 C   0  0  0  0  0  0  0  0  0  0  0  0
  -45.2520  -46.8370   30.1480 C   0  0  0  0  0  0  0  0  0  0  0  0
  -46.1440  -47.4550   31.2370 C   0  0  0  0  0  0  0  0  0  0  0  0
  -47.5920  -46.9810   31.1170 C   0  0  0  0  0  0  0  0  0  0  0  0
  -48.1360  -47.4160   29.8270 N   0  0  0  0  0  0  0  0  0  0  0  0
  -49.5110  -47.2390   29.6560 C   0  0  0  0  0  0  0  0  0  0  0  0
  -50.3480  -47.0970   30.7470 C   0  0  0  0  0  0  0  0  0  0  0  0
  -51.6980  -46.9160   30.5100 C   0  0  0  0  0  0  0  0  0  0  0  0
  -52.6890  -46.7540   31.5960 C   0  0  0  0  0  0  0  0  0  0  0  0
  -53.2780  -47.8790   32.2010 C   0  0  0  0  0  0  0  0  0  0  0  0
  -54.2150  -47.7500   33.2340 C   0  0  0  0  0  0  0  0  0  0  0  0
  -54.5930  -46.4830   33.6950 C   0  0  0  0  0  0  0  0  0  0  0  0
  -55.6210  -46.3390   34.7910 C   0  0  0  0  0  0  0  0  0  0  0  0
  -55.3420  -45.3070   35.6330 F   0  0  0  0  0  0  0  0  0  0  0  0
  -56.8790  -46.1100   34.3200 F   0  0  0  0  0  0  0  0  0  0  0  0
  -55.7180  -47.4470   35.5780 F   0  0  0  0  0  0  0  0  0  0  0  0
  -54.0300  -45.3540   33.0900 C   0  0  0  0  0  0  0  0  0  0  0  0
  -53.0930  -45.4890   32.0570 C   0  0  0  0  0  0  0  0  0  0  0  0
  -52.1950  -46.8840   29.2580 N   0  0  0  0  0  0  0  0  0  0  0  0
  -51.3190  -46.9850   28.2620 C   0  0  0  0  0  0  0  0  0  0  0  0
  -51.8150  -46.9490   26.9750 N   0  0  0  0  0  0  0  0  0  0  0  0
  -50.0070  -47.1690   28.4090 N   0  0  0  0  0  0  0  0  0  0  0  0
  -47.2590  -47.3470   28.6530 C   0  0  0  0  0  0  0  0  0  0  0  0
  -46.0600  -46.4340   28.9040 C   0  0  0  0  0  0  0  0  0  0  0  0
  -43.6481  -48.1675   30.7165 H   0  0  0  0  0  0  0  0  0  0  0  0
  -44.4997  -48.6281   29.2035 H   0  0  0  0  0  0  0  0  0  0  0  0
  -43.3528  -47.2455   29.2035 H   0  0  0  0  0  0  0  0  0  0  0  0
  -44.8174  -45.9114   30.5534 H   0  0  0  0  0  0  0  0  0  0  0  0
  -46.1182  -48.5504   31.1400 H   0  0  0  0  0  0  0  0  0  0  0  0
  -45.7590  -47.1372   32.2172 H   0  0  0  0  0  0  0  0  0  0  0  0
  -48.1896  -47.4135   31.9330 H   0  0  0  0  0  0  0  0  0  0  0  0
  -47.6284  -45.8835   31.1824 H   0  0  0  0  0  0  0  0  0  0  0  0
  -49.9519  -47.1271   31.7728 H   0  0  0  0  0  0  0  0  0  0  0  0
  -52.9960  -48.8842   31.8545 H   0  0  0  0  0  0  0  0  0  0  0  0
  -54.6569  -48.6501   33.6862 H   0  0  0  0  0  0  0  0  0  0  0  0
  -54.3260  -44.3502   33.4288 H   0  0  0  0  0  0  0  0  0  0  0  0
  -52.6646  -44.5862   31.5972 H   0  0  0  0  0  0  0  0  0  0  0  0
  -51.0680  -47.1310   26.3200 H   0  0  0  0  0  0  0  0  0  0  0  0
  -52.6440  -47.5230   26.9140 H   0  0  0  0  0  0  0  0  0  0  0  0
  -46.8955  -48.3583   28.4182 H   0  0  0  0  0  0  0  0  0  0  0  0
  -47.8375  -46.9347   27.8132 H   0  0  0  0  0  0  0  0  0  0  0  0
  -45.3977  -46.4751   28.0267 H   0  0  0  0  0  0  0  0  0  0  0  0
  -46.4479  -45.4192   29.0765 H   0  0  0  0  0  0  0  0  0  0  0  0
  1  2  1  0
  2  3  1  0
  3  4  1  0
  4  5  1  0
  5  6  1  0
  6  7  2  0
  7  8  1  0
  8  9  1  0
  9 10  2  0
 10 11  1  0
 11 12  2  0
 12 13  1  0
 13 14  1  0
 13 15  1  0
 13 16  1  0
 12 17  1  0
 17 18  2  0
  8 19  2  0
 19 20  1  0
 20 21  1  0
 20 22  2  0
  5 23  1  0
 23 24  1  0
 24  2  1  0
 22  6  1  0
 18  9  1  0
  1 25  1  0
  1 26  1  0
  1 27  1  0
  2 28  1  0
  3 29  1  0
  3 30  1  0
  4 31  1  0
  4 32  1  0
  7 33  1  0
 10 34  1  0
 11 35  1  0
 17 36  1  0
 18 37  1  0
 21 38  1  0
 21 39  1  0
 23 40  1  0
 23 41  1  0
 24 42  1  0
 24 43  1  0
M  END
>  <meeko>  (1) 
{"is_sidechain": [false], "free_energy": -9.118, "intermolecular_energy": -10.984, "internal_energy": -0.67}

$$$$
4qac_ligand
     RDKit          3D

 43 45  0  0  0  0  0  0  0  0999 V2000
  -57.9820  -52.7070   35.5760 C   0  0  0  0  0  0  0  0  0  0  0  0
  -56.6370  -52.2600   35.0010 C   0  0  0  0  0  0  0  0  0  0  0  0
  -55.8870  -51.3780   36.0130 C   0  0  0  0  0  0  0  0  0  0  0  0
  -54.9890  -50.3580   35.3160 C   0  0  0  0  0  0  0  0  0  0  0  0
  -55.8180  -49.4600   34.5050 N   0  0  0  0  0  0  0  0  0  0  0  0
  -55.1660  -48.3470   33.9710 C   0  0  0  0  0  0  0  0  0  0  0  0
  -54.1420  -48.4980   33.0540 C   0  0  0  0  0  0  0  0  0  0  0  0
  -53.5430  -47.3560   32.5570 C   0  0  0  0  0  0  0  0  0  0  0  0
  -52.4380  -47.3930   31.5740 C   0  0  0  0  0  0  0  0  0  0  0  0
  -51.8790  -48.6180   31.1680 C   0  0  0  0  0  0  0  0  0  0  0  0
  -50.8360  -48.6770   30.2370 C   0  0  0  0  0  0  0  0  0  0  0  0
  -50.3150  -47.5030   29.6790 C   0  0  0  0  0  0  0  0  0  0  0  0
  -49.1740  -47.5600   28.6930 C   0  0  0  0  0  0  0  0  0  0  0  0
  -48.6710  -46.3280   28.4080 F   0  0  0  0  0  0  0  0  0  0  0  0
  -48.1200  -48.3020   29.1340 F   0  0  0  0  0  0  0  0  0  0  0  0
  -49.5330  -48.1030   27.4960 F   0  0  0  0  0  0  0  0  0  0  0  0
  -50.8470  -46.2740   30.0870 C   0  0  0  0  0  0  0  0  0  0  0  0
  -51.8910  -46.2220   31.0190 C   0  0  0  0  0  0  0  0  0  0  0  0
  -53.9320  -46.1280   32.9500 N   0  0  0  0  0  0  0  0  0  0  0  0
  -54.9520  -46.0660   33.8010 C   0  0  0  0  0  0  0  0  0  0  0  0
  -55.3640  -44.8140   34.2080 N   0  0  0  0  0  0  0  0  0  0  0  0
  -55.5750  -47.1190   34.3310 N   0  0  0  0  0  0  0  0  0  0  0  0
  -56.9460  -50.0430   33.7700 C   0  0  0  0  0  0  0  0  0  0  0  0
  -56.8060  -51.5600   33.6440 C   0  0  0  0  0  0  0  0  0  0  0  0
  -57.9344  -52.6912   36.6749 H   0  0  0  0  0  0  0  0  0  0  0  0
  -58.7727  -52.0233   35.2333 H   0  0  0  0  0  0  0  0  0  0  0  0
  -58.2062  -53.7279   35.2333 H   0  0  0  0  0  0  0  0  0  0  0  0
  -56.0267  -53.1566   34.8176 H   0  0  0  0  0  0  0  0  0  0  0  0
  -56.6215  -50.8422   36.6322 H   0  0  0  0  0  0  0  0  0  0  0  0
  -55.2513  -52.0292   36.6309 H   0  0  0  0  0  0  0  0  0  0  0  0
  -54.4423  -49.7730   36.0703 H   0  0  0  0  0  0  0  0  0  0  0  0
  -54.2688  -50.8807   34.6694 H   0  0  0  0  0  0  0  0  0  0  0  0
  -53.8142  -49.4968   32.7300 H   0  0  0  0  0  0  0  0  0  0  0  0
  -52.2716  -49.5535   31.5931 H   0  0  0  0  0  0  0  0  0  0  0  0
  -50.4224  -49.6525   29.9414 H   0  0  0  0  0  0  0  0  0  0  0  0
  -50.4410  -45.3400   29.6714 H   0  0  0  0  0  0  0  0  0  0  0  0
  -52.2920  -45.2441   31.3237 H   0  0  0  0  0  0  0  0  0  0  0  0
  -54.6380  -44.1390   34.0090 H   0  0  0  0  0  0  0  0  0  0  0  0
  -56.2900  -44.6270   33.8510 H   0  0  0  0  0  0  0  0  0  0  0  0
  -57.8790  -49.8130   34.3053 H   0  0  0  0  0  0  0  0  0  0  0  0
  -56.9597  -49.6116   32.7582 H   0  0  0  0  0  0  0  0  0  0  0  0
  -57.7080  -51.9562   33.1547 H   0  0  0  0  0  0  0  0  0  0  0  0
  -55.8990  -51.7598   33.0545 H   0  0  0  0  0  0  0  0  0  0  0  0
  1  2  1  0
  2  3  1  0
  3  4  1  0
  4  5  1  0
  5  6  1  0
  6  7  2  0
  7  8  1  0
  8  9  1  0
  9 10  2  0
 10 11  1  0
 11 12  2  0
 12 13  1  0
 13 14  1  0
 13 15  1  0
 13 16  1  0
 12 17  1  0
 17 18  2  0
  8 19  2  0
 19 20  1  0
 20 21  1  0
 20 22  2  0
  5 23  1  0
 23 24  1  0
 24  2  1  0
 22  6  1  0
 18  9  1  0
  1 25  1  0
  1 26  1  0
  1 27  1  0
  2 28  1  0
  3 29  1  0
  3 30  1  0
  4 31  1  0
  4 32  1  0
  7 33  1  0
 10 34  1  0
 11 35  1  0
 17 36  1  0
 18 37  1  0
 21 38  1  0
 21 39  1  0
 23 40  1  0
 23 41  1  0
 24 42  1  0
 24 43  1  0
M  END
>  <meeko>  (2) 
{"is_sidechain": [false], "free_energy": -8.505, "intermolecular_energy": -10.21, "internal_energy": -0.705}

$$$$
4qac_ligand
     RDKit          3D

 43 45  0  0  0  0  0  0  0  0999 V2000
  -57.9550  -51.4040   33.8130 C   0  0  0  0  0  0  0  0  0  0  0  0
  -57.7820  -49.8850   33.7730 C   0  0  0  0  0  0  0  0  0  0  0  0
  -57.6630  -49.3970   32.3190 C   0  0  0  0  0  0  0  0  0  0  0  0
  -56.8020  -48.1390   32.2150 C   0  0  0  0  0  0  0  0  0  0  0  0
  -55.4430  -48.4460   32.6700 N   0  0  0  0  0  0  0  0  0  0  0  0
  -54.4870  -47.4550   32.4420 C   0  0  0  0  0  0  0  0  0  0  0  0
  -53.3480  -47.7260   31.7050 C   0  0  0  0  0  0  0  0  0  0  0  0
  -52.4440  -46.6990   31.5070 C   0  0  0  0  0  0  0  0  0  0  0  0
  -51.1910  -46.8700   30.7390 C   0  0  0  0  0  0  0  0  0  0  0  0
  -49.9420  -46.8100   31.3830 C   0  0  0  0  0  0  0  0  0  0  0  0
  -48.7440  -46.9730   30.6770 C   0  0  0  0  0  0  0  0  0  0  0  0
  -48.7590  -47.2030   29.2960 C   0  0  0  0  0  0  0  0  0  0  0  0
  -47.4700  -47.3550   28.5260 C   0  0  0  0  0  0  0  0  0  0  0  0
  -47.6750  -47.7490   27.2400 F   0  0  0  0  0  0  0  0  0  0  0  0
  -46.7490  -46.2020   28.4550 F   0  0  0  0  0  0  0  0  0  0  0  0
  -46.6320  -48.2810   29.0720 F   0  0  0  0  0  0  0  0  0  0  0  0
  -49.9940  -47.2470   28.6380 C   0  0  0  0  0  0  0  0  0  0  0  0
  -51.1890  -47.0830   29.3490 C   0  0  0  0  0  0  0  0  0  0  0  0
  -52.6510  -45.4700   32.0170 N   0  0  0  0  0  0  0  0  0  0  0  0
  -53.7910  -45.2780   32.6770 C   0  0  0  0  0  0  0  0  0  0  0  0
  -54.0170  -44.0220   33.1990 N   0  0  0  0  0  0  0  0  0  0  0  0
  -54.7060  -46.2170   32.9160 N   0  0  0  0  0  0  0  0  0  0  0  0
  -55.2910  -49.3240   33.8360 C   0  0  0  0  0  0  0  0  0  0  0  0
  -56.5920  -49.4290   34.6310 C   0  0  0  0  0  0  0  0  0  0  0  0
  -57.9934  -51.7412   34.8593 H   0  0  0  0  0  0  0  0  0  0  0  0
  -58.8904  -51.6800   33.3042 H   0  0  0  0  0  0  0  0  0  0  0  0
  -57.1056  -51.8833   33.3042 H   0  0  0  0  0  0  0  0  0  0  0  0
  -58.6797  -49.4243   34.2111 H   0  0  0  0  0  0  0  0  0  0  0  0
  -57.2067  -50.1927   31.7119 H   0  0  0  0  0  0  0  0  0  0  0  0
  -58.6720  -49.1536   31.9548 H   0  0  0  0  0  0  0  0  0  0  0  0
  -56.7719  -47.7992   31.1692 H   0  0  0  0  0  0  0  0  0  0  0  0
  -57.2313  -47.3445   32.8430 H   0  0  0  0  0  0  0  0  0  0  0  0
  -53.1672  -48.7282   31.2892 H   0  0  0  0  0  0  0  0  0  0  0  0
  -49.9056  -46.6307   32.4677 H   0  0  0  0  0  0  0  0  0  0  0  0
  -47.7839  -46.9200   31.2112 H   0  0  0  0  0  0  0  0  0  0  0  0
  -50.0258  -47.4122   27.5509 H   0  0  0  0  0  0  0  0  0  0  0  0
  -52.1465  -47.1216   28.8089 H   0  0  0  0  0  0  0  0  0  0  0  0
  -53.1370  -43.5390   33.3110 H   0  0  0  0  0  0  0  0  0  0  0  0
  -54.7430  -43.5590   32.6720 H   0  0  0  0  0  0  0  0  0  0  0  0
  -55.0001  -50.3276   33.4923 H   0  0  0  0  0  0  0  0  0  0  0  0
  -54.5189  -48.8959   34.4922 H   0  0  0  0  0  0  0  0  0  0  0  0
  -56.4481  -50.1544   35.4453 H   0  0  0  0  0  0  0  0  0  0  0  0
  -56.8268  -48.4249   35.0138 H   0  0  0  0  0  0  0  0  0  0  0  0
  1  2  1  0
  2  3  1  0
  3  4  1  0
  4  5  1  0
  5  6  1  0
  6  7  2  0
  7  8  1  0
  8  9  1  0
  9 10  2  0
 10 11  1  0
 11 12  2  0
 12 13  1  0
 13 14  1  0
 13 15  1  0
 13 16  1  0
 12 17  1  0
 17 18  2  0
  8 19  2  0
 19 20  1  0
 20 21  1  0
 20 22  2  0
  5 23  1  0
 23 24  1  0
 24  2  1  0
 22  6  1  0
 18  9  1  0
  1 25  1  0
  1 26  1  0
  1 27  1  0
  2 28  1  0
  3 29  1  0
  3 30  1  0
  4 31  1  0
  4 32  1  0
  7 33  1  0
 10 34  1  0
 11 35  1  0
 17 36  1  0
 18 37  1  0
 21 38  1  0
 21 39  1  0
 23 40  1  0
 23 41  1  0
 24 42  1  0
 24 43  1  0
M  END
>  <meeko>  (3) 
{"is_sidechain": [false], "free_energy": -7.682, "intermolecular_energy": -9.298, "internal_energy": -0.626}

$$$$
4qac_ligand
     RDKit          3D

 43 45  0  0  0  0  0  0  0  0999 V2000
  -44.7810  -45.1810   29.7140 C   0  0  0  0  0  0  0  0  0  0  0  0
  -45.5480  -46.5010   29.6340 C   0  0  0  0  0  0  0  0  0  0  0  0
  -46.6720  -46.4070   28.5880 C   0  0  0  0  0  0  0  0  0  0  0  0
  -47.8540  -47.3050   28.9480 C   0  0  0  0  0  0  0  0  0  0  0  0
  -48.4260  -46.8620   30.2230 N   0  0  0  0  0  0  0  0  0  0  0  0
  -49.6390  -47.4510   30.5840 C   0  0  0  0  0  0  0  0  0  0  0  0
  -50.6560  -46.6960   31.1380 C   0  0  0  0  0  0  0  0  0  0  0  0
  -51.8360  -47.3380   31.4660 C   0  0  0  0  0  0  0  0  0  0  0  0
  -52.9910  -46.6370   32.0660 C   0  0  0  0  0  0  0  0  0  0  0  0
  -52.8270  -45.3860   32.6880 C   0  0  0  0  0  0  0  0  0  0  0  0
  -53.9070  -44.7020   33.2580 C   0  0  0  0  0  0  0  0  0  0  0  0
  -55.1940  -45.2520   33.2230 C   0  0  0  0  0  0  0  0  0  0  0  0
  -56.3570  -44.5300   33.8580 C   0  0  0  0  0  0  0  0  0  0  0  0
  -56.9920  -45.2880   34.7930 F   0  0  0  0  0  0  0  0  0  0  0  0
  -55.9940  -43.3800   34.4920 F   0  0  0  0  0  0  0  0  0  0  0  0
  -57.3140  -44.1680   32.9570 F   0  0  0  0  0  0  0  0  0  0  0  0
  -55.3710  -46.5040   32.6240 C   0  0  0  0  0  0  0  0  0  0  0  0
  -54.2870  -47.1840   32.0550 C   0  0  0  0  0  0  0  0  0  0  0  0
  -51.9990  -48.6600   31.2620 N   0  0  0  0  0  0  0  0  0  0  0  0
  -50.9890  -49.3070   30.6850 C   0  0  0  0  0  0  0  0  0  0  0  0
  -51.1460  -50.6600   30.4660 N   0  0  0  0  0  0  0  0  0  0  0  0
  -49.8210  -48.7620   30.3480 N   0  0  0  0  0  0  0  0  0  0  0  0
  -47.5010  -46.4370   31.2800 C   0  0  0  0  0  0  0  0  0  0  0  0
  -46.0800  -46.9310   31.0100 C   0  0  0  0  0  0  0  0  0  0  0  0
  -44.6243  -44.9113   30.7689 H   0  0  0  0  0  0  0  0  0  0  0  0
  -43.8068  -45.2922   29.2154 H   0  0  0  0  0  0  0  0  0  0  0  0
  -45.3600  -44.3897   29.2154 H   0  0  0  0  0  0  0  0  0  0  0  0
  -44.8485  -47.2850   29.3083 H   0  0  0  0  0  0  0  0  0  0  0  0
  -47.0200  -45.3651   28.5311 H   0  0  0  0  0  0  0  0  0  0  0  0
  -46.2693  -46.7410   27.6204 H   0  0  0  0  0  0  0  0  0  0  0  0
  -48.6185  -47.2404   28.1597 H   0  0  0  0  0  0  0  0  0  0  0  0
  -47.5122  -48.3466   29.0387 H   0  0  0  0  0  0  0  0  0  0  0  0
  -50.5303  -45.6172   31.3126 H   0  0  0  0  0  0  0  0  0  0  0  0
  -51.8249  -44.9340   32.7274 H   0  0  0  0  0  0  0  0  0  0  0  0
  -53.7434  -43.7253   33.7369 H   0  0  0  0  0  0  0  0  0  0  0  0
  -56.3722  -46.9590   32.5998 H   0  0  0  0  0  0  0  0  0  0  0  0
  -54.4525  -48.1668   31.5895 H   0  0  0  0  0  0  0  0  0  0  0  0
  -51.9390  -50.9970   30.9940 H   0  0  0  0  0  0  0  0  0  0  0  0
  -51.1280  -50.8490   29.4740 H   0  0  0  0  0  0  0  0  0  0  0  0
  -47.4945  -45.3381   31.3292 H   0  0  0  0  0  0  0  0  0  0  0  0
  -47.8422  -46.8686   32.2325 H   0  0  0  0  0  0  0  0  0  0  0  0
  -45.4142  -46.5254   31.7860 H   0  0  0  0  0  0  0  0  0  0  0  0
  -46.1047  -48.0306   31.0251 H   0  0  0  0  0  0  0  0  0  0  0  0
  1  2  1  0
  2  3  1  0
  3  4  1  0
  4  5  1  0
  5  6  1  0
  6  7  2  0
  7  8  1  0
  8  9  1  0
  9 10  2  0
 10 11  1  0
 11 12  2  0
 12 13  1  0
 13 14  1  0
 13 15  1  0
 13 16  1  0
 12 17  1  0
 17 18  2  0
  8 19  2  0
 19 20  1  0
 20 21  1  0
 20 22  2  0
  5 23  1  0
 23 24  1  0
 24  2  1  0
 22  6  1  0
 18  9  1  0
  1 25  1  0
  1 26  1  0
  1 27  1  0
  2 28  1  0
  3 29  1  0
  3 30  1  0
  4 31  1  0
  4 32  1  0
  7 33  1  0
 10 34  1  0
 11 35  1  0
 17 36  1  0
 18 37  1  0
 21 38  1  0
 21 39  1  0
 23 40  1  0
 23 41  1  0
 24 42  1  0
 24 43  1  0
M  END
>  <meeko>  (4) 
{"is_sidechain": [false], "free_energy": -7.636, "intermolecular_energy": -9.214, "internal_energy": -0.655}

$$$$
4qac_ligand
     RDKit          3D

 43 45  0  0  0  0  0  0  0  0999 V2000
  -48.1870  -46.9970   28.4010 C   0  0  0  0  0  0  0  0  0  0  0  0
  -49.4020  -47.7650   28.9230 C   0  0  0  0  0  0  0  0  0  0  0  0
  -50.7030  -47.1250   28.4110 C   0  0  0  0  0  0  0  0  0  0  0  0
  -51.8540  -47.3210   29.3950 C   0  0  0  0  0  0  0  0  0  0  0  0
  -51.5260  -46.6570   30.6600 N   0  0  0  0  0  0  0  0  0  0  0  0
  -52.5650  -46.5700   31.5890 C   0  0  0  0  0  0  0  0  0  0  0  0
  -53.2070  -47.7080   32.0420 C   0  0  0  0  0  0  0  0  0  0  0  0
  -54.2210  -47.5560   32.9680 C   0  0  0  0  0  0  0  0  0  0  0  0
  -54.9800  -48.6980   33.5230 C   0  0  0  0  0  0  0  0  0  0  0  0
  -54.5970  -49.2920   34.7380 C   0  0  0  0  0  0  0  0  0  0  0  0
  -55.3030  -50.3710   35.2840 C   0  0  0  0  0  0  0  0  0  0  0  0
  -56.4230  -50.8920   34.6250 C   0  0  0  0  0  0  0  0  0  0  0  0
  -57.1730  -52.0700   35.1960 C   0  0  0  0  0  0  0  0  0  0  0  0
  -56.3400  -53.0410   35.6610 F   0  0  0  0  0  0  0  0  0  0  0  0
  -57.9800  -51.7370   36.2420 F   0  0  0  0  0  0  0  0  0  0  0  0
  -57.9820  -52.6780   34.2840 F   0  0  0  0  0  0  0  0  0  0  0  0
  -56.8070  -50.3240   33.4040 C   0  0  0  0  0  0  0  0  0  0  0  0
  -56.0960  -49.2450   32.8640 C   0  0  0  0  0  0  0  0  0  0  0  0
  -54.5870  -46.3400   33.4190 N   0  0  0  0  0  0  0  0  0  0  0  0
  -53.8920  -45.2990   32.9670 C   0  0  0  0  0  0  0  0  0  0  0  0
  -54.2540  -44.0490   33.4250 N   0  0  0  0  0  0  0  0  0  0  0  0
  -52.9090  -45.3640   32.0710 N   0  0  0  0  0  0  0  0  0  0  0  0
  -50.1450  -46.7480   31.1460 C   0  0  0  0  0  0  0  0  0  0  0  0
  -49.3830  -47.8800   30.4560 C   0  0  0  0  0  0  0  0  0  0  0  0
  -47.5964  -46.6237   29.2506 H   0  0  0  0  0  0  0  0  0  0  0  0
  -47.5654  -47.6666   27.7884 H   0  0  0  0  0  0  0  0  0  0  0  0
  -48.5252  -46.1482   27.7884 H   0  0  0  0  0  0  0  0  0  0  0  0
  -49.3543  -48.7914   28.5303 H   0  0  0  0  0  0  0  0  0  0  0  0
  -50.5372  -46.0472   28.2664 H   0  0  0  0  0  0  0  0  0  0  0  0
  -50.9752  -47.6126   27.4633 H   0  0  0  0  0  0  0  0  0  0  0  0
  -52.7731  -46.8838   28.9777 H   0  0  0  0  0  0  0  0  0  0  0  0
  -52.0099  -48.3955   29.5716 H   0  0  0  0  0  0  0  0  0  0  0  0
  -52.9189  -48.7045   31.6760 H   0  0  0  0  0  0  0  0  0  0  0  0
  -53.7202  -48.8992   35.2736 H   0  0  0  0  0  0  0  0  0  0  0  0
  -54.9755  -50.8122   36.2369 H   0  0  0  0  0  0  0  0  0  0  0  0
  -57.6754  -50.7292   32.8639 H   0  0  0  0  0  0  0  0  0  0  0  0
  -56.4173  -48.8158   31.9035 H   0  0  0  0  0  0  0  0  0  0  0  0
  -53.4240  -43.5230   33.6620 H   0  0  0  0  0  0  0  0  0  0  0  0
  -54.9100  -43.6280   32.7840 H   0  0  0  0  0  0  0  0  0  0  0  0
  -49.6315  -45.7963   30.9445 H   0  0  0  0  0  0  0  0  0  0  0  0
  -50.1715  -46.9569   32.2256 H   0  0  0  0  0  0  0  0  0  0  0  0
  -48.3374  -47.8583   30.7969 H   0  0  0  0  0  0  0  0  0  0  0  0
  -49.8805  -48.8241   30.7229 H   0  0  0  0  0  0  0  0  0  0  0  0
  1  2  1  0
  2  3  1  0
  3  4  1  0
  4  5  1  0
  5  6  1  0
  6  7  2  0
  7  8  1  0
  8  9  1  0
  9 10  2  0
 10 11  1  0
 11 12  2  0
 12 13  1  0
 13 14  1  0
 13 15  1  0
 13 16  1  0
 12 17  1  0
 17 18  2  0
  8 19  2  0
 19 20  1  0
 20 21  1  0
 20 22  2  0
  5 23  1  0
 23 24  1  0
 24  2  1  0
 22  6  1  0
 18  9  1  0
  1 25  1  0
  1 26  1  0
  1 27  1  0
  2 28  1  0
  3 29  1  0
  3 30  1  0
  4 31  1  0
  4 32  1  0
  7 33  1  0
 10 34  1  0
 11 35  1  0
 17 36  1  0
 18 37  1  0
 21 38  1  0
 21 39  1  0
 23 40  1  0
 23 41  1  0
 24 42  1  0
 24 43  1  0
M  END
>  <meeko>  (5) 
{"is_sidechain": [false], "free_energy": -7.597, "intermolecular_energy": -9.141, "internal_energy": -0.679}

$$$$
