1yc1_ligand
     RDKit          3D

 42 45  0  0  0  0  0  0  0  0999 V2000
    2.0450   30.0810   -1.2320 C   0  0  0  0  0  0  0  0  0  0  0  0
    1.2940   31.0930   -0.3800 C   0  0  0  0  0  0  0  0  0  0  0  0
    0.1100   31.6760   -1.1080 C   0  0  0  0  0  0  0  0  0  0  0  0
    0.3020   32.1760   -2.4090 C   0  0  0  0  0  0  0  0  0  0  0  0
   -0.7540   32.7350   -3.1510 C   0  0  0  0  0  0  0  0  0  0  0  0
   -0.4640   33.2580   -4.4840 C   0  0  0  0  0  0  0  0  0  0  0  0
   -1.0510   32.7110   -5.5630 N   0  0  0  0  0  0  0  0  0  0  0  0
   -0.5740   33.4420   -6.5860 N   0  0  0  0  0  0  0  0  0  0  0  0
    0.2910   34.4210   -6.2140 C   0  0  0  0  0  0  0  0  0  0  0  0
    0.9180   35.3110   -7.3080 C   0  0  0  0  0  0  0  0  0  0  0  0
    0.0770   36.0590   -7.8940 O   0  0  0  0  0  0  0  0  0  0  0  0
    2.1590   35.2380   -7.5150 O   0  0  0  0  0  0  0  0  0  0  0  0
    0.4130   34.3410   -4.8450 C   0  0  0  0  0  0  0  0  0  0  0  0
    1.2580   35.1640   -3.9960 C   0  0  0  0  0  0  0  0  0  0  0  0
    0.7080   36.2180   -3.2360 C   0  0  0  0  0  0  0  0  0  0  0  0
    1.5030   36.9810   -2.3730 C   0  0  0  0  0  0  0  0  0  0  0  0
    2.8390   36.6600   -2.2870 C   0  0  0  0  0  0  0  0  0  0  0  0
    3.3850   35.6340   -3.0220 C   0  0  0  0  0  0  0  0  0  0  0  0
    2.6260   34.8680   -3.8820 C   0  0  0  0  0  0  0  0  0  0  0  0
    4.7180   35.4830   -2.7920 O   0  0  0  0  0  0  0  0  0  0  0  0
    4.9480   36.5460   -1.8460 C   0  0  0  0  0  0  0  0  0  0  0  0
    3.7590   37.2850   -1.5020 O   0  0  0  0  0  0  0  0  0  0  0  0
   -2.0320   32.7660   -2.5820 C   0  0  0  0  0  0  0  0  0  0  0  0
   -3.1430   33.2420   -3.2250 O   0  0  0  0  0  0  0  0  0  0  0  0
   -2.2420   32.2710   -1.2950 C   0  0  0  0  0  0  0  0  0  0  0  0
   -1.1820   31.7300   -0.5690 C   0  0  0  0  0  0  0  0  0  0  0  0
   -1.4890   31.2590    0.6770 O   0  0  0  0  0  0  0  0  0  0  0  0
    2.5722   29.3706   -0.5782 H   0  0  0  0  0  0  0  0  0  0  0  0
    1.3317   29.5351   -1.8669 H   0  0  0  0  0  0  0  0  0  0  0  0
    2.7742   30.6055   -1.8669 H   0  0  0  0  0  0  0  0  0  0  0  0
    0.9386   30.5939    0.5336 H   0  0  0  0  0  0  0  0  0  0  0  0
    1.9846   31.9152   -0.1413 H   0  0  0  0  0  0  0  0  0  0  0  0
    1.3051   32.1284   -2.8580 H   0  0  0  0  0  0  0  0  0  0  0  0
   -0.8540   33.2450   -7.5430 H   0  0  0  0  0  0  0  0  0  0  0  0
   -0.3650   36.4441   -3.3234 H   0  0  0  0  0  0  0  0  0  0  0  0
    1.0760   37.8068   -1.7850 H   0  0  0  0  0  0  0  0  0  0  0  0
    3.0787   34.0497   -4.4612 H   0  0  0  0  0  0  0  0  0  0  0  0
    5.3627   36.1081   -0.9261 H   0  0  0  0  0  0  0  0  0  0  0  0
    5.6400   37.2557   -2.3230 H   0  0  0  0  0  0  0  0  0  0  0  0
   -3.5720   33.9040   -2.6540 H   0  0  0  0  0  0  0  0  0  0  0  0
   -3.2478   32.3077   -0.8512 H   0  0  0  0  0  0  0  0  0  0  0  0
   -0.9520   31.7250    1.3340 H   0  0  0  0  0  0  0  0  0  0  0  0
  1  2  1  0
  2  3  1  0
  3  4  2  0
  4  5  1  0
  5  6  1  0
  6  7  2  0
  7  8  1  0
  8  9  1  0
  9 10  1  0
 10 11  2  0
 10 12  1  0
  9 13  2  0
 13 14  1  0
 14 15  2  0
 15 16  1  0
 16 17  2  0
 17 18  1  0
 18 19  2  0
 18 20  1  0
 20 21  1  0
 21 22  1  0
  5 23  2  0
 23 24  1  0
 23 25  1  0
 25 26  2  0
 26 27  1  0
 26  3  1  0
 13  6  1  0
 19 14  1  0
 22 17  1  0
  1 28  1  0
  1 29  1  0
  1 30  1  0
  2 31  1  0
  2 32  1  0
  4 33  1  0
  8 34  1  0
 15 35  1  0
 16 36  1  0
 19 37  1  0
 21 38  1  0
 21 39  1  0
 24 40  1  0
 25 41  1  0
 27 42  1  0
M  CHG  1  12  -1
M  END
>  <meeko>  (1) 
{"is_sidechain": [false], "free_energy": -9.808, "intermolecular_energy": -12.675, "internal_energy": -1.567}

$$$$
1yc1_ligand
     RDKit          3D

 42 45  0  0  0  0  0  0  0  0999 V2000
    5.2940   34.5530   -0.5870 C   0  0  0  0  0  0  0  0  0  0  0  0
    4.9200   35.6880    0.3540 C   0  0  0  0  0  0  0  0  0  0  0  0
    3.9700   36.6670   -0.2900 C   0  0  0  0  0  0  0  0  0  0  0  0
    3.6030   36.4590   -1.6320 C   0  0  0  0  0  0  0  0  0  0  0  0
    2.7220   37.3280   -2.3000 C   0  0  0  0  0  0  0  0  0  0  0  0
    2.4140   37.0590   -3.7040 C   0  0  0  0  0  0  0  0  0  0  0  0
    2.7360   37.9600   -4.6480 N   0  0  0  0  0  0  0  0  0  0  0  0
    2.3290   37.3790   -5.7900 N   0  0  0  0  0  0  0  0  0  0  0  0
    1.7590   36.1580   -5.6200 C   0  0  0  0  0  0  0  0  0  0  0  0
    1.2350   35.4060   -6.8610 C   0  0  0  0  0  0  0  0  0  0  0  0
    2.1180   35.2320   -7.7560 O   0  0  0  0  0  0  0  0  0  0  0  0
    0.0320   35.0300   -6.8830 O   0  0  0  0  0  0  0  0  0  0  0  0
    1.7740   35.9000   -4.2680 C   0  0  0  0  0  0  0  0  0  0  0  0
    1.2400   34.7250   -3.5990 C   0  0  0  0  0  0  0  0  0  0  0  0
    2.1030   33.7680   -3.0240 C   0  0  0  0  0  0  0  0  0  0  0  0
    1.5980   32.6630   -2.3300 C   0  0  0  0  0  0  0  0  0  0  0  0
    0.2310   32.5470   -2.2220 C   0  0  0  0  0  0  0  0  0  0  0  0
   -0.6180   33.4740   -2.7780 C   0  0  0  0  0  0  0  0  0  0  0  0
   -0.1490   34.5710   -3.4700 C   0  0  0  0  0  0  0  0  0  0  0  0
   -1.9290   33.1750   -2.5590 O   0  0  0  0  0  0  0  0  0  0  0  0
   -1.8010   31.9430   -1.8220 C   0  0  0  0  0  0  0  0  0  0  0  0
   -0.4360   31.5470   -1.5840 O   0  0  0  0  0  0  0  0  0  0  0  0
    2.1820   38.4100   -1.5960 C   0  0  0  0  0  0  0  0  0  0  0  0
    1.2810   39.2930   -2.1270 O   0  0  0  0  0  0  0  0  0  0  0  0
    2.5320   38.6280   -0.2640 C   0  0  0  0  0  0  0  0  0  0  0  0
    3.4150   37.7630    0.3810 C   0  0  0  0  0  0  0  0  0  0  0  0
    3.6870   38.0520    1.6890 O   0  0  0  0  0  0  0  0  0  0  0  0
    5.5850   33.6700    0.0010 H   0  0  0  0  0  0  0  0  0  0  0  0
    4.4307   34.3030   -1.2212 H   0  0  0  0  0  0  0  0  0  0  0  0
    6.1368   34.8652   -1.2212 H   0  0  0  0  0  0  0  0  0  0  0  0
    4.4404   35.2641    1.2486 H   0  0  0  0  0  0  0  0  0  0  0  0
    5.8409   36.2301    0.6149 H   0  0  0  0  0  0  0  0  0  0  0  0
    4.0157   35.5945   -2.1727 H   0  0  0  0  0  0  0  0  0  0  0  0
    2.4480   37.8470   -6.6840 H   0  0  0  0  0  0  0  0  0  0  0  0
    3.1914   33.8929   -3.1231 H   0  0  0  0  0  0  0  0  0  0  0  0
    2.2699   31.9135   -1.8864 H   0  0  0  0  0  0  0  0  0  0  0  0
   -0.8431   35.3035   -3.9078 H   0  0  0  0  0  0  0  0  0  0  0  0
   -2.3007   32.0668   -0.8499 H   0  0  0  0  0  0  0  0  0  0  0  0
   -2.2615   31.1538   -2.4345 H   0  0  0  0  0  0  0  0  0  0  0  0
    0.3810   38.9780   -1.9250 H   0  0  0  0  0  0  0  0  0  0  0  0
    2.1098   39.4858    0.2801 H   0  0  0  0  0  0  0  0  0  0  0  0
    2.9090   37.8480    2.2280 H   0  0  0  0  0  0  0  0  0  0  0  0
  1  2  1  0
  2  3  1  0
  3  4  2  0
  4  5  1  0
  5  6  1  0
  6  7  2  0
  7  8  1  0
  8  9  1  0
  9 10  1  0
 10 11  2  0
 10 12  1  0
  9 13  2  0
 13 14  1  0
 14 15  2  0
 15 16  1  0
 16 17  2  0
 17 18  1  0
 18 19  2  0
 18 20  1  0
 20 21  1  0
 21 22  1  0
  5 23  2  0
 23 24  1  0
 23 25  1  0
 25 26  2  0
 26 27  1  0
 26  3  1  0
 13  6  1  0
 19 14  1  0
 22 17  1  0
  1 28  1  0
  1 29  1  0
  1 30  1  0
  2 31  1  0
  2 32  1  0
  4 33  1  0
  8 34  1  0
 15 35  1  0
 16 36  1  0
 19 37  1  0
 21 38  1  0
 21 39  1  0
 24 40  1  0
 25 41  1  0
 27 42  1  0
M  CHG  1  12  -1
M  END
>  <meeko>  (2) 
{"is_sidechain": [false], "free_energy": -7.887, "intermolecular_energy": -10.262, "internal_energy": -1.498}

$$$$
1yc1_ligand
     RDKit          3D

 42 45  0  0  0  0  0  0  0  0999 V2000
    5.2730   34.5950   -0.4700 C   0  0  0  0  0  0  0  0  0  0  0  0
    5.3750   35.6110   -1.5970 C   0  0  0  0  0  0  0  0  0  0  0  0
    4.0420   36.2420   -1.9110 C   0  0  0  0  0  0  0  0  0  0  0  0
    3.2540   35.6730   -2.9290 C   0  0  0  0  0  0  0  0  0  0  0  0
    2.0010   36.2060   -3.2780 C   0  0  0  0  0  0  0  0  0  0  0  0
    1.2580   35.5730   -4.3670 C   0  0  0  0  0  0  0  0  0  0  0  0
    1.2680   36.1210   -5.5950 N   0  0  0  0  0  0  0  0  0  0  0  0
    0.5130   35.2790   -6.3220 N   0  0  0  0  0  0  0  0  0  0  0  0
    0.0180   34.2280   -5.6180 C   0  0  0  0  0  0  0  0  0  0  0  0
   -0.8810   33.2070   -6.3460 C   0  0  0  0  0  0  0  0  0  0  0  0
   -1.6670   33.7360   -7.1900 O   0  0  0  0  0  0  0  0  0  0  0  0
   -0.7600   31.9830   -6.0690 O   0  0  0  0  0  0  0  0  0  0  0  0
    0.4630   34.3750   -4.3240 C   0  0  0  0  0  0  0  0  0  0  0  0
    0.1620   33.5090   -3.1950 C   0  0  0  0  0  0  0  0  0  0  0  0
    1.1930   32.8300   -2.5130 C   0  0  0  0  0  0  0  0  0  0  0  0
    0.9200   32.0390   -1.3910 C   0  0  0  0  0  0  0  0  0  0  0  0
   -0.3890   31.9530   -0.9750 C   0  0  0  0  0  0  0  0  0  0  0  0
   -1.4010   32.6100   -1.6330 C   0  0  0  0  0  0  0  0  0  0  0  0
   -1.1620   33.3950   -2.7420 C   0  0  0  0  0  0  0  0  0  0  0  0
   -2.6190   32.3930   -1.0630 O   0  0  0  0  0  0  0  0  0  0  0  0
   -2.2540   31.5060    0.0140 C   0  0  0  0  0  0  0  0  0  0  0  0
   -0.8400   31.2380    0.0920 O   0  0  0  0  0  0  0  0  0  0  0  0
    1.5200   37.3140   -2.5720 C   0  0  0  0  0  0  0  0  0  0  0  0
    0.2970   37.8870   -2.7920 O   0  0  0  0  0  0  0  0  0  0  0  0
    2.2860   37.8880   -1.5570 C   0  0  0  0  0  0  0  0  0  0  0  0
    3.5320   37.3550   -1.2300 C   0  0  0  0  0  0  0  0  0  0  0  0
    4.2010   37.9780   -0.2140 O   0  0  0  0  0  0  0  0  0  0  0  0
    5.3252   35.1148    0.4981 H   0  0  0  0  0  0  0  0  0  0  0  0
    4.3164   34.0574   -0.5464 H   0  0  0  0  0  0  0  0  0  0  0  0
    6.1037   33.8780   -0.5464 H   0  0  0  0  0  0  0  0  0  0  0  0
    6.0807   36.4009   -1.3003 H   0  0  0  0  0  0  0  0  0  0  0  0
    5.7226   35.0849   -2.4983 H   0  0  0  0  0  0  0  0  0  0  0  0
    3.6283   34.7885   -3.4653 H   0  0  0  0  0  0  0  0  0  0  0  0
    0.3440   35.4510   -7.3090 H   0  0  0  0  0  0  0  0  0  0  0  0
    2.2296   32.9237   -2.8690 H   0  0  0  0  0  0  0  0  0  0  0  0
    1.7227   31.5054   -0.8609 H   0  0  0  0  0  0  0  0  0  0  0  0
   -1.9836   33.9157   -3.2556 H   0  0  0  0  0  0  0  0  0  0  0  0
   -2.5735   31.9622    0.9626 H   0  0  0  0  0  0  0  0  0  0  0  0
   -2.7525   30.5447   -0.1793 H   0  0  0  0  0  0  0  0  0  0  0  0
   -0.3920   37.2960   -2.4370 H   0  0  0  0  0  0  0  0  0  0  0  0
    1.9053   38.7647   -1.0125 H   0  0  0  0  0  0  0  0  0  0  0  0
    3.9970   37.5330    0.6210 H   0  0  0  0  0  0  0  0  0  0  0  0
  1  2  1  0
  2  3  1  0
  3  4  2  0
  4  5  1  0
  5  6  1  0
  6  7  2  0
  7  8  1  0
  8  9  1  0
  9 10  1  0
 10 11  2  0
 10 12  1  0
  9 13  2  0
 13 14  1  0
 14 15  2  0
 15 16  1  0
 16 17  2  0
 17 18  1  0
 18 19  2  0
 18 20  1  0
 20 21  1  0
 21 22  1  0
  5 23  2  0
 23 24  1  0
 23 25  1  0
 25 26  2  0
 26 27  1  0
 26  3  1  0
 13  6  1  0
 19 14  1  0
 22 17  1  0
  1 28  1  0
  1 29  1  0
  1 30  1  0
  2 31  1  0
  2 32  1  0
  4 33  1  0
  8 34  1  0
 15 35  1  0
 16 36  1  0
 19 37  1  0
 21 38  1  0
 21 39  1  0
 24 40  1  0
 25 41  1  0
 27 42  1  0
M  CHG  1  12  -1
M  END
>  <meeko>  (3) 
{"is_sidechain": [false], "free_energy": -7.819, "intermolecular_energy": -10.34, "internal_energy": -1.332}

$$$$
1yc1_ligand
     RDKit          3D

 42 45  0  0  0  0  0  0  0  0999 V2000
   -3.2310   30.3130   -0.4630 C   0  0  0  0  0  0  0  0  0  0  0  0
   -2.5900   31.6380   -0.0820 C   0  0  0  0  0  0  0  0  0  0  0  0
   -1.2720   31.8510   -0.7830 C   0  0  0  0  0  0  0  0  0  0  0  0
   -1.2810   32.4400   -2.0610 C   0  0  0  0  0  0  0  0  0  0  0  0
   -0.0930   32.6700   -2.7770 C   0  0  0  0  0  0  0  0  0  0  0  0
   -0.1910   33.2610   -4.1110 C   0  0  0  0  0  0  0  0  0  0  0  0
   -0.7030   32.5440   -5.1270 N   0  0  0  0  0  0  0  0  0  0  0  0
   -0.6530   33.3940   -6.1680 N   0  0  0  0  0  0  0  0  0  0  0  0
   -0.1300   34.6110   -5.8680 C   0  0  0  0  0  0  0  0  0  0  0  0
   -0.0060   35.6620   -6.9910 C   0  0  0  0  0  0  0  0  0  0  0  0
   -0.6670   36.7220   -6.7670 O   0  0  0  0  0  0  0  0  0  0  0  0
    0.7180   35.4020   -7.9900 O   0  0  0  0  0  0  0  0  0  0  0  0
    0.2040   34.5780   -4.5330 C   0  0  0  0  0  0  0  0  0  0  0  0
    0.8300   35.6430   -3.7650 C   0  0  0  0  0  0  0  0  0  0  0  0
    0.0480   36.6400   -3.1450 C   0  0  0  0  0  0  0  0  0  0  0  0
    0.6360   37.6360   -2.3570 C   0  0  0  0  0  0  0  0  0  0  0  0
    2.0030   37.6040   -2.2040 C   0  0  0  0  0  0  0  0  0  0  0  0
    2.7750   36.6360   -2.8040 C   0  0  0  0  0  0  0  0  0  0  0  0
    2.2220   35.6440   -3.5870 C   0  0  0  0  0  0  0  0  0  0  0  0
    4.1000   36.7840   -2.5290 O   0  0  0  0  0  0  0  0  0  0  0  0
    4.0700   37.9680   -1.7060 C   0  0  0  0  0  0  0  0  0  0  0  0
    2.7440   38.4830   -1.4770 O   0  0  0  0  0  0  0  0  0  0  0  0
    1.1270   32.3250   -2.1850 C   0  0  0  0  0  0  0  0  0  0  0  0
    2.3470   32.5450   -2.7660 O   0  0  0  0  0  0  0  0  0  0  0  0
    1.1540   31.7440   -0.9180 C   0  0  0  0  0  0  0  0  0  0  0  0
   -0.0330   31.5120   -0.2250 C   0  0  0  0  0  0  0  0  0  0  0  0
    0.0970   30.9510    1.0140 O   0  0  0  0  0  0  0  0  0  0  0  0
   -3.4988   29.7595    0.4491 H   0  0  0  0  0  0  0  0  0  0  0  0
   -4.1375   30.5016   -1.0569 H   0  0  0  0  0  0  0  0  0  0  0  0
   -2.5205   29.7193   -1.0569 H   0  0  0  0  0  0  0  0  0  0  0  0
   -3.2738   32.4549   -0.3559 H   0  0  0  0  0  0  0  0  0  0  0  0
   -2.3999   31.6240    1.0014 H   0  0  0  0  0  0  0  0  0  0  0  0
   -2.2423   32.7279   -2.5115 H   0  0  0  0  0  0  0  0  0  0  0  0
   -0.9820   33.1120   -7.0870 H   0  0  0  0  0  0  0  0  0  0  0  0
   -1.0433   36.6345   -3.2833 H   0  0  0  0  0  0  0  0  0  0  0  0
    0.0271   38.4164   -1.8772 H   0  0  0  0  0  0  0  0  0  0  0  0
    2.8536   34.8763   -4.0580 H   0  0  0  0  0  0  0  0  0  0  0  0
    4.5208   37.7252   -0.7324 H   0  0  0  0  0  0  0  0  0  0  0  0
    4.6280   38.7476   -2.2454 H   0  0  0  0  0  0  0  0  0  0  0  0
    2.2660   32.3880   -3.7250 H   0  0  0  0  0  0  0  0  0  0  0  0
    2.1165   31.4674   -0.4630 H   0  0  0  0  0  0  0  0  0  0  0  0
    0.1720   31.6530    1.6750 H   0  0  0  0  0  0  0  0  0  0  0  0
  1  2  1  0
  2  3  1  0
  3  4  2  0
  4  5  1  0
  5  6  1  0
  6  7  2  0
  7  8  1  0
  8  9  1  0
  9 10  1  0
 10 11  2  0
 10 12  1  0
  9 13  2  0
 13 14  1  0
 14 15  2  0
 15 16  1  0
 16 17  2  0
 17 18  1  0
 18 19  2  0
 18 20  1  0
 20 21  1  0
 21 22  1  0
  5 23  2  0
 23 24  1  0
 23 25  1  0
 25 26  2  0
 26 27  1  0
 26  3  1  0
 13  6  1  0
 19 14  1  0
 22 17  1  0
  1 28  1  0
  1 29  1  0
  1 30  1  0
  2 31  1  0
  2 32  1  0
  4 33  1  0
  8 34  1  0
 15 35  1  0
 16 36  1  0
 19 37  1  0
 21 38  1  0
 21 39  1  0
 24 40  1  0
 25 41  1  0
 27 42  1  0
M  CHG  1  12  -1
M  END
>  <meeko>  (4) 
{"is_sidechain": [false], "free_energy": -7.778, "intermolecular_energy": -10.334, "internal_energy": -1.285}

$$$$
1yc1_ligand
     RDKit          3D

 42 45  0  0  0  0  0  0  0  0999 V2000
    3.6660   39.5180   -0.8960 C   0  0  0  0  0  0  0  0  0  0  0  0
    3.1430   38.3140   -0.1270 C   0  0  0  0  0  0  0  0  0  0  0  0
    3.4750   37.0150   -0.8180 C   0  0  0  0  0  0  0  0  0  0  0  0
    2.7520   36.6680   -1.9740 C   0  0  0  0  0  0  0  0  0  0  0  0
    3.0040   35.4740   -2.6720 C   0  0  0  0  0  0  0  0  0  0  0  0
    2.1900   35.1730   -3.8490 C   0  0  0  0  0  0  0  0  0  0  0  0
    2.4070   35.8290   -5.0020 N   0  0  0  0  0  0  0  0  0  0  0  0
    1.5070   35.2920   -5.8440 N   0  0  0  0  0  0  0  0  0  0  0  0
    0.7250   34.3330   -5.2840 C   0  0  0  0  0  0  0  0  0  0  0  0
   -0.3580   33.6590   -6.1530 C   0  0  0  0  0  0  0  0  0  0  0  0
   -0.7440   34.3770   -7.1260 O   0  0  0  0  0  0  0  0  0  0  0  0
   -0.7480   32.4990   -5.8500 O   0  0  0  0  0  0  0  0  0  0  0  0
    1.1180   34.2200   -3.9700 C   0  0  0  0  0  0  0  0  0  0  0  0
    0.5460   33.3440   -2.9610 C   0  0  0  0  0  0  0  0  0  0  0  0
    1.3670   32.4760   -2.2110 C   0  0  0  0  0  0  0  0  0  0  0  0
    0.8340   31.6690   -1.1990 C   0  0  0  0  0  0  0  0  0  0  0  0
   -0.5180   31.7590   -0.9580 C   0  0  0  0  0  0  0  0  0  0  0  0
   -1.3270   32.6020   -1.6830 C   0  0  0  0  0  0  0  0  0  0  0  0
   -0.8290   33.4060   -2.6870 C   0  0  0  0  0  0  0  0  0  0  0  0
   -2.6290   32.5390   -1.2880 O   0  0  0  0  0  0  0  0  0  0  0  0
   -2.5440   31.5430   -0.2490 C   0  0  0  0  0  0  0  0  0  0  0  0
   -1.2070   31.0580   -0.0170 O   0  0  0  0  0  0  0  0  0  0  0  0
    4.0200   34.6280   -2.2130 C   0  0  0  0  0  0  0  0  0  0  0  0
    4.3850   33.4650   -2.8370 O   0  0  0  0  0  0  0  0  0  0  0  0
    4.7480   34.9590   -1.0710 C   0  0  0  0  0  0  0  0  0  0  0  0
    4.4790   36.1410   -0.3830 C   0  0  0  0  0  0  0  0  0  0  0  0
    5.2540   36.3840    0.7160 O   0  0  0  0  0  0  0  0  0  0  0  0
    4.0009   40.2890   -0.1865 H   0  0  0  0  0  0  0  0  0  0  0  0
    4.5114   39.2099   -1.5288 H   0  0  0  0  0  0  0  0  0  0  0  0
    2.8638   39.9256   -1.5288 H   0  0  0  0  0  0  0  0  0  0  0  0
    3.5957   38.3089    0.8755 H   0  0  0  0  0  0  0  0  0  0  0  0
    2.0478   38.3976   -0.0684 H   0  0  0  0  0  0  0  0  0  0  0  0
    1.9695   37.3484   -2.3411 H   0  0  0  0  0  0  0  0  0  0  0  0
    1.4430   35.6060   -6.8090 H   0  0  0  0  0  0  0  0  0  0  0  0
    2.4451   32.4325   -2.4252 H   0  0  0  0  0  0  0  0  0  0  0  0
    1.4725   30.9877   -0.6175 H   0  0  0  0  0  0  0  0  0  0  0  0
   -1.4901   34.0761   -3.2562 H   0  0  0  0  0  0  0  0  0  0  0  0
   -2.9202   31.9840    0.6859 H   0  0  0  0  0  0  0  0  0  0  0  0
   -3.1443   30.6826   -0.5797 H   0  0  0  0  0  0  0  0  0  0  0  0
    5.0930   33.6650   -3.4750 H   0  0  0  0  0  0  0  0  0  0  0  0
    5.5385   34.2841   -0.7112 H   0  0  0  0  0  0  0  0  0  0  0  0
    5.9340   35.6990    0.7830 H   0  0  0  0  0  0  0  0  0  0  0  0
  1  2  1  0
  2  3  1  0
  3  4  2  0
  4  5  1  0
  5  6  1  0
  6  7  2  0
  7  8  1  0
  8  9  1  0
  9 10  1  0
 10 11  2  0
 10 12  1  0
  9 13  2  0
 13 14  1  0
 14 15  2  0
 15 16  1  0
 16 17  2  0
 17 18  1  0
 18 19  2  0
 18 20  1  0
 20 21  1  0
 21 22  1  0
  5 23  2  0
 23 24  1  0
 23 25  1  0
 25 26  2  0
 26 27  1  0
 26  3  1  0
 13  6  1  0
 19 14  1  0
 22 17  1  0
  1 28  1  0
  1 29  1  0
  1 30  1  0
  2 31  1  0
  2 32  1  0
  4 33  1  0
  8 34  1  0
 15 35  1  0
 16 36  1  0
 19 37  1  0
 21 38  1  0
 21 39  1  0
 24 40  1  0
 25 41  1  0
 27 42  1  0
M  CHG  1  12  -1
M  END
>  <meeko>  (5) 
{"is_sidechain": [false], "free_energy": -7.765, "intermolecular_energy": -10.768, "internal_energy": -0.833}

$$$$
1yc1_ligand
     RDKit          3D

 42 45  0  0  0  0  0  0  0  0999 V2000
    1.8760   30.0770   -1.6300 C   0  0  0  0  0  0  0  0  0  0  0  0
    1.7860   31.4590   -0.9990 C   0  0  0  0  0  0  0  0  0  0  0  0
    1.0130   32.4240   -1.8620 C   0  0  0  0  0  0  0  0  0  0  0  0
    1.7310   33.3620   -2.6270 C   0  0  0  0  0  0  0  0  0  0  0  0
    1.0800   34.2940   -3.4540 C   0  0  0  0  0  0  0  0  0  0  0  0
    1.8980   35.2540   -4.1940 C   0  0  0  0  0  0  0  0  0  0  0  0
    1.7070   35.4220   -5.5150 N   0  0  0  0  0  0  0  0  0  0  0  0
    2.6020   36.3700   -5.8440 N   0  0  0  0  0  0  0  0  0  0  0  0
    3.3550   36.8090   -4.8030 C   0  0  0  0  0  0  0  0  0  0  0  0
    4.4290   37.8850   -5.0670 C   0  0  0  0  0  0  0  0  0  0  0  0
    4.8240   38.4750   -4.0150 O   0  0  0  0  0  0  0  0  0  0  0  0
    4.8220   38.0760   -6.2500 O   0  0  0  0  0  0  0  0  0  0  0  0
    2.9470   36.1020   -3.6940 C   0  0  0  0  0  0  0  0  0  0  0  0
    3.4890   36.2020   -2.3490 C   0  0  0  0  0  0  0  0  0  0  0  0
    2.9650   37.1340   -1.4290 C   0  0  0  0  0  0  0  0  0  0  0  0
    3.4410   37.2000   -0.1140 C   0  0  0  0  0  0  0  0  0  0  0  0
    4.4330   36.3190    0.2490 C   0  0  0  0  0  0  0  0  0  0  0  0
    4.9510   35.4070   -0.6400 C   0  0  0  0  0  0  0  0  0  0  0  0
    4.5030   35.3210   -1.9410 C   0  0  0  0  0  0  0  0  0  0  0  0
    5.9220   34.6320   -0.0830 O   0  0  0  0  0  0  0  0  0  0  0  0
    5.9680   35.1790    1.2500 C   0  0  0  0  0  0  0  0  0  0  0  0
    5.0130   36.2350    1.4770 O   0  0  0  0  0  0  0  0  0  0  0  0
   -0.3170   34.2640   -3.5330 C   0  0  0  0  0  0  0  0  0  0  0  0
   -1.0540   35.0890   -4.3390 O   0  0  0  0  0  0  0  0  0  0  0  0
   -1.0430   33.3390   -2.7850 C   0  0  0  0  0  0  0  0  0  0  0  0
   -0.3840   32.4280   -1.9600 C   0  0  0  0  0  0  0  0  0  0  0  0
   -1.1810   31.5530   -1.2770 O   0  0  0  0  0  0  0  0  0  0  0  0
    1.9256   29.3150   -0.8383 H   0  0  0  0  0  0  0  0  0  0  0  0
    0.9875   29.9002   -2.2539 H   0  0  0  0  0  0  0  0  0  0  0  0
    2.7800   30.0169   -2.2539 H   0  0  0  0  0  0  0  0  0  0  0  0
    1.2831   31.3725   -0.0245 H   0  0  0  0  0  0  0  0  0  0  0  0
    2.8085   31.8483   -0.8855 H   0  0  0  0  0  0  0  0  0  0  0  0
    2.8298   33.3660   -2.5765 H   0  0  0  0  0  0  0  0  0  0  0  0
    2.6820   36.7010   -6.8020 H   0  0  0  0  0  0  0  0  0  0  0  0
    2.1683   37.8211   -1.7504 H   0  0  0  0  0  0  0  0  0  0  0  0
    3.0364   37.9298    0.6027 H   0  0  0  0  0  0  0  0  0  0  0  0
    4.9275   34.5840   -2.6386 H   0  0  0  0  0  0  0  0  0  0  0  0
    5.7655   34.3681    1.9652 H   0  0  0  0  0  0  0  0  0  0  0  0
    6.9684   35.6165    1.3833 H   0  0  0  0  0  0  0  0  0  0  0  0
   -0.9950   35.9980   -3.9900 H   0  0  0  0  0  0  0  0  0  0  0  0
   -2.1413   33.3274   -2.8456 H   0  0  0  0  0  0  0  0  0  0  0  0
   -0.6930   30.7330   -1.1220 H   0  0  0  0  0  0  0  0  0  0  0  0
  1  2  1  0
  2  3  1  0
  3  4  2  0
  4  5  1  0
  5  6  1  0
  6  7  2  0
  7  8  1  0
  8  9  1  0
  9 10  1  0
 10 11  2  0
 10 12  1  0
  9 13  2  0
 13 14  1  0
 14 15  2  0
 15 16  1  0
 16 17  2  0
 17 18  1  0
 18 19  2  0
 18 20  1  0
 20 21  1  0
 21 22  1  0
  5 23  2  0
 23 24  1  0
 23 25  1  0
 25 26  2  0
 26 27  1  0
 26  3  1  0
 13  6  1  0
 19 14  1  0
 22 17  1  0
  1 28  1  0
  1 29  1  0
  1 30  1  0
  2 31  1  0
  2 32  1  0
  4 33  1  0
  8 34  1  0
 15 35  1  0
 16 36  1  0
 19 37  1  0
 21 38  1  0
 21 39  1  0
 24 40  1  0
 25 41  1  0
 27 42  1  0
M  CHG  1  12  -1
M  END
>  <meeko>  (6) 
{"is_sidechain": [false], "free_energy": -7.755, "intermolecular_energy": -10.408, "internal_energy": -1.181}

$$$$
1yc1_ligand
     RDKit          3D

 42 45  0  0  0  0  0  0  0  0999 V2000
    1.8010   39.9660   -0.0850 C   0  0  0  0  0  0  0  0  0  0  0  0
    2.7810   39.1630    0.7570 C   0  0  0  0  0  0  0  0  0  0  0  0
    3.4350   38.0590   -0.0350 C   0  0  0  0  0  0  0  0  0  0  0  0
    3.6490   38.2590   -1.4120 C   0  0  0  0  0  0  0  0  0  0  0  0
    4.2540   37.2770   -2.2160 C   0  0  0  0  0  0  0  0  0  0  0  0
    4.4140   37.5520   -3.6430 C   0  0  0  0  0  0  0  0  0  0  0  0
    5.4740   38.2560   -4.0770 N   0  0  0  0  0  0  0  0  0  0  0  0
    5.3020   38.2940   -5.4100 N   0  0  0  0  0  0  0  0  0  0  0  0
    4.1850   37.6560   -5.8450 C   0  0  0  0  0  0  0  0  0  0  0  0
    3.8750   37.6520   -7.3570 C   0  0  0  0  0  0  0  0  0  0  0  0
    4.1290   38.7570   -7.9270 O   0  0  0  0  0  0  0  0  0  0  0  0
    3.4280   36.5980   -7.8840 O   0  0  0  0  0  0  0  0  0  0  0  0
    3.5530   37.1590   -4.7270 C   0  0  0  0  0  0  0  0  0  0  0  0
    2.2970   36.4290   -4.6880 C   0  0  0  0  0  0  0  0  0  0  0  0
    1.1040   37.0240   -5.1500 C   0  0  0  0  0  0  0  0  0  0  0  0
   -0.1010   36.3100   -5.1690 C   0  0  0  0  0  0  0  0  0  0  0  0
   -0.0760   35.0060   -4.7290 C   0  0  0  0  0  0  0  0  0  0  0  0
    1.0820   34.4180   -4.2780 C   0  0  0  0  0  0  0  0  0  0  0  0
    2.2810   35.0970   -4.2450 C   0  0  0  0  0  0  0  0  0  0  0  0
    0.8900   33.1270   -3.8880 O   0  0  0  0  0  0  0  0  0  0  0  0
   -0.5250   32.9840   -4.1260 C   0  0  0  0  0  0  0  0  0  0  0  0
   -1.1430   34.1630   -4.6790 O   0  0  0  0  0  0  0  0  0  0  0  0
    4.6750   36.0840   -1.6180 C   0  0  0  0  0  0  0  0  0  0  0  0
    5.3150   35.0780   -2.2900 O   0  0  0  0  0  0  0  0  0  0  0  0
    4.4740   35.8710   -0.2550 C   0  0  0  0  0  0  0  0  0  0  0  0
    3.8630   36.8500    0.5270 C   0  0  0  0  0  0  0  0  0  0  0  0
    3.7220   36.5540    1.8540 O   0  0  0  0  0  0  0  0  0  0  0  0
    1.1208   40.5234    0.5758 H   0  0  0  0  0  0  0  0  0  0  0  0
    2.3560   40.6724   -0.7198 H   0  0  0  0  0  0  0  0  0  0  0  0
    1.2176   39.2829   -0.7198 H   0  0  0  0  0  0  0  0  0  0  0  0
    3.5619   39.8395    1.1347 H   0  0  0  0  0  0  0  0  0  0  0  0
    2.2200   38.7016    1.5831 H   0  0  0  0  0  0  0  0  0  0  0  0
    3.3347   39.2081   -1.8708 H   0  0  0  0  0  0  0  0  0  0  0  0
    5.9690   38.7740   -6.0080 H   0  0  0  0  0  0  0  0  0  0  0  0
    1.1204   38.0663   -5.5012 H   0  0  0  0  0  0  0  0  0  0  0  0
   -1.0333   36.7745   -5.5227 H   0  0  0  0  0  0  0  0  0  0  0  0
    3.1981   34.6097   -3.8823 H   0  0  0  0  0  0  0  0  0  0  0  0
   -0.6763   32.1510   -4.8283 H   0  0  0  0  0  0  0  0  0  0  0  0
   -0.9978   32.8019   -3.1496 H   0  0  0  0  0  0  0  0  0  0  0  0
    5.2380   34.2580   -1.7690 H   0  0  0  0  0  0  0  0  0  0  0  0
    4.7990   34.9263    0.2054 H   0  0  0  0  0  0  0  0  0  0  0  0
    4.4590   36.9430    2.3460 H   0  0  0  0  0  0  0  0  0  0  0  0
  1  2  1  0
  2  3  1  0
  3  4  2  0
  4  5  1  0
  5  6  1  0
  6  7  2  0
  7  8  1  0
  8  9  1  0
  9 10  1  0
 10 11  2  0
 10 12  1  0
  9 13  2  0
 13 14  1  0
 14 15  2  0
 15 16  1  0
 16 17  2  0
 17 18  1  0
 18 19  2  0
 18 20  1  0
 20 21  1  0
 21 22  1  0
  5 23  2  0
 23 24  1  0
 23 25  1  0
 25 26  2  0
 26 27  1  0
 26  3  1  0
 13  6  1  0
 19 14  1  0
 22 17  1  0
  1 28  1  0
  1 29  1  0
  1 30  1  0
  2 31  1  0
  2 32  1  0
  4 33  1  0
  8 34  1  0
 15 35  1  0
 16 36  1  0
 19 37  1  0
 21 38  1  0
 21 39  1  0
 24 40  1  0
 25 41  1  0
 27 42  1  0
M  CHG  1  12  -1
M  END
>  <meeko>  (7) 
{"is_sidechain": [false], "free_energy": -7.619, "intermolecular_energy": -10.071, "internal_energy": -1.342}

$$$$
1yc1_ligand
     RDKit          3D

 42 45  0  0  0  0  0  0  0  0999 V2000
    0.0320   35.6070   -6.3260 C   0  0  0  0  0  0  0  0  0  0  0  0
   -0.3290   34.1370   -6.1820 C   0  0  0  0  0  0  0  0  0  0  0  0
   -0.1160   33.6380   -4.7750 C   0  0  0  0  0  0  0  0  0  0  0  0
    1.0220   34.0770   -4.0730 C   0  0  0  0  0  0  0  0  0  0  0  0
    1.2880   33.6570   -2.7580 C   0  0  0  0  0  0  0  0  0  0  0  0
    2.5080   34.1360   -2.1100 C   0  0  0  0  0  0  0  0  0  0  0  0
    3.1060   33.3880   -1.1660 N   0  0  0  0  0  0  0  0  0  0  0  0
    4.1790   34.1200   -0.8180 N   0  0  0  0  0  0  0  0  0  0  0  0
    4.2910   35.2960   -1.4870 C   0  0  0  0  0  0  0  0  0  0  0  0
    5.4750   36.2280   -1.1550 C   0  0  0  0  0  0  0  0  0  0  0  0
    6.3270   35.7030   -0.3750 O   0  0  0  0  0  0  0  0  0  0  0  0
    5.5080   37.3780   -1.6700 O   0  0  0  0  0  0  0  0  0  0  0  0
    3.2130   35.3690   -2.3410 C   0  0  0  0  0  0  0  0  0  0  0  0
    2.8850   36.4640   -3.2390 C   0  0  0  0  0  0  0  0  0  0  0  0
    3.4210   36.5120   -4.5430 C   0  0  0  0  0  0  0  0  0  0  0  0
    3.0680   37.5320   -5.4340 C   0  0  0  0  0  0  0  0  0  0  0  0
    2.1730   38.4810   -4.9950 C   0  0  0  0  0  0  0  0  0  0  0  0
    1.6450   38.4430   -3.7260 C   0  0  0  0  0  0  0  0  0  0  0  0
    1.9770   37.4520   -2.8260 C   0  0  0  0  0  0  0  0  0  0  0  0
    0.7840   39.4720   -3.4920 O   0  0  0  0  0  0  0  0  0  0  0  0
    0.8530   40.1690   -4.7510 C   0  0  0  0  0  0  0  0  0  0  0  0
    1.7140   39.5370   -5.7190 O   0  0  0  0  0  0  0  0  0  0  0  0
    0.3780   32.8000   -2.1290 C   0  0  0  0  0  0  0  0  0  0  0  0
    0.5080   32.3630   -0.8380 O   0  0  0  0  0  0  0  0  0  0  0  0
   -0.7570   32.3580   -2.8080 C   0  0  0  0  0  0  0  0  0  0  0  0
   -1.0010   32.7760   -4.1160 C   0  0  0  0  0  0  0  0  0  0  0  0
   -2.1450   32.3000   -4.6920 O   0  0  0  0  0  0  0  0  0  0  0  0
    0.1425   36.0569   -5.3283 H   0  0  0  0  0  0  0  0  0  0  0  0
    0.9796   35.6996   -6.8769 H   0  0  0  0  0  0  0  0  0  0  0  0
   -0.7649   36.1280   -6.8769 H   0  0  0  0  0  0  0  0  0  0  0  0
   -1.3875   34.0034   -6.4497 H   0  0  0  0  0  0  0  0  0  0  0  0
    0.3265   33.5592   -6.8502 H   0  0  0  0  0  0  0  0  0  0  0  0
    1.7221   34.7672   -4.5664 H   0  0  0  0  0  0  0  0  0  0  0  0
    4.8260   33.7900   -0.1070 H   0  0  0  0  0  0  0  0  0  0  0  0
    4.1288   35.7341   -4.8652 H   0  0  0  0  0  0  0  0  0  0  0  0
    3.4907   37.5737   -6.4487 H   0  0  0  0  0  0  0  0  0  0  0  0
    1.5435   37.4362   -1.8152 H   0  0  0  0  0  0  0  0  0  0  0  0
   -0.1614   40.2244   -5.1729 H   0  0  0  0  0  0  0  0  0  0  0  0
    1.2777   41.1625   -4.5445 H   0  0  0  0  0  0  0  0  0  0  0  0
    0.2550   33.0880   -0.2380 H   0  0  0  0  0  0  0  0  0  0  0  0
   -1.4627   31.6769   -2.3099 H   0  0  0  0  0  0  0  0  0  0  0  0
   -2.0580   31.3470   -4.8320 H   0  0  0  0  0  0  0  0  0  0  0  0
  1  2  1  0
  2  3  1  0
  3  4  2  0
  4  5  1  0
  5  6  1  0
  6  7  2  0
  7  8  1  0
  8  9  1  0
  9 10  1  0
 10 11  2  0
 10 12  1  0
  9 13  2  0
 13 14  1  0
 14 15  2  0
 15 16  1  0
 16 17  2  0
 17 18  1  0
 18 19  2  0
 18 20  1  0
 20 21  1  0
 21 22  1  0
  5 23  2  0
 23 24  1  0
 23 25  1  0
 25 26  2  0
 26 27  1  0
 26  3  1  0
 13  6  1  0
 19 14  1  0
 22 17  1  0
  1 28  1  0
  1 29  1  0
  1 30  1  0
  2 31  1  0
  2 32  1  0
  4 33  1  0
  8 34  1  0
 15 35  1  0
 16 36  1  0
 19 37  1  0
 21 38  1  0
 21 39  1  0
 24 40  1  0
 25 41  1  0
 27 42  1  0
M  CHG  1  12  -1
M  END
>  <meeko>  (8) 
{"is_sidechain": [false], "free_energy": -7.496, "intermolecular_energy": -9.875, "internal_energy": -1.379}

$$$$
1yc1_ligand
     RDKit          3D

 42 45  0  0  0  0  0  0  0  0999 V2000
    2.9140   40.0100    0.0420 C   0  0  0  0  0  0  0  0  0  0  0  0
    2.8920   38.6940    0.8030 C   0  0  0  0  0  0  0  0  0  0  0  0
    3.4390   37.5550   -0.0210 C   0  0  0  0  0  0  0  0  0  0  0  0
    3.1420   37.5210   -1.3960 C   0  0  0  0  0  0  0  0  0  0  0  0
    3.6160   36.4920   -2.2290 C   0  0  0  0  0  0  0  0  0  0  0  0
    3.2390   36.5140   -3.6410 C   0  0  0  0  0  0  0  0  0  0  0  0
    3.9030   37.3060   -4.5020 N   0  0  0  0  0  0  0  0  0  0  0  0
    3.3090   37.0570   -5.6820 N   0  0  0  0  0  0  0  0  0  0  0  0
    2.2980   36.1520   -5.6150 C   0  0  0  0  0  0  0  0  0  0  0  0
    1.5300   35.8020   -6.9070 C   0  0  0  0  0  0  0  0  0  0  0  0
    0.4490   36.4540   -7.0440 O   0  0  0  0  0  0  0  0  0  0  0  0
    2.0190   34.9470   -7.6930 O   0  0  0  0  0  0  0  0  0  0  0  0
    2.1960   35.7700   -4.2960 C   0  0  0  0  0  0  0  0  0  0  0  0
    1.2320   34.8410   -3.7300 C   0  0  0  0  0  0  0  0  0  0  0  0
   -0.1500   35.0100   -3.9580 C   0  0  0  0  0  0  0  0  0  0  0  0
   -1.0830   34.0900   -3.4650 C   0  0  0  0  0  0  0  0  0  0  0  0
   -0.6030   33.0130   -2.7550 C   0  0  0  0  0  0  0  0  0  0  0  0
    0.7420   32.8400   -2.5270 C   0  0  0  0  0  0  0  0  0  0  0  0
    1.6830   33.7310   -2.9990 C   0  0  0  0  0  0  0  0  0  0  0  0
    1.0050   31.7160   -1.8060 O   0  0  0  0  0  0  0  0  0  0  0  0
   -0.3300   31.2190   -1.5900 C   0  0  0  0  0  0  0  0  0  0  0  0
   -1.3560   32.0220   -2.2060 O   0  0  0  0  0  0  0  0  0  0  0  0
    4.4250   35.4950   -1.6720 C   0  0  0  0  0  0  0  0  0  0  0  0
    4.9810   34.4720   -2.3930 O   0  0  0  0  0  0  0  0  0  0  0  0
    4.7320   35.5160   -0.3120 C   0  0  0  0  0  0  0  0  0  0  0  0
    4.2450   36.5370    0.5030 C   0  0  0  0  0  0  0  0  0  0  0  0
    4.6100   36.4790    1.8180 O   0  0  0  0  0  0  0  0  0  0  0  0
    2.9280   40.8464    0.7563 H   0  0  0  0  0  0  0  0  0  0  0  0
    3.8130   40.0529   -0.5904 H   0  0  0  0  0  0  0  0  0  0  0  0
    2.0169   40.0829   -0.5904 H   0  0  0  0  0  0  0  0  0  0  0  0
    3.5020   38.7994    1.7122 H   0  0  0  0  0  0  0  0  0  0  0  0
    1.8455   38.4622    1.0503 H   0  0  0  0  0  0  0  0  0  0  0  0
    2.5231   38.3199   -1.8304 H   0  0  0  0  0  0  0  0  0  0  0  0
    3.6140   37.5280   -6.5290 H   0  0  0  0  0  0  0  0  0  0  0  0
   -0.5005   35.8797   -4.5331 H   0  0  0  0  0  0  0  0  0  0  0  0
   -2.1610   34.2231   -3.6388 H   0  0  0  0  0  0  0  0  0  0  0  0
    2.7552   33.5763   -2.8082 H   0  0  0  0  0  0  0  0  0  0  0  0
   -0.3921   30.2010   -2.0021 H   0  0  0  0  0  0  0  0  0  0  0  0
   -0.5103   31.2456   -0.5052 H   0  0  0  0  0  0  0  0  0  0  0  0
    4.7130   34.5680   -3.3250 H   0  0  0  0  0  0  0  0  0  0  0  0
    5.3611   34.7236    0.1197 H   0  0  0  0  0  0  0  0  0  0  0  0
    3.8570   36.1740    2.3440 H   0  0  0  0  0  0  0  0  0  0  0  0
  1  2  1  0
  2  3  1  0
  3  4  2  0
  4  5  1  0
  5  6  1  0
  6  7  2  0
  7  8  1  0
  8  9  1  0
  9 10  1  0
 10 11  2  0
 10 12  1  0
  9 13  2  0
 13 14  1  0
 14 15  2  0
 15 16  1  0
 16 17  2  0
 17 18  1  0
 18 19  2  0
 18 20  1  0
 20 21  1  0
 21 22  1  0
  5 23  2  0
 23 24  1  0
 23 25  1  0
 25 26  2  0
 26 27  1  0
 26  3  1  0
 13  6  1  0
 19 14  1  0
 22 17  1  0
  1 28  1  0
  1 29  1  0
  1 30  1  0
  2 31  1  0
  2 32  1  0
  4 33  1  0
  8 34  1  0
 15 35  1  0
 16 36  1  0
 19 37  1  0
 21 38  1  0
 21 39  1  0
 24 40  1  0
 25 41  1  0
 27 42  1  0
M  CHG  1  12  -1
M  END
>  <meeko>  (9) 
{"is_sidechain": [false], "free_energy": -7.45, "intermolecular_energy": -10.051, "internal_energy": -1.144}

$$$$
