3gnw_ligand
     RDKit          3D

 76 81  0  0  0  0  0  0  0  0999 V2000
   31.5600    5.8760   44.4450 C   0  0  0  0  0  0  0  0  0  0  0  0
   31.0420    7.2010   43.9700 C   0  0  0  0  0  0  0  0  0  0  0  0
   30.7040    8.1900   44.8900 C   0  0  0  0  0  0  0  0  0  0  0  0
   30.2350    9.4160   44.4250 C   0  0  0  0  0  0  0  0  0  0  0  0
   30.1150    9.6230   43.0570 C   0  0  0  0  0  0  0  0  0  0  0  0
   30.4660    8.5820   42.2060 C   0  0  0  0  0  0  0  0  0  0  0  0
   30.3640    8.7600   40.7240 C   0  0  0  0  0  0  0  0  0  0  0  0
   30.1510    9.8900   40.2850 O   0  0  0  0  0  0  0  0  0  0  0  0
   30.4190    7.6100   39.9180 N   0  0  0  0  0  0  0  0  0  0  0  0
   31.6340    7.1590   39.3160 C   0  0  0  0  0  0  0  0  0  0  0  0
   32.5260    8.1010   38.7690 C   0  0  0  0  0  0  0  0  0  0  0  0
   33.7320    7.7030   38.1880 C   0  0  0  0  0  0  0  0  0  0  0  0
   34.0690    6.3560   38.1480 C   0  0  0  0  0  0  0  0  0  0  0  0
   33.1890    5.4230   38.6870 C   0  0  0  0  0  0  0  0  0  0  0  0
   33.5070    4.0840   38.6720 O   0  0  0  0  0  0  0  0  0  0  0  0
   31.9560    5.7950   39.2660 C   0  0  0  0  0  0  0  0  0  0  0  0
   31.1760    4.7640   39.8360 N   0  0  0  0  0  0  0  0  0  0  0  0
   29.8070    4.6770   39.9860 C   0  0  0  0  0  0  0  0  0  0  0  0
   28.9040    5.6530   39.7370 C   0  0  0  0  0  0  0  0  0  0  0  0
   29.1530    7.0980   39.3470 C   0  0  2  0  0  0  0  0  0  0  0  0
   28.9980    7.4810   37.8740 C   0  0  0  0  0  0  0  0  0  0  0  0
   29.4620    6.5870   36.8900 C   0  0  0  0  0  0  0  0  0  0  0  0
   29.3210    6.8650   35.5260 C   0  0  0  0  0  0  0  0  0  0  0  0
   28.7160    8.0490   35.1110 C   0  0  0  0  0  0  0  0  0  0  0  0
   28.5060    8.4420   33.8190 O   0  0  0  0  0  0  0  0  0  0  0  0
   28.5030    9.8430   33.5270 C   0  0  0  0  0  0  0  0  0  0  0  0
   27.6410   10.2030   32.3370 C   0  0  0  0  0  0  0  0  0  0  0  0
   27.0070   11.4500   32.2500 C   0  0  0  0  0  0  0  0  0  0  0  0
   26.2370   11.7790   31.1330 C   0  0  0  0  0  0  0  0  0  0  0  0
   26.1020   10.8710   30.0860 C   0  0  0  0  0  0  0  0  0  0  0  0
   26.7390    9.6340   30.1530 C   0  0  0  0  0  0  0  0  0  0  0  0
   27.5100    9.3030   31.2690 C   0  0  0  0  0  0  0  0  0  0  0  0
   28.2440    8.9390   36.0740 C   0  0  0  0  0  0  0  0  0  0  0  0
   28.3880    8.6560   37.4330 C   0  0  0  0  0  0  0  0  0  0  0  0
   27.9230    9.5620   38.3030 F   0  0  0  0  0  0  0  0  0  0  0  0
   27.2180    5.2180   39.8910 S   0  0  0  0  0  0  0  0  0  0  0  0
   26.3910    6.1220   39.1150 O   0  0  0  0  0  0  0  0  0  0  0  0
   26.9030    4.9680   41.2850 O   0  0  0  0  0  0  0  0  0  0  0  0
   27.1960    3.6560   39.0370 C   0  0  0  0  0  0  0  0  0  0  0  0
   28.2500    2.6510   39.5480 C   0  0  0  0  0  0  0  0  0  0  0  0
   27.5500    1.5410   40.3560 C   0  0  0  0  0  0  0  0  0  0  0  0
   28.9350    1.9930   38.3330 C   0  0  0  0  0  0  0  0  0  0  0  0
   29.3250    3.3050   40.4520 C   0  0  0  0  0  0  0  0  0  0  0  0
   30.9280    7.3770   42.6340 N   0  0  0  0  0  0  0  0  0  0  0  0
   31.5670    5.8580   45.5448 H   0  0  0  0  0  0  0  0  0  0  0  0
   30.9099    5.0721   44.0693 H   0  0  0  0  0  0  0  0  0  0  0  0
   32.5829    5.7262   44.0693 H   0  0  0  0  0  0  0  0  0  0  0  0
   30.8061    8.0054   45.9696 H   0  0  0  0  0  0  0  0  0  0  0  0
   29.9625   10.2120   45.1337 H   0  0  0  0  0  0  0  0  0  0  0  0
   29.7529   10.5824   42.6589 H   0  0  0  0  0  0  0  0  0  0  0  0
   32.2683    9.1699   38.7998 H   0  0  0  0  0  0  0  0  0  0  0  0
   34.4136    8.4546   37.7630 H   0  0  0  0  0  0  0  0  0  0  0  0
   35.0182    6.0316   37.6965 H   0  0  0  0  0  0  0  0  0  0  0  0
   34.2970    3.9650   38.1190 H   0  0  0  0  0  0  0  0  0  0  0  0
   31.6610    3.8700   39.7260 H   0  0  0  0  0  0  0  0  0  0  0  0
   28.2989    7.6136   39.8104 H   0  0  0  0  0  0  0  0  0  0  0  0
   29.9460    5.6493   37.2005 H   0  0  0  0  0  0  0  0  0  0  0  0
   29.6891    6.1463   34.7790 H   0  0  0  0  0  0  0  0  0  0  0  0
   28.1254   10.3827   34.4080 H   0  0  0  0  0  0  0  0  0  0  0  0
   29.5364   10.1270   33.2793 H   0  0  0  0  0  0  0  0  0  0  0  0
   27.1171   12.1759   33.0691 H   0  0  0  0  0  0  0  0  0  0  0  0
   25.7362   12.7569   31.0799 H   0  0  0  0  0  0  0  0  0  0  0  0
   25.4932   11.1301   29.2072 H   0  0  0  0  0  0  0  0  0  0  0  0
   26.6344    8.9169   29.3255 H   0  0  0  0  0  0  0  0  0  0  0  0
   28.0188    8.3286   31.3111 H   0  0  0  0  0  0  0  0  0  0  0  0
   27.7538    9.8724   35.7603 H   0  0  0  0  0  0  0  0  0  0  0  0
   26.1997    3.2068   39.1615 H   0  0  0  0  0  0  0  0  0  0  0  0
   27.4359    3.8637   37.9838 H   0  0  0  0  0  0  0  0  0  0  0  0
   27.6735    1.7368   41.4314 H   0  0  0  0  0  0  0  0  0  0  0  0
   26.4787    1.5260   40.1067 H   0  0  0  0  0  0  0  0  0  0  0  0
   27.9981    0.5678   40.1067 H   0  0  0  0  0  0  0  0  0  0  0  0
   29.6871    1.2705   38.6829 H   0  0  0  0  0  0  0  0  0  0  0  0
   28.1811    1.4718   37.7248 H   0  0  0  0  0  0  0  0  0  0  0  0
   29.4254    2.7673   37.7248 H   0  0  0  0  0  0  0  0  0  0  0  0
   28.9017    3.4159   41.4612 H   0  0  0  0  0  0  0  0  0  0  0  0
   30.2019    2.6417   40.4189 H   0  0  0  0  0  0  0  0  0  0  0  0
  1  2  1  0
  2  3  2  0
  3  4  1  0
  4  5  2  0
  5  6  1  0
  6  7  1  0
  7  8  2  0
  7  9  1  0
  9 10  1  0
 10 11  2  0
 11 12  1  0
 12 13  2  0
 13 14  1  0
 14 15  1  0
 14 16  2  0
 16 17  1  0
 17 18  1  0
 18 19  2  0
 19 20  1  0
 20 21  1  0
 21 22  2  0
 22 23  1  0
 23 24  2  0
 24 25  1  0
 25 26  1  0
 26 27  1  0
 27 28  2  0
 28 29  1  0
 29 30  2  0
 30 31  1  0
 31 32  2  0
 24 33  1  0
 33 34  2  0
 34 35  1  0
 19 36  1  0
 36 37  2  0
 36 38  2  0
 36 39  1  0
 39 40  1  0
 40 41  1  0
 40 42  1  0
 40 43  1  0
  6 44  2  0
 44  2  1  0
 20  9  1  0
 34 21  1  0
 16 10  1  0
 43 18  1  0
 32 27  1  0
  1 45  1  0
  1 46  1  0
  1 47  1  0
  3 48  1  0
  4 49  1  0
  5 50  1  0
 11 51  1  0
 12 52  1  0
 13 53  1  0
 15 54  1  0
 17 55  1  0
 20 56  1  1
 22 57  1  0
 23 58  1  0
 26 59  1  0
 26 60  1  0
 28 61  1  0
 29 62  1  0
 30 63  1  0
 31 64  1  0
 32 65  1  0
 33 66  1  0
 39 67  1  0
 39 68  1  0
 41 69  1  0
 41 70  1  0
 41 71  1  0
 42 72  1  0
 42 73  1  0
 42 74  1  0
 43 75  1  0
 43 76  1  0
M  END
>  <meeko>  (1) 
{"is_sidechain": [false], "free_energy": -8.82, "intermolecular_energy": -14.234, "internal_energy": -1.14}

$$$$
3gnw_ligand
     RDKit          3D

 76 81  0  0  0  0  0  0  0  0999 V2000
   26.4700   -0.1010   38.7400 C   0  0  0  0  0  0  0  0  0  0  0  0
   25.6720    0.8620   37.9140 C   0  0  0  0  0  0  0  0  0  0  0  0
   24.6300    0.4020   37.1130 C   0  0  0  0  0  0  0  0  0  0  0  0
   23.8960    1.3160   36.3620 C   0  0  0  0  0  0  0  0  0  0  0  0
   24.2200    2.6650   36.4280 C   0  0  0  0  0  0  0  0  0  0  0  0
   25.2800    3.0420   37.2450 C   0  0  0  0  0  0  0  0  0  0  0  0
   25.6610    4.4850   37.3580 C   0  0  0  0  0  0  0  0  0  0  0  0
   24.7750    5.3320   37.2560 O   0  0  0  0  0  0  0  0  0  0  0  0
   27.0270    4.7970   37.4740 N   0  0  0  0  0  0  0  0  0  0  0  0
   27.5070    5.7850   38.3880 C   0  0  0  0  0  0  0  0  0  0  0  0
   26.7830    6.9820   38.5550 C   0  0  0  0  0  0  0  0  0  0  0  0
   27.2090    7.9650   39.4510 C   0  0  0  0  0  0  0  0  0  0  0  0
   28.3630    7.7660   40.2000 C   0  0  0  0  0  0  0  0  0  0  0  0
   29.0780    6.5840   40.0370 C   0  0  0  0  0  0  0  0  0  0  0  0
   30.2160    6.3580   40.7780 O   0  0  0  0  0  0  0  0  0  0  0  0
   28.6810    5.5800   39.1270 C   0  0  0  0  0  0  0  0  0  0  0  0
   29.4540    4.3990   39.0940 N   0  0  0  0  0  0  0  0  0  0  0  0
   29.6790    3.5220   38.0520 C   0  0  0  0  0  0  0  0  0  0  0  0
   29.0780    3.5370   36.8410 C   0  0  0  0  0  0  0  0  0  0  0  0
   27.9270    4.4110   36.3650 C   0  0  2  0  0  0  0  0  0  0  0  0
   28.2750    5.6040   35.4740 C   0  0  0  0  0  0  0  0  0  0  0  0
   29.4070    6.3790   35.7910 C   0  0  0  0  0  0  0  0  0  0  0  0
   29.7950    7.4640   34.9960 C   0  0  0  0  0  0  0  0  0  0  0  0
   29.0570    7.8040   33.8660 C   0  0  0  0  0  0  0  0  0  0  0  0
   29.3260    8.8270   33.0010 O   0  0  0  0  0  0  0  0  0  0  0  0
   28.6620   10.0790   33.2000 C   0  0  0  0  0  0  0  0  0  0  0  0
   27.7420   10.4550   32.0600 C   0  0  0  0  0  0  0  0  0  0  0  0
   27.7110    9.7070   30.8740 C   0  0  0  0  0  0  0  0  0  0  0  0
   26.8370   10.0500   29.8410 C   0  0  0  0  0  0  0  0  0  0  0  0
   25.9760   11.1350   29.9860 C   0  0  0  0  0  0  0  0  0  0  0  0
   25.9850   11.8770   31.1660 C   0  0  0  0  0  0  0  0  0  0  0  0
   26.8590   11.5360   32.2000 C   0  0  0  0  0  0  0  0  0  0  0  0
   27.9380    7.0410   33.5350 C   0  0  0  0  0  0  0  0  0  0  0  0
   27.5560    5.9610   34.3310 C   0  0  0  0  0  0  0  0  0  0  0  0
   26.4640    5.2790   33.9600 F   0  0  0  0  0  0  0  0  0  0  0  0
   29.6560    2.3810   35.6650 S   0  0  0  0  0  0  0  0  0  0  0  0
   29.3440    2.8290   34.3220 O   0  0  0  0  0  0  0  0  0  0  0  0
   29.2950    1.0390   36.0810 O   0  0  0  0  0  0  0  0  0  0  0  0
   31.4170    2.5590   35.8590 C   0  0  0  0  0  0  0  0  0  0  0  0
   31.9010    2.4090   37.3170 C   0  0  0  0  0  0  0  0  0  0  0  0
   32.6220    1.0570   37.4810 C   0  0  0  0  0  0  0  0  0  0  0  0
   32.9200    3.5290   37.6150 C   0  0  0  0  0  0  0  0  0  0  0  0
   30.7490    2.4740   38.3500 C   0  0  0  0  0  0  0  0  0  0  0  0
   26.0110    2.1700   37.9900 N   0  0  0  0  0  0  0  0  0  0  0  0
   26.3005    0.1035   39.8075 H   0  0  0  0  0  0  0  0  0  0  0  0
   26.1560   -1.1297   38.5094 H   0  0  0  0  0  0  0  0  0  0  0  0
   27.5391    0.0164   38.5094 H   0  0  0  0  0  0  0  0  0  0  0  0
   24.3897   -0.6707   37.0741 H   0  0  0  0  0  0  0  0  0  0  0  0
   23.0685    0.9735   35.7233 H   0  0  0  0  0  0  0  0  0  0  0  0
   23.6552    3.4124   35.8515 H   0  0  0  0  0  0  0  0  0  0  0  0
   25.8662    7.1452   37.9695 H   0  0  0  0  0  0  0  0  0  0  0  0
   26.6324    8.8950   39.5638 H   0  0  0  0  0  0  0  0  0  0  0  0
   28.7057    8.5320   40.9112 H   0  0  0  0  0  0  0  0  0  0  0  0
   30.0080    6.5210   41.7120 H   0  0  0  0  0  0  0  0  0  0  0  0
   30.2130    4.4710   39.7770 H   0  0  0  0  0  0  0  0  0  0  0  0
   27.3885    3.7422   35.6775 H   0  0  0  0  0  0  0  0  0  0  0  0
   29.9994    6.1264   36.6828 H   0  0  0  0  0  0  0  0  0  0  0  0
   30.6862    8.0498   35.2653 H   0  0  0  0  0  0  0  0  0  0  0  0
   28.0668   10.0159   34.1229 H   0  0  0  0  0  0  0  0  0  0  0  0
   29.4396   10.8546   33.2610 H   0  0  0  0  0  0  0  0  0  0  0  0
   28.3812    8.8426   30.7568 H   0  0  0  0  0  0  0  0  0  0  0  0
   26.8283    9.4624   28.9111 H   0  0  0  0  0  0  0  0  0  0  0  0
   25.2896   11.4061   29.1703 H   0  0  0  0  0  0  0  0  0  0  0  0
   25.3029   12.7320   31.2826 H   0  0  0  0  0  0  0  0  0  0  0  0
   26.8552   12.1199   33.1322 H   0  0  0  0  0  0  0  0  0  0  0  0
   27.3517    7.2927   32.6390 H   0  0  0  0  0  0  0  0  0  0  0  0
   31.9128    1.7902   35.2481 H   0  0  0  0  0  0  0  0  0  0  0  0
   31.6731    3.5800   35.5397 H   0  0  0  0  0  0  0  0  0  0  0  0
   32.7416    0.8327   38.5512 H   0  0  0  0  0  0  0  0  0  0  0  0
   32.0270    0.2640   37.0044 H   0  0  0  0  0  0  0  0  0  0  0  0
   33.6120    1.1092   37.0044 H   0  0  0  0  0  0  0  0  0  0  0  0
   33.0273    3.6470   38.7034 H   0  0  0  0  0  0  0  0  0  0  0  0
   33.8938    3.2648   37.1770 H   0  0  0  0  0  0  0  0  0  0  0  0
   32.5652    4.4736   37.1770 H   0  0  0  0  0  0  0  0  0  0  0  0
   30.2624    1.4880   38.3822 H   0  0  0  0  0  0  0  0  0  0  0  0
   31.2076    2.7636   39.3070 H   0  0  0  0  0  0  0  0  0  0  0  0
  1  2  1  0
  2  3  2  0
  3  4  1  0
  4  5  2  0
  5  6  1  0
  6  7  1  0
  7  8  2  0
  7  9  1  0
  9 10  1  0
 10 11  2  0
 11 12  1  0
 12 13  2  0
 13 14  1  0
 14 15  1  0
 14 16  2  0
 16 17  1  0
 17 18  1  0
 18 19  2  0
 19 20  1  0
 20 21  1  0
 21 22  2  0
 22 23  1  0
 23 24  2  0
 24 25  1  0
 25 26  1  0
 26 27  1  0
 27 28  2  0
 28 29  1  0
 29 30  2  0
 30 31  1  0
 31 32  2  0
 24 33  1  0
 33 34  2  0
 34 35  1  0
 19 36  1  0
 36 37  2  0
 36 38  2  0
 36 39  1  0
 39 40  1  0
 40 41  1  0
 40 42  1  0
 40 43  1  0
  6 44  2  0
 44  2  1  0
 20  9  1  0
 34 21  1  0
 16 10  1  0
 43 18  1  0
 32 27  1  0
  1 45  1  0
  1 46  1  0
  1 47  1  0
  3 48  1  0
  4 49  1  0
  5 50  1  0
 11 51  1  0
 12 52  1  0
 13 53  1  0
 15 54  1  0
 17 55  1  0
 20 56  1  6
 22 57  1  0
 23 58  1  0
 26 59  1  0
 26 60  1  0
 28 61  1  0
 29 62  1  0
 30 63  1  0
 31 64  1  0
 32 65  1  0
 33 66  1  0
 39 67  1  0
 39 68  1  0
 41 69  1  0
 41 70  1  0
 41 71  1  0
 42 72  1  0
 42 73  1  0
 42 74  1  0
 43 75  1  0
 43 76  1  0
M  END
>  <meeko>  (2) 
{"is_sidechain": [false], "free_energy": -8.588, "intermolecular_energy": -14.119, "internal_energy": -0.88}

$$$$
3gnw_ligand
     RDKit          3D

 76 81  0  0  0  0  0  0  0  0999 V2000
   24.2150    1.0340   37.2100 C   0  0  0  0  0  0  0  0  0  0  0  0
   24.8790    1.9450   36.2210 C   0  0  0  0  0  0  0  0  0  0  0  0
   25.5140    1.4180   35.1000 C   0  0  0  0  0  0  0  0  0  0  0  0
   26.1150    2.2840   34.1910 C   0  0  0  0  0  0  0  0  0  0  0  0
   26.0670    3.6530   34.4220 C   0  0  0  0  0  0  0  0  0  0  0  0
   25.4190    4.0980   35.5690 C   0  0  0  0  0  0  0  0  0  0  0  0
   25.3320    5.5640   35.8570 C   0  0  0  0  0  0  0  0  0  0  0  0
   24.2330    6.1120   35.7660 O   0  0  0  0  0  0  0  0  0  0  0  0
   26.5270    6.2560   36.1170 N   0  0  0  0  0  0  0  0  0  0  0  0
   27.0890    7.1830   35.1870 C   0  0  0  0  0  0  0  0  0  0  0  0
   27.0690    6.8800   33.8110 C   0  0  0  0  0  0  0  0  0  0  0  0
   27.5920    7.7680   32.8680 C   0  0  0  0  0  0  0  0  0  0  0  0
   28.1390    8.9760   33.2830 C   0  0  0  0  0  0  0  0  0  0  0  0
   28.1600    9.2760   34.6410 C   0  0  0  0  0  0  0  0  0  0  0  0
   28.6840   10.4730   35.0760 O   0  0  0  0  0  0  0  0  0  0  0  0
   27.6540    8.3920   35.6190 C   0  0  0  0  0  0  0  0  0  0  0  0
   27.6740    8.8350   36.9600 N   0  0  0  0  0  0  0  0  0  0  0  0
   27.7480    8.1030   38.1270 C   0  0  0  0  0  0  0  0  0  0  0  0
   27.6970    6.7560   38.2400 C   0  0  0  0  0  0  0  0  0  0  0  0
   27.4270    5.7220   37.1630 C   0  0  2  0  0  0  0  0  0  0  0  0
   28.6220    4.9820   36.5620 C   0  0  0  0  0  0  0  0  0  0  0  0
   29.6300    5.7300   35.9240 C   0  0  0  0  0  0  0  0  0  0  0  0
   30.7640    5.1140   35.3810 C   0  0  0  0  0  0  0  0  0  0  0  0
   30.9160    3.7320   35.4590 C   0  0  0  0  0  0  0  0  0  0  0  0
   31.9700    3.0040   34.9830 O   0  0  0  0  0  0  0  0  0  0  0  0
   32.1920    1.6970   35.5210 C   0  0  0  0  0  0  0  0  0  0  0  0
   33.3500    1.6410   36.4930 C   0  0  0  0  0  0  0  0  0  0  0  0
   33.4060    0.6680   37.5010 C   0  0  0  0  0  0  0  0  0  0  0  0
   34.4930    0.6110   38.3740 C   0  0  0  0  0  0  0  0  0  0  0  0
   35.5420    1.5170   38.2410 C   0  0  0  0  0  0  0  0  0  0  0  0
   35.5070    2.4790   37.2340 C   0  0  0  0  0  0  0  0  0  0  0  0
   34.4200    2.5380   36.3600 C   0  0  0  0  0  0  0  0  0  0  0  0
   29.9290    2.9790   36.0950 C   0  0  0  0  0  0  0  0  0  0  0  0
   28.8020    3.5990   36.6340 C   0  0  0  0  0  0  0  0  0  0  0  0
   27.8890    2.8130   37.2200 F   0  0  0  0  0  0  0  0  0  0  0  0
   27.9480    6.0940   39.8380 S   0  0  0  0  0  0  0  0  0  0  0  0
   28.3930    4.7170   39.7490 O   0  0  0  0  0  0  0  0  0  0  0  0
   26.8260    6.4370   40.6920 O   0  0  0  0  0  0  0  0  0  0  0  0
   29.3540    7.0440   40.3770 C   0  0  0  0  0  0  0  0  0  0  0  0
   29.1610    8.5700   40.2500 C   0  0  0  0  0  0  0  0  0  0  0  0
   28.9660    9.1800   41.6520 C   0  0  0  0  0  0  0  0  0  0  0  0
   30.4400    9.1810   39.6410 C   0  0  0  0  0  0  0  0  0  0  0  0
   27.9410    8.9580   39.3780 C   0  0  0  0  0  0  0  0  0  0  0  0
   24.8240    3.2740   36.4710 N   0  0  0  0  0  0  0  0  0  0  0  0
   24.4555    1.3640   38.2314 H   0  0  0  0  0  0  0  0  0  0  0  0
   23.1254    1.0639   37.0620 H   0  0  0  0  0  0  0  0  0  0  0  0
   24.5770    0.0059   37.0620 H   0  0  0  0  0  0  0  0  0  0  0  0
   25.5405    0.3308   34.9346 H   0  0  0  0  0  0  0  0  0  0  0  0
   26.6227    1.8884   33.2989 H   0  0  0  0  0  0  0  0  0  0  0  0
   26.5274    4.3631   33.7193 H   0  0  0  0  0  0  0  0  0  0  0  0
   26.6340    5.9277   33.4736 H   0  0  0  0  0  0  0  0  0  0  0  0
   27.5708    7.5113   31.7986 H   0  0  0  0  0  0  0  0  0  0  0  0
   28.5493    9.6846   32.5484 H   0  0  0  0  0  0  0  0  0  0  0  0
   28.6010   10.5080   36.0430 H   0  0  0  0  0  0  0  0  0  0  0  0
   28.0880    9.7690   37.0020 H   0  0  0  0  0  0  0  0  0  0  0  0
   26.9227    4.9207   37.7230 H   0  0  0  0  0  0  0  0  0  0  0  0
   29.5242    6.8224   35.8506 H   0  0  0  0  0  0  0  0  0  0  0  0
   31.5375    5.7238   34.8911 H   0  0  0  0  0  0  0  0  0  0  0  0
   31.2799    1.3751   36.0450 H   0  0  0  0  0  0  0  0  0  0  0  0
   32.4403    1.0347   34.6785 H   0  0  0  0  0  0  0  0  0  0  0  0
   32.5854   -0.0572   37.6045 H   0  0  0  0  0  0  0  0  0  0  0  0
   34.5213   -0.1501   39.1677 H   0  0  0  0  0  0  0  0  0  0  0  0
   36.3978    1.4731   38.9307 H   0  0  0  0  0  0  0  0  0  0  0  0
   36.3369    3.1930   37.1274 H   0  0  0  0  0  0  0  0  0  0  0  0
   34.4025    3.2938   35.5609 H   0  0  0  0  0  0  0  0  0  0  0  0
   30.0404    1.8874   36.1721 H   0  0  0  0  0  0  0  0  0  0  0  0
   29.5491    6.8059   41.4331 H   0  0  0  0  0  0  0  0  0  0  0  0
   30.1945    6.7719   39.7216 H   0  0  0  0  0  0  0  0  0  0  0  0
   29.2069    8.4266   42.4164 H   0  0  0  0  0  0  0  0  0  0  0  0
   29.6315   10.0479   41.7701 H   0  0  0  0  0  0  0  0  0  0  0  0
   27.9205    9.5009   41.7701 H   0  0  0  0  0  0  0  0  0  0  0  0
   31.1134    9.5027   40.4491 H   0  0  0  0  0  0  0  0  0  0  0  0
   30.9464    8.4276   39.0198 H   0  0  0  0  0  0  0  0  0  0  0  0
   30.1721   10.0484   39.0198 H   0  0  0  0  0  0  0  0  0  0  0  0
   27.0360    8.8678   39.9967 H   0  0  0  0  0  0  0  0  0  0  0  0
   28.1266    9.9834   39.0258 H   0  0  0  0  0  0  0  0  0  0  0  0
  1  2  1  0
  2  3  2  0
  3  4  1  0
  4  5  2  0
  5  6  1  0
  6  7  1  0
  7  8  2  0
  7  9  1  0
  9 10  1  0
 10 11  2  0
 11 12  1  0
 12 13  2  0
 13 14  1  0
 14 15  1  0
 14 16  2  0
 16 17  1  0
 17 18  1  0
 18 19  2  0
 19 20  1  0
 20 21  1  0
 21 22  2  0
 22 23  1  0
 23 24  2  0
 24 25  1  0
 25 26  1  0
 26 27  1  0
 27 28  2  0
 28 29  1  0
 29 30  2  0
 30 31  1  0
 31 32  2  0
 24 33  1  0
 33 34  2  0
 34 35  1  0
 19 36  1  0
 36 37  2  0
 36 38  2  0
 36 39  1  0
 39 40  1  0
 40 41  1  0
 40 42  1  0
 40 43  1  0
  6 44  2  0
 44  2  1  0
 20  9  1  0
 34 21  1  0
 16 10  1  0
 43 18  1  0
 32 27  1  0
  1 45  1  0
  1 46  1  0
  1 47  1  0
  3 48  1  0
  4 49  1  0
  5 50  1  0
 11 51  1  0
 12 52  1  0
 13 53  1  0
 15 54  1  0
 17 55  1  0
 20 56  1  1
 22 57  1  0
 23 58  1  0
 26 59  1  0
 26 60  1  0
 28 61  1  0
 29 62  1  0
 30 63  1  0
 31 64  1  0
 32 65  1  0
 33 66  1  0
 39 67  1  0
 39 68  1  0
 41 69  1  0
 41 70  1  0
 41 71  1  0
 42 72  1  0
 42 73  1  0
 42 74  1  0
 43 75  1  0
 43 76  1  0
M  END
>  <meeko>  (3) 
{"is_sidechain": [false], "free_energy": -8.566, "intermolecular_energy": -13.708, "internal_energy": -1.257}

$$$$
3gnw_ligand
     RDKit          3D

 76 81  0  0  0  0  0  0  0  0999 V2000
   32.3200    8.8710   39.1440 C   0  0  0  0  0  0  0  0  0  0  0  0
   31.0020    8.2840   39.5530 C   0  0  0  0  0  0  0  0  0  0  0  0
   30.0080    9.1000   40.0880 C   0  0  0  0  0  0  0  0  0  0  0  0
   28.7890    8.5340   40.4510 C   0  0  0  0  0  0  0  0  0  0  0  0
   28.5930    7.1700   40.2730 C   0  0  0  0  0  0  0  0  0  0  0  0
   29.6380    6.4250   39.7400 C   0  0  0  0  0  0  0  0  0  0  0  0
   29.4710    4.9540   39.5190 C   0  0  0  0  0  0  0  0  0  0  0  0
   29.7590    4.1900   40.4400 O   0  0  0  0  0  0  0  0  0  0  0  0
   29.0890    4.5210   38.2380 N   0  0  0  0  0  0  0  0  0  0  0  0
   30.0050    3.8830   37.3460 C   0  0  0  0  0  0  0  0  0  0  0  0
   31.3260    4.3640   37.2510 C   0  0  0  0  0  0  0  0  0  0  0  0
   32.2560    3.7580   36.4040 C   0  0  0  0  0  0  0  0  0  0  0  0
   31.8850    2.6580   35.6410 C   0  0  0  0  0  0  0  0  0  0  0  0
   30.5800    2.1820   35.7330 C   0  0  0  0  0  0  0  0  0  0  0  0
   30.1920    1.0850   34.9980 O   0  0  0  0  0  0  0  0  0  0  0  0
   29.6140    2.7840   36.5680 C   0  0  0  0  0  0  0  0  0  0  0  0
   28.3410    2.1740   36.6230 N   0  0  0  0  0  0  0  0  0  0  0  0
   27.1090    2.7310   36.8940 C   0  0  0  0  0  0  0  0  0  0  0  0
   26.8680    4.0000   37.2970 C   0  0  0  0  0  0  0  0  0  0  0  0
   27.8600    5.0930   37.6470 C   0  0  2  0  0  0  0  0  0  0  0  0
   28.1770    6.1490   36.5870 C   0  0  0  0  0  0  0  0  0  0  0  0
   28.3430    7.4870   36.9930 C   0  0  0  0  0  0  0  0  0  0  0  0
   28.6650    8.4940   36.0760 C   0  0  0  0  0  0  0  0  0  0  0  0
   28.8230    8.1890   34.7270 C   0  0  0  0  0  0  0  0  0  0  0  0
   29.1430    9.0660   33.7300 O   0  0  0  0  0  0  0  0  0  0  0  0
   28.4670   10.3270   33.6890 C   0  0  0  0  0  0  0  0  0  0  0  0
   27.6000   10.5000   32.4620 C   0  0  0  0  0  0  0  0  0  0  0  0
   26.8610   11.6740   32.2540 C   0  0  0  0  0  0  0  0  0  0  0  0
   26.0870   11.8320   31.1040 C   0  0  0  0  0  0  0  0  0  0  0  0
   26.0530   10.8240   30.1420 C   0  0  0  0  0  0  0  0  0  0  0  0
   26.7950    9.6600   30.3280 C   0  0  0  0  0  0  0  0  0  0  0  0
   27.5700    9.5000   31.4790 C   0  0  0  0  0  0  0  0  0  0  0  0
   28.6690    6.8670   34.3120 C   0  0  0  0  0  0  0  0  0  0  0  0
   28.3490    5.8670   35.2300 C   0  0  0  0  0  0  0  0  0  0  0  0
   28.2040    4.6220   34.7600 F   0  0  0  0  0  0  0  0  0  0  0  0
   25.1910    4.4710   37.4390 S   0  0  0  0  0  0  0  0  0  0  0  0
   25.0630    5.9130   37.3470 O   0  0  0  0  0  0  0  0  0  0  0  0
   24.5750    3.7610   38.5440 O   0  0  0  0  0  0  0  0  0  0  0  0
   24.5270    3.8080   35.9260 C   0  0  0  0  0  0  0  0  0  0  0  0
   24.8410    2.3120   35.7110 C   0  0  0  0  0  0  0  0  0  0  0  0
   23.5610    1.4830   35.9340 C   0  0  0  0  0  0  0  0  0  0  0  0
   25.2890    2.1070   34.2490 C   0  0  0  0  0  0  0  0  0  0  0  0
   25.9380    1.7780   36.6640 C   0  0  0  0  0  0  0  0  0  0  0  0
   30.8360    6.9530   39.3760 N   0  0  0  0  0  0  0  0  0  0  0  0
   32.9006    9.1296   40.0418 H   0  0  0  0  0  0  0  0  0  0  0  0
   32.8785    8.1365   38.5451 H   0  0  0  0  0  0  0  0  0  0  0  0
   32.1477    9.7774   38.5451 H   0  0  0  0  0  0  0  0  0  0  0  0
   30.1839   10.1776   40.2219 H   0  0  0  0  0  0  0  0  0  0  0  0
   27.9895    9.1599   40.8742 H   0  0  0  0  0  0  0  0  0  0  0  0
   27.6394    6.6942   40.5457 H   0  0  0  0  0  0  0  0  0  0  0  0
   31.6299    5.2320   37.8546 H   0  0  0  0  0  0  0  0  0  0  0  0
   33.2814    4.1512   36.3410 H   0  0  0  0  0  0  0  0  0  0  0  0
   32.6114    2.1704   34.9742 H   0  0  0  0  0  0  0  0  0  0  0  0
   30.7230    0.3230   35.2840 H   0  0  0  0  0  0  0  0  0  0  0  0
   28.3270    1.3620   36.0010 H   0  0  0  0  0  0  0  0  0  0  0  0
   27.3124    5.6868   38.3937 H   0  0  0  0  0  0  0  0  0  0  0  0
   28.2168    7.7465   38.0545 H   0  0  0  0  0  0  0  0  0  0  0  0
   28.7937    9.5301   36.4224 H   0  0  0  0  0  0  0  0  0  0  0  0
   27.8298   10.4110   34.5817 H   0  0  0  0  0  0  0  0  0  0  0  0
   29.2388   11.1101   33.6563 H   0  0  0  0  0  0  0  0  0  0  0  0
   26.8920   12.4775   33.0046 H   0  0  0  0  0  0  0  0  0  0  0  0
   25.5033   12.7526   30.9565 H   0  0  0  0  0  0  0  0  0  0  0  0
   25.4407   10.9476   29.2366 H   0  0  0  0  0  0  0  0  0  0  0  0
   26.7706    8.8657   29.5674 H   0  0  0  0  0  0  0  0  0  0  0  0
   28.1614    8.5826   31.6155 H   0  0  0  0  0  0  0  0  0  0  0  0
   28.8011    6.6102   33.2506 H   0  0  0  0  0  0  0  0  0  0  0  0
   23.4344    3.9343   35.9420 H   0  0  0  0  0  0  0  0  0  0  0  0
   25.0021    4.3572   35.0997 H   0  0  0  0  0  0  0  0  0  0  0  0
   23.3824    1.3673   37.0132 H   0  0  0  0  0  0  0  0  0  0  0  0
   22.7053    1.9988   35.4740 H   0  0  0  0  0  0  0  0  0  0  0  0
   23.6817    0.4911   35.4740 H   0  0  0  0  0  0  0  0  0  0  0  0
   26.2891    1.6493   34.2327 H   0  0  0  0  0  0  0  0  0  0  0  0
   24.5749    1.4460   33.7359 H   0  0  0  0  0  0  0  0  0  0  0  0
   25.3224    3.0794   33.7359 H   0  0  0  0  0  0  0  0  0  0  0  0
   25.4719    1.5679   37.6380 H   0  0  0  0  0  0  0  0  0  0  0  0
   26.3582    0.8837   36.1806 H   0  0  0  0  0  0  0  0  0  0  0  0
  1  2  1  0
  2  3  2  0
  3  4  1  0
  4  5  2  0
  5  6  1  0
  6  7  1  0
  7  8  2  0
  7  9  1  0
  9 10  1  0
 10 11  2  0
 11 12  1  0
 12 13  2  0
 13 14  1  0
 14 15  1  0
 14 16  2  0
 16 17  1  0
 17 18  1  0
 18 19  2  0
 19 20  1  0
 20 21  1  0
 21 22  2  0
 22 23  1  0
 23 24  2  0
 24 25  1  0
 25 26  1  0
 26 27  1  0
 27 28  2  0
 28 29  1  0
 29 30  2  0
 30 31  1  0
 31 32  2  0
 24 33  1  0
 33 34  2  0
 34 35  1  0
 19 36  1  0
 36 37  2  0
 36 38  2  0
 36 39  1  0
 39 40  1  0
 40 41  1  0
 40 42  1  0
 40 43  1  0
  6 44  2  0
 44  2  1  0
 20  9  1  0
 34 21  1  0
 16 10  1  0
 43 18  1  0
 32 27  1  0
  1 45  1  0
  1 46  1  0
  1 47  1  0
  3 48  1  0
  4 49  1  0
  5 50  1  0
 11 51  1  0
 12 52  1  0
 13 53  1  0
 15 54  1  0
 17 55  1  0
 20 56  1  1
 22 57  1  0
 23 58  1  0
 26 59  1  0
 26 60  1  0
 28 61  1  0
 29 62  1  0
 30 63  1  0
 31 64  1  0
 32 65  1  0
 33 66  1  0
 39 67  1  0
 39 68  1  0
 41 69  1  0
 41 70  1  0
 41 71  1  0
 42 72  1  0
 42 73  1  0
 42 74  1  0
 43 75  1  0
 43 76  1  0
M  END
>  <meeko>  (4) 
{"is_sidechain": [false], "free_energy": -8.55, "intermolecular_energy": -14.184, "internal_energy": -0.754}

$$$$
3gnw_ligand
     RDKit          3D

 76 81  0  0  0  0  0  0  0  0999 V2000
   28.3320   -2.9270   40.1270 C   0  0  0  0  0  0  0  0  0  0  0  0
   27.3440   -2.1410   39.3180 C   0  0  0  0  0  0  0  0  0  0  0  0
   25.9770   -2.3160   39.5210 C   0  0  0  0  0  0  0  0  0  0  0  0
   25.0790   -1.5680   38.7650 C   0  0  0  0  0  0  0  0  0  0  0  0
   25.5650   -0.6650   37.8270 C   0  0  0  0  0  0  0  0  0  0  0  0
   26.9430   -0.5560   37.6810 C   0  0  0  0  0  0  0  0  0  0  0  0
   27.5160    0.4100   36.6920 C   0  0  0  0  0  0  0  0  0  0  0  0
   27.5230    0.0920   35.5030 O   0  0  0  0  0  0  0  0  0  0  0  0
   28.1060    1.5850   37.1870 N   0  0  0  0  0  0  0  0  0  0  0  0
   27.3840    2.5190   37.9920 C   0  0  0  0  0  0  0  0  0  0  0  0
   26.0470    2.8230   37.6680 C   0  0  0  0  0  0  0  0  0  0  0  0
   25.3010    3.7160   38.4400 C   0  0  0  0  0  0  0  0  0  0  0  0
   25.8760    4.3170   39.5530 C   0  0  0  0  0  0  0  0  0  0  0  0
   27.1970    4.0190   39.8740 C   0  0  0  0  0  0  0  0  0  0  0  0
   27.7850    4.5910   40.9800 O   0  0  0  0  0  0  0  0  0  0  0  0
   27.9800    3.1320   39.1030 C   0  0  0  0  0  0  0  0  0  0  0  0
   29.2870    2.8610   39.5650 N   0  0  0  0  0  0  0  0  0  0  0  0
   30.4110    2.4890   38.8560 C   0  0  0  0  0  0  0  0  0  0  0  0
   30.4730    2.1920   37.5380 C   0  0  0  0  0  0  0  0  0  0  0  0
   29.3420    2.0720   36.5360 C   0  0  2  0  0  0  0  0  0  0  0  0
   29.0700    3.2610   35.6150 C   0  0  0  0  0  0  0  0  0  0  0  0
   29.2980    4.5620   36.1030 C   0  0  0  0  0  0  0  0  0  0  0  0
   29.0980    5.6900   35.2980 C   0  0  0  0  0  0  0  0  0  0  0  0
   28.6580    5.5440   33.9850 C   0  0  0  0  0  0  0  0  0  0  0  0
   28.4310    6.5520   33.0900 O   0  0  0  0  0  0  0  0  0  0  0  0
   27.5730    7.6280   33.4820 C   0  0  0  0  0  0  0  0  0  0  0  0
   27.8330    8.9080   32.7180 C   0  0  0  0  0  0  0  0  0  0  0  0
   28.7540    9.8570   33.1840 C   0  0  0  0  0  0  0  0  0  0  0  0
   29.0050   11.0200   32.4550 C   0  0  0  0  0  0  0  0  0  0  0  0
   28.3490   11.2420   31.2470 C   0  0  0  0  0  0  0  0  0  0  0  0
   27.4430   10.3000   30.7640 C   0  0  0  0  0  0  0  0  0  0  0  0
   27.1910    9.1350   31.4930 C   0  0  0  0  0  0  0  0  0  0  0  0
   28.4360    4.2620   33.4860 C   0  0  0  0  0  0  0  0  0  0  0  0
   28.6380    3.1420   34.2920 C   0  0  0  0  0  0  0  0  0  0  0  0
   28.3930    1.9410   33.7510 F   0  0  0  0  0  0  0  0  0  0  0  0
   32.0610    1.8790   36.8790 S   0  0  0  0  0  0  0  0  0  0  0  0
   32.0660    2.1040   35.4460 O   0  0  0  0  0  0  0  0  0  0  0  0
   32.5760    0.6330   37.4170 O   0  0  0  0  0  0  0  0  0  0  0  0
   32.9920    3.2120   37.6020 C   0  0  0  0  0  0  0  0  0  0  0  0
   32.8540    3.3090   39.1360 C   0  0  0  0  0  0  0  0  0  0  0  0
   34.1610    2.8320   39.8000 C   0  0  0  0  0  0  0  0  0  0  0  0
   32.6400    4.7880   39.5200 C   0  0  0  0  0  0  0  0  0  0  0  0
   31.6860    2.4590   39.6960 C   0  0  0  0  0  0  0  0  0  0  0  0
   27.8410   -1.2730   38.4070 N   0  0  0  0  0  0  0  0  0  0  0  0
   28.1357   -2.7709   41.1980 H   0  0  0  0  0  0  0  0  0  0  0  0
   28.2334   -3.9962   39.8882 H   0  0  0  0  0  0  0  0  0  0  0  0
   29.3517   -2.5905   39.8882 H   0  0  0  0  0  0  0  0  0  0  0  0
   25.6121   -3.0356   40.2687 H   0  0  0  0  0  0  0  0  0  0  0  0
   23.9953   -1.6904   38.9086 H   0  0  0  0  0  0  0  0  0  0  0  0
   24.8804   -0.0554   37.2190 H   0  0  0  0  0  0  0  0  0  0  0  0
   25.5824    2.3484   36.7911 H   0  0  0  0  0  0  0  0  0  0  0  0
   24.2598    3.9433   38.1674 H   0  0  0  0  0  0  0  0  0  0  0  0
   25.2958    5.0179   40.1712 H   0  0  0  0  0  0  0  0  0  0  0  0
   28.7070    4.2880   41.0250 H   0  0  0  0  0  0  0  0  0  0  0  0
   29.4650    3.3990   40.4160 H   0  0  0  0  0  0  0  0  0  0  0  0
   29.7220    1.3214   35.8273 H   0  0  0  0  0  0  0  0  0  0  0  0
   29.6409    4.6951   37.1397 H   0  0  0  0  0  0  0  0  0  0  0  0
   29.2890    6.6944   35.7040 H   0  0  0  0  0  0  0  0  0  0  0  0
   26.5301    7.3238   33.3095 H   0  0  0  0  0  0  0  0  0  0  0  0
   27.7735    7.8351   34.5436 H   0  0  0  0  0  0  0  0  0  0  0  0
   29.2833    9.6832   34.1325 H   0  0  0  0  0  0  0  0  0  0  0  0
   29.7221   11.7625   32.8351 H   0  0  0  0  0  0  0  0  0  0  0  0
   28.5459   12.1604   30.6744 H   0  0  0  0  0  0  0  0  0  0  0  0
   26.9261   10.4735   29.8087 H   0  0  0  0  0  0  0  0  0  0  0  0
   26.4827    8.3896   31.1022 H   0  0  0  0  0  0  0  0  0  0  0  0
   28.0984    4.1323   32.4471 H   0  0  0  0  0  0  0  0  0  0  0  0
   34.0545    3.0649   37.3582 H   0  0  0  0  0  0  0  0  0  0  0  0
   32.5893    4.1467   37.1848 H   0  0  0  0  0  0  0  0  0  0  0  0
   34.0522    2.8717   40.8939 H   0  0  0  0  0  0  0  0  0  0  0  0
   34.3737    1.7983   39.4899 H   0  0  0  0  0  0  0  0  0  0  0  0
   34.9896    3.4857   39.4899 H   0  0  0  0  0  0  0  0  0  0  0  0
   32.6261    4.8840   40.6157 H   0  0  0  0  0  0  0  0  0  0  0  0
   33.4596    5.3958   39.1090 H   0  0  0  0  0  0  0  0  0  0  0  0
   31.6818    5.1386   39.1090 H   0  0  0  0  0  0  0  0  0  0  0  0
   32.0254    1.4150   39.7655 H   0  0  0  0  0  0  0  0  0  0  0  0
   31.4246    2.8966   40.6708 H   0  0  0  0  0  0  0  0  0  0  0  0
  1  2  1  0
  2  3  2  0
  3  4  1  0
  4  5  2  0
  5  6  1  0
  6  7  1  0
  7  8  2  0
  7  9  1  0
  9 10  1  0
 10 11  2  0
 11 12  1  0
 12 13  2  0
 13 14  1  0
 14 15  1  0
 14 16  2  0
 16 17  1  0
 17 18  1  0
 18 19  2  0
 19 20  1  0
 20 21  1  0
 21 22  2  0
 22 23  1  0
 23 24  2  0
 24 25  1  0
 25 26  1  0
 26 27  1  0
 27 28  2  0
 28 29  1  0
 29 30  2  0
 30 31  1  0
 31 32  2  0
 24 33  1  0
 33 34  2  0
 34 35  1  0
 19 36  1  0
 36 37  2  0
 36 38  2  0
 36 39  1  0
 39 40  1  0
 40 41  1  0
 40 42  1  0
 40 43  1  0
  6 44  2  0
 44  2  1  0
 20  9  1  0
 34 21  1  0
 16 10  1  0
 43 18  1  0
 32 27  1  0
  1 45  1  0
  1 46  1  0
  1 47  1  0
  3 48  1  0
  4 49  1  0
  5 50  1  0
 11 51  1  0
 12 52  1  0
 13 53  1  0
 15 54  1  0
 17 55  1  0
 20 56  1  6
 22 57  1  0
 23 58  1  0
 26 59  1  0
 26 60  1  0
 28 61  1  0
 29 62  1  0
 30 63  1  0
 31 64  1  0
 32 65  1  0
 33 66  1  0
 39 67  1  0
 39 68  1  0
 41 69  1  0
 41 70  1  0
 41 71  1  0
 42 72  1  0
 42 73  1  0
 42 74  1  0
 43 75  1  0
 43 76  1  0
M  END
>  <meeko>  (5) 
{"is_sidechain": [false], "free_energy": -8.236, "intermolecular_energy": -13.601, "internal_energy": -0.83}

$$$$
3gnw_ligand
     RDKit          3D

 76 81  0  0  0  0  0  0  0  0999 V2000
   32.0930    8.1000   42.9250 C   0  0  0  0  0  0  0  0  0  0  0  0
   31.2270    8.4300   41.7460 C   0  0  0  0  0  0  0  0  0  0  0  0
   31.4190    9.6190   41.0480 C   0  0  0  0  0  0  0  0  0  0  0  0
   30.6100    9.8990   39.9500 C   0  0  0  0  0  0  0  0  0  0  0  0
   29.6320    8.9870   39.5770 C   0  0  0  0  0  0  0  0  0  0  0  0
   29.4990    7.8270   40.3310 C   0  0  0  0  0  0  0  0  0  0  0  0
   28.4660    6.8090   39.9620 C   0  0  0  0  0  0  0  0  0  0  0  0
   27.5490    6.5950   40.7540 O   0  0  0  0  0  0  0  0  0  0  0  0
   28.6560    6.0800   38.7750 N   0  0  0  0  0  0  0  0  0  0  0  0
   29.9260    5.5410   38.4070 C   0  0  0  0  0  0  0  0  0  0  0  0
   31.0910    6.3030   38.6260 C   0  0  0  0  0  0  0  0  0  0  0  0
   32.3530    5.8040   38.2970 C   0  0  0  0  0  0  0  0  0  0  0  0
   32.4740    4.5340   37.7480 C   0  0  0  0  0  0  0  0  0  0  0  0
   31.3250    3.7800   37.5310 C   0  0  0  0  0  0  0  0  0  0  0  0
   31.4210    2.5120   37.0020 O   0  0  0  0  0  0  0  0  0  0  0  0
   30.0350    4.2630   37.8390 C   0  0  0  0  0  0  0  0  0  0  0  0
   28.9510    3.3820   37.6310 N   0  0  0  0  0  0  0  0  0  0  0  0
   27.6290    3.6630   37.3550 C   0  0  0  0  0  0  0  0  0  0  0  0
   27.0520    4.8860   37.3270 C   0  0  0  0  0  0  0  0  0  0  0  0
   27.6480    6.2240   37.7010 C   0  0  2  0  0  0  0  0  0  0  0  0
   28.1410    7.1370   36.5780 C   0  0  0  0  0  0  0  0  0  0  0  0
   28.8670    6.5690   35.5140 C   0  0  0  0  0  0  0  0  0  0  0  0
   29.3180    7.3460   34.4400 C   0  0  0  0  0  0  0  0  0  0  0  0
   29.0580    8.7140   34.4070 C   0  0  0  0  0  0  0  0  0  0  0  0
   29.4280    9.5860   33.4230 O   0  0  0  0  0  0  0  0  0  0  0  0
   28.7130   10.8190   33.3010 C   0  0  0  0  0  0  0  0  0  0  0  0
   27.7160   10.8220   32.1630 C   0  0  0  0  0  0  0  0  0  0  0  0
   27.7810    9.8680   31.1380 C   0  0  0  0  0  0  0  0  0  0  0  0
   26.8380    9.8650   30.1090 C   0  0  0  0  0  0  0  0  0  0  0  0
   25.8130   10.8080   30.1000 C   0  0  0  0  0  0  0  0  0  0  0  0
   25.7270   11.7520   31.1210 C   0  0  0  0  0  0  0  0  0  0  0  0
   26.6700   11.7560   32.1510 C   0  0  0  0  0  0  0  0  0  0  0  0
   28.3320    9.2880   35.4500 C   0  0  0  0  0  0  0  0  0  0  0  0
   27.8850    8.5080   36.5170 C   0  0  0  0  0  0  0  0  0  0  0  0
   27.2040    9.1280   37.4900 F   0  0  0  0  0  0  0  0  0  0  0  0
   25.3820    4.9530   36.8170 S   0  0  0  0  0  0  0  0  0  0  0  0
   25.0580    6.2790   36.3260 O   0  0  0  0  0  0  0  0  0  0  0  0
   24.5390    4.3280   37.8190 O   0  0  0  0  0  0  0  0  0  0  0  0
   25.4230    3.8850   35.3940 C   0  0  0  0  0  0  0  0  0  0  0  0
   26.0360    2.4960   35.6750 C   0  0  0  0  0  0  0  0  0  0  0  0
   24.9180    1.4360   35.6940 C   0  0  0  0  0  0  0  0  0  0  0  0
   27.0050    2.1430   34.5270 C   0  0  0  0  0  0  0  0  0  0  0  0
   26.7930    2.4280   37.0250 C   0  0  0  0  0  0  0  0  0  0  0  0
   30.2770    7.5290   41.4050 N   0  0  0  0  0  0  0  0  0  0  0  0
   31.5428    8.3097   43.8542 H   0  0  0  0  0  0  0  0  0  0  0  0
   32.3659    7.0349   42.8928 H   0  0  0  0  0  0  0  0  0  0  0  0
   33.0055    8.7134   42.8928 H   0  0  0  0  0  0  0  0  0  0  0  0
   32.1998   10.3282   41.3599 H   0  0  0  0  0  0  0  0  0  0  0  0
   30.7443   10.8327   39.3842 H   0  0  0  0  0  0  0  0  0  0  0  0
   28.9816    9.1768   38.7104 H   0  0  0  0  0  0  0  0  0  0  0  0
   31.0047    7.3084   39.0638 H   0  0  0  0  0  0  0  0  0  0  0  0
   33.2501    6.4159   38.4724 H   0  0  0  0  0  0  0  0  0  0  0  0
   33.4638    4.1302   37.4885 H   0  0  0  0  0  0  0  0  0  0  0  0
   30.7490    1.9530   37.4270 H   0  0  0  0  0  0  0  0  0  0  0  0
   29.2990    2.4990   37.2500 H   0  0  0  0  0  0  0  0  0  0  0  0
   26.7719    6.7779   38.0694 H   0  0  0  0  0  0  0  0  0  0  0  0
   29.0848    5.4909   35.5266 H   0  0  0  0  0  0  0  0  0  0  0  0
   29.8793    6.8746   33.6198 H   0  0  0  0  0  0  0  0  0  0  0  0
   28.1712   11.0029   34.2405 H   0  0  0  0  0  0  0  0  0  0  0  0
   29.4526   11.6051   33.0886 H   0  0  0  0  0  0  0  0  0  0  0  0
   28.5826    9.1148   31.1447 H   0  0  0  0  0  0  0  0  0  0  0  0
   26.9044    9.1175   29.3047 H   0  0  0  0  0  0  0  0  0  0  0  0
   25.0718   10.8074   29.2872 H   0  0  0  0  0  0  0  0  0  0  0  0
   24.9157   12.4948   31.1158 H   0  0  0  0  0  0  0  0  0  0  0  0
   26.5917   12.4978   32.9595 H   0  0  0  0  0  0  0  0  0  0  0  0
   28.1098   10.3652   35.4314 H   0  0  0  0  0  0  0  0  0  0  0  0
   24.3923    3.7434   35.0368 H   0  0  0  0  0  0  0  0  0  0  0  0
   26.0646    4.3729   34.6455 H   0  0  0  0  0  0  0  0  0  0  0  0
   24.6612    1.1925   36.7355 H   0  0  0  0  0  0  0  0  0  0  0  0
   24.0293    1.8311   35.1800 H   0  0  0  0  0  0  0  0  0  0  0  0
   25.2652    0.5276   35.1800 H   0  0  0  0  0  0  0  0  0  0  0  0
   27.9601    1.7951   34.9473 H   0  0  0  0  0  0  0  0  0  0  0  0
   26.5654    1.3473   33.9077 H   0  0  0  0  0  0  0  0  0  0  0  0
   27.1802    3.0351   33.9077 H   0  0  0  0  0  0  0  0  0  0  0  0
   26.0516    2.2928   37.8263 H   0  0  0  0  0  0  0  0  0  0  0  0
   27.5001    1.5896   36.9410 H   0  0  0  0  0  0  0  0  0  0  0  0
  1  2  1  0
  2  3  2  0
  3  4  1  0
  4  5  2  0
  5  6  1  0
  6  7  1  0
  7  8  2  0
  7  9  1  0
  9 10  1  0
 10 11  2  0
 11 12  1  0
 12 13  2  0
 13 14  1  0
 14 15  1  0
 14 16  2  0
 16 17  1  0
 17 18  1  0
 18 19  2  0
 19 20  1  0
 20 21  1  0
 21 22  2  0
 22 23  1  0
 23 24  2  0
 24 25  1  0
 25 26  1  0
 26 27  1  0
 27 28  2  0
 28 29  1  0
 29 30  2  0
 30 31  1  0
 31 32  2  0
 24 33  1  0
 33 34  2  0
 34 35  1  0
 19 36  1  0
 36 37  2  0
 36 38  2  0
 36 39  1  0
 39 40  1  0
 40 41  1  0
 40 42  1  0
 40 43  1  0
  6 44  2  0
 44  2  1  0
 20  9  1  0
 34 21  1  0
 16 10  1  0
 43 18  1  0
 32 27  1  0
  1 45  1  0
  1 46  1  0
  1 47  1  0
  3 48  1  0
  4 49  1  0
  5 50  1  0
 11 51  1  0
 12 52  1  0
 13 53  1  0
 15 54  1  0
 17 55  1  0
 20 56  1  1
 22 57  1  0
 23 58  1  0
 26 59  1  0
 26 60  1  0
 28 61  1  0
 29 62  1  0
 30 63  1  0
 31 64  1  0
 32 65  1  0
 33 66  1  0
 39 67  1  0
 39 68  1  0
 41 69  1  0
 41 70  1  0
 41 71  1  0
 42 72  1  0
 42 73  1  0
 42 74  1  0
 43 75  1  0
 43 76  1  0
M  END
>  <meeko>  (6) 
{"is_sidechain": [false], "free_energy": -8.165, "intermolecular_energy": -14.096, "internal_energy": -0.221}

$$$$
3gnw_ligand
     RDKit          3D

 76 81  0  0  0  0  0  0  0  0999 V2000
   24.2080    5.8940   35.2140 C   0  0  0  0  0  0  0  0  0  0  0  0
   24.7890    4.7500   35.9890 C   0  0  0  0  0  0  0  0  0  0  0  0
   24.5810    3.4400   35.5650 C   0  0  0  0  0  0  0  0  0  0  0  0
   25.1390    2.3940   36.2940 C   0  0  0  0  0  0  0  0  0  0  0  0
   25.8910    2.6800   37.4270 C   0  0  0  0  0  0  0  0  0  0  0  0
   26.0450    4.0140   37.7870 C   0  0  0  0  0  0  0  0  0  0  0  0
   26.8540    4.3740   38.9940 C   0  0  0  0  0  0  0  0  0  0  0  0
   26.3470    4.2170   40.1040 O   0  0  0  0  0  0  0  0  0  0  0  0
   28.1120    4.9650   38.7890 N   0  0  0  0  0  0  0  0  0  0  0  0
   28.4540    6.2390   39.3390 C   0  0  0  0  0  0  0  0  0  0  0  0
   27.4940    7.2700   39.3450 C   0  0  0  0  0  0  0  0  0  0  0  0
   27.7830    8.5230   39.8890 C   0  0  0  0  0  0  0  0  0  0  0  0
   29.0340    8.7660   40.4420 C   0  0  0  0  0  0  0  0  0  0  0  0
   29.9830    7.7490   40.4370 C   0  0  0  0  0  0  0  0  0  0  0  0
   31.2250    7.9610   40.9920 O   0  0  0  0  0  0  0  0  0  0  0  0
   29.7260    6.4780   39.8800 C   0  0  0  0  0  0  0  0  0  0  0  0
   30.7470    5.5080   39.9900 N   0  0  0  0  0  0  0  0  0  0  0  0
   31.0130    4.4160   39.1890 C   0  0  0  0  0  0  0  0  0  0  0  0
   30.2730    3.9810   38.1440 C   0  0  0  0  0  0  0  0  0  0  0  0
   28.9380    4.4740   37.6640 C   0  0  2  0  0  0  0  0  0  0  0  0
   28.9060    5.4320   36.4730 C   0  0  0  0  0  0  0  0  0  0  0  0
   29.4440    6.7230   36.6280 C   0  0  0  0  0  0  0  0  0  0  0  0
   29.4720    7.6350   35.5660 C   0  0  0  0  0  0  0  0  0  0  0  0
   28.9560    7.2790   34.3230 C   0  0  0  0  0  0  0  0  0  0  0  0
   28.9270    8.0620   33.2030 O   0  0  0  0  0  0  0  0  0  0  0  0
   28.6980    9.4660   33.3610 C   0  0  0  0  0  0  0  0  0  0  0  0
   27.7590   10.0380   32.3220 C   0  0  0  0  0  0  0  0  0  0  0  0
   27.2410   11.3350   32.4460 C   0  0  0  0  0  0  0  0  0  0  0  0
   26.3990   11.8610   31.4660 C   0  0  0  0  0  0  0  0  0  0  0  0
   26.0750   11.1010   30.3440 C   0  0  0  0  0  0  0  0  0  0  0  0
   26.5960    9.8180   30.1990 C   0  0  0  0  0  0  0  0  0  0  0  0
   27.4390    9.2900   31.1800 C   0  0  0  0  0  0  0  0  0  0  0  0
   28.4270    6.0010   34.1520 C   0  0  0  0  0  0  0  0  0  0  0  0
   28.4030    5.0960   35.2140 C   0  0  0  0  0  0  0  0  0  0  0  0
   27.8690    3.8890   34.9830 F   0  0  0  0  0  0  0  0  0  0  0  0
   30.9240    2.6440   37.2260 S   0  0  0  0  0  0  0  0  0  0  0  0
   30.3580    2.6260   35.8910 O   0  0  0  0  0  0  0  0  0  0  0  0
   30.9040    1.4400   38.0350 O   0  0  0  0  0  0  0  0  0  0  0  0
   32.6200    3.1540   37.0480 C   0  0  0  0  0  0  0  0  0  0  0  0
   33.3060    3.5140   38.3830 C   0  0  0  0  0  0  0  0  0  0  0  0
   34.3050    2.4030   38.7620 C   0  0  0  0  0  0  0  0  0  0  0  0
   34.1010    4.8220   38.1920 C   0  0  0  0  0  0  0  0  0  0  0  0
   32.3060    3.6880   39.5530 C   0  0  0  0  0  0  0  0  0  0  0  0
   25.5120    5.0530   37.0920 N   0  0  0  0  0  0  0  0  0  0  0  0
   23.8231    6.6519   35.9122 H   0  0  0  0  0  0  0  0  0  0  0  0
   24.9881    6.3415   34.5806 H   0  0  0  0  0  0  0  0  0  0  0  0
   23.3865    5.5281   34.5806 H   0  0  0  0  0  0  0  0  0  0  0  0
   23.9830    3.2345   34.6649 H   0  0  0  0  0  0  0  0  0  0  0  0
   24.9864    1.3519   35.9767 H   0  0  0  0  0  0  0  0  0  0  0  0
   26.3502    1.8758   38.0207 H   0  0  0  0  0  0  0  0  0  0  0  0
   26.4993    7.0846   38.9135 H   0  0  0  0  0  0  0  0  0  0  0  0
   27.0213    9.3165   39.8797 H   0  0  0  0  0  0  0  0  0  0  0  0
   29.2706    9.7481   40.8774 H   0  0  0  0  0  0  0  0  0  0  0  0
   31.1550    8.6970   41.6230 H   0  0  0  0  0  0  0  0  0  0  0  0
   31.5610    5.9230   40.4490 H   0  0  0  0  0  0  0  0  0  0  0  0
   28.4921    3.5666   37.2307 H   0  0  0  0  0  0  0  0  0  0  0  0
   29.8515    7.0222   37.6049 H   0  0  0  0  0  0  0  0  0  0  0  0
   29.9031    8.6361   35.7143 H   0  0  0  0  0  0  0  0  0  0  0  0
   28.2646    9.6395   34.3570 H   0  0  0  0  0  0  0  0  0  0  0  0
   29.6675    9.9709   33.2382 H   0  0  0  0  0  0  0  0  0  0  0  0
   27.5011   11.9437   33.3246 H   0  0  0  0  0  0  0  0  0  0  0  0
   25.9907   12.8761   31.5791 H   0  0  0  0  0  0  0  0  0  0  0  0
   25.4080   11.5144   29.5732 H   0  0  0  0  0  0  0  0  0  0  0  0
   26.3436    9.2195   29.3112 H   0  0  0  0  0  0  0  0  0  0  0  0
   27.8550    8.2794   31.0555 H   0  0  0  0  0  0  0  0  0  0  0  0
   28.0252    5.7033   33.1722 H   0  0  0  0  0  0  0  0  0  0  0  0
   33.1819    2.3323   36.5800 H   0  0  0  0  0  0  0  0  0  0  0  0
   32.6173    4.0661   36.4332 H   0  0  0  0  0  0  0  0  0  0  0  0
   34.3721    2.3283   39.8574 H   0  0  0  0  0  0  0  0  0  0  0  0
   33.9600    1.4434   38.3495 H   0  0  0  0  0  0  0  0  0  0  0  0
   35.2957    2.6444   38.3495 H   0  0  0  0  0  0  0  0  0  0  0  0
   34.3567    5.2427   39.1757 H   0  0  0  0  0  0  0  0  0  0  0  0
   35.0241    4.6116   37.6320 H   0  0  0  0  0  0  0  0  0  0  0  0
   33.4891    5.5445   37.6320 H   0  0  0  0  0  0  0  0  0  0  0  0
   32.0417    2.6884   39.9285 H   0  0  0  0  0  0  0  0  0  0  0  0
   32.8127    4.3137   40.3025 H   0  0  0  0  0  0  0  0  0  0  0  0
  1  2  1  0
  2  3  2  0
  3  4  1  0
  4  5  2  0
  5  6  1  0
  6  7  1  0
  7  8  2  0
  7  9  1  0
  9 10  1  0
 10 11  2  0
 11 12  1  0
 12 13  2  0
 13 14  1  0
 14 15  1  0
 14 16  2  0
 16 17  1  0
 17 18  1  0
 18 19  2  0
 19 20  1  0
 20 21  1  0
 21 22  2  0
 22 23  1  0
 23 24  2  0
 24 25  1  0
 25 26  1  0
 26 27  1  0
 27 28  2  0
 28 29  1  0
 29 30  2  0
 30 31  1  0
 31 32  2  0
 24 33  1  0
 33 34  2  0
 34 35  1  0
 19 36  1  0
 36 37  2  0
 36 38  2  0
 36 39  1  0
 39 40  1  0
 40 41  1  0
 40 42  1  0
 40 43  1  0
  6 44  2  0
 44  2  1  0
 20  9  1  0
 34 21  1  0
 16 10  1  0
 43 18  1  0
 32 27  1  0
  1 45  1  0
  1 46  1  0
  1 47  1  0
  3 48  1  0
  4 49  1  0
  5 50  1  0
 11 51  1  0
 12 52  1  0
 13 53  1  0
 15 54  1  0
 17 55  1  0
 20 56  1  6
 22 57  1  0
 23 58  1  0
 26 59  1  0
 26 60  1  0
 28 61  1  0
 29 62  1  0
 30 63  1  0
 31 64  1  0
 32 65  1  0
 33 66  1  0
 39 67  1  0
 39 68  1  0
 41 69  1  0
 41 70  1  0
 41 71  1  0
 42 72  1  0
 42 73  1  0
 42 74  1  0
 43 75  1  0
 43 76  1  0
M  END
>  <meeko>  (7) 
{"is_sidechain": [false], "free_energy": -8.112, "intermolecular_energy": -13.5, "internal_energy": -0.732}

$$$$
3gnw_ligand
     RDKit          3D

 76 81  0  0  0  0  0  0  0  0999 V2000
   24.9900    3.1290   33.8510 C   0  0  0  0  0  0  0  0  0  0  0  0
   25.0220    2.2440   35.0610 C   0  0  0  0  0  0  0  0  0  0  0  0
   23.8380    1.7330   35.5860 C   0  0  0  0  0  0  0  0  0  0  0  0
   23.8940    0.9060   36.7040 C   0  0  0  0  0  0  0  0  0  0  0  0
   25.1280    0.6100   37.2700 C   0  0  0  0  0  0  0  0  0  0  0  0
   26.2620    1.1670   36.6910 C   0  0  0  0  0  0  0  0  0  0  0  0
   27.6140    0.8700   37.2580 C   0  0  0  0  0  0  0  0  0  0  0  0
   27.9040   -0.3030   37.4910 O   0  0  0  0  0  0  0  0  0  0  0  0
   28.4430    1.9570   37.5860 N   0  0  0  0  0  0  0  0  0  0  0  0
   28.0070    3.0150   38.4420 C   0  0  0  0  0  0  0  0  0  0  0  0
   26.6920    3.5060   38.3200 C   0  0  0  0  0  0  0  0  0  0  0  0
   26.2230    4.5270   39.1480 C   0  0  0  0  0  0  0  0  0  0  0  0
   27.0570    5.0720   40.1170 C   0  0  0  0  0  0  0  0  0  0  0  0
   28.3550    4.5880   40.2390 C   0  0  0  0  0  0  0  0  0  0  0  0
   29.1960    5.1010   41.2010 O   0  0  0  0  0  0  0  0  0  0  0  0
   28.8630    3.5680   39.4050 C   0  0  0  0  0  0  0  0  0  0  0  0
   30.1770    3.1180   39.6650 N   0  0  0  0  0  0  0  0  0  0  0  0
   31.0930    2.5380   38.8130 C   0  0  0  0  0  0  0  0  0  0  0  0
   30.8890    2.1950   37.5200 C   0  0  0  0  0  0  0  0  0  0  0  0
   29.6130    2.2270   36.7220 C   0  0  2  0  0  0  0  0  0  0  0  0
   29.3720    3.4190   35.7940 C   0  0  0  0  0  0  0  0  0  0  0  0
   29.6150    4.7170   36.2820 C   0  0  0  0  0  0  0  0  0  0  0  0
   29.4430    5.8460   35.4730 C   0  0  0  0  0  0  0  0  0  0  0  0
   29.0170    5.7040   34.1540 C   0  0  0  0  0  0  0  0  0  0  0  0
   28.8180    6.7130   33.2550 O   0  0  0  0  0  0  0  0  0  0  0  0
   27.5250    7.3220   33.1910 C   0  0  0  0  0  0  0  0  0  0  0  0
   27.5510    8.7220   32.6190 C   0  0  0  0  0  0  0  0  0  0  0  0
   27.9530    9.8170   33.3970 C   0  0  0  0  0  0  0  0  0  0  0  0
   27.9990   11.0990   32.8480 C   0  0  0  0  0  0  0  0  0  0  0  0
   27.6560   11.3000   31.5130 C   0  0  0  0  0  0  0  0  0  0  0  0
   27.2700   10.2180   30.7240 C   0  0  0  0  0  0  0  0  0  0  0  0
   27.2230    8.9340   31.2720 C   0  0  0  0  0  0  0  0  0  0  0  0
   28.7800    4.4240   33.6550 C   0  0  0  0  0  0  0  0  0  0  0  0
   28.9540    3.3030   34.4670 C   0  0  0  0  0  0  0  0  0  0  0  0
   28.6970    2.1050   33.9260 F   0  0  0  0  0  0  0  0  0  0  0  0
   32.2760    1.5970   36.6410 S   0  0  0  0  0  0  0  0  0  0  0  0
   32.0830    1.7730   35.2140 O   0  0  0  0  0  0  0  0  0  0  0  0
   32.6620    0.2990   37.1620 O   0  0  0  0  0  0  0  0  0  0  0  0
   33.5180    2.7740   37.1310 C   0  0  0  0  0  0  0  0  0  0  0  0
   33.6500    2.9400   38.6600 C   0  0  0  0  0  0  0  0  0  0  0  0
   34.9520    2.2680   39.1380 C   0  0  0  0  0  0  0  0  0  0  0  0
   33.7450    4.4450   38.9870 C   0  0  0  0  0  0  0  0  0  0  0  0
   32.4670    2.3190   39.4430 C   0  0  0  0  0  0  0  0  0  0  0  0
   26.2350    1.9760   35.5980 N   0  0  0  0  0  0  0  0  0  0  0  0
   24.9519    4.1818   34.1676 H   0  0  0  0  0  0  0  0  0  0  0  0
   25.8949    2.9597   33.2489 H   0  0  0  0  0  0  0  0  0  0  0  0
   24.0997    2.8948   33.2489 H   0  0  0  0  0  0  0  0  0  0  0  0
   22.8711    1.9797   35.1232 H   0  0  0  0  0  0  0  0  0  0  0  0
   22.9710    0.4910   37.1351 H   0  0  0  0  0  0  0  0  0  0  0  0
   25.2050   -0.0455   38.1500 H   0  0  0  0  0  0  0  0  0  0  0  0
   26.0234    3.0772   37.5590 H   0  0  0  0  0  0  0  0  0  0  0  0
   25.1945    4.8999   39.0338 H   0  0  0  0  0  0  0  0  0  0  0  0
   26.6958    5.8741   40.7775 H   0  0  0  0  0  0  0  0  0  0  0  0
   29.6970    5.8350   40.8070 H   0  0  0  0  0  0  0  0  0  0  0  0
   30.5770    3.6640   40.4330 H   0  0  0  0  0  0  0  0  0  0  0  0
   29.7563    1.4091   36.0006 H   0  0  0  0  0  0  0  0  0  0  0  0
   29.9475    4.8467   37.3225 H   0  0  0  0  0  0  0  0  0  0  0  0
   29.6446    6.8480   35.8795 H   0  0  0  0  0  0  0  0  0  0  0  0
   26.8762    6.6983   32.5585 H   0  0  0  0  0  0  0  0  0  0  0  0
   27.1492    7.3981   34.2220 H   0  0  0  0  0  0  0  0  0  0  0  0
   28.2346    9.6641   34.4493 H   0  0  0  0  0  0  0  0  0  0  0  0
   28.3066   11.9522   33.4704 H   0  0  0  0  0  0  0  0  0  0  0  0
   27.6898   12.3115   31.0820 H   0  0  0  0  0  0  0  0  0  0  0  0
   27.0021   10.3753   29.6688 H   0  0  0  0  0  0  0  0  0  0  0  0
   26.9264    8.0824   30.6421 H   0  0  0  0  0  0  0  0  0  0  0  0
   28.4531    4.2969   32.6124 H   0  0  0  0  0  0  0  0  0  0  0  0
   34.4879    2.4406   36.7333 H   0  0  0  0  0  0  0  0  0  0  0  0
   33.2110    3.7504   36.7280 H   0  0  0  0  0  0  0  0  0  0  0  0
   34.9759    2.2556   40.2377 H   0  0  0  0  0  0  0  0  0  0  0  0
   34.9927    1.2363   38.7587 H   0  0  0  0  0  0  0  0  0  0  0  0
   35.8166    2.8325   38.7587 H   0  0  0  0  0  0  0  0  0  0  0  0
   33.7537    4.5833   40.0782 H   0  0  0  0  0  0  0  0  0  0  0  0
   34.6709    4.8557   38.5579 H   0  0  0  0  0  0  0  0  0  0  0  0
   32.8781    4.9689   38.5579 H   0  0  0  0  0  0  0  0  0  0  0  0
   32.6391    1.2352   39.5192 H   0  0  0  0  0  0  0  0  0  0  0  0
   32.4431    2.8259   40.4190 H   0  0  0  0  0  0  0  0  0  0  0  0
  1  2  1  0
  2  3  2  0
  3  4  1  0
  4  5  2  0
  5  6  1  0
  6  7  1  0
  7  8  2  0
  7  9  1  0
  9 10  1  0
 10 11  2  0
 11 12  1  0
 12 13  2  0
 13 14  1  0
 14 15  1  0
 14 16  2  0
 16 17  1  0
 17 18  1  0
 18 19  2  0
 19 20  1  0
 20 21  1  0
 21 22  2  0
 22 23  1  0
 23 24  2  0
 24 25  1  0
 25 26  1  0
 26 27  1  0
 27 28  2  0
 28 29  1  0
 29 30  2  0
 30 31  1  0
 31 32  2  0
 24 33  1  0
 33 34  2  0
 34 35  1  0
 19 36  1  0
 36 37  2  0
 36 38  2  0
 36 39  1  0
 39 40  1  0
 40 41  1  0
 40 42  1  0
 40 43  1  0
  6 44  2  0
 44  2  1  0
 20  9  1  0
 34 21  1  0
 16 10  1  0
 43 18  1  0
 32 27  1  0
  1 45  1  0
  1 46  1  0
  1 47  1  0
  3 48  1  0
  4 49  1  0
  5 50  1  0
 11 51  1  0
 12 52  1  0
 13 53  1  0
 15 54  1  0
 17 55  1  0
 20 56  1  6
 22 57  1  0
 23 58  1  0
 26 59  1  0
 26 60  1  0
 28 61  1  0
 29 62  1  0
 30 63  1  0
 31 64  1  0
 32 65  1  0
 33 66  1  0
 39 67  1  0
 39 68  1  0
 41 69  1  0
 41 70  1  0
 41 71  1  0
 42 72  1  0
 42 73  1  0
 42 74  1  0
 43 75  1  0
 43 76  1  0
M  END
>  <meeko>  (8) 
{"is_sidechain": [false], "free_energy": -8.078, "intermolecular_energy": -14.137, "internal_energy": -0.04}

$$$$
3gnw_ligand
     RDKit          3D

 76 81  0  0  0  0  0  0  0  0999 V2000
   25.0930   -0.7930   37.9700 C   0  0  0  0  0  0  0  0  0  0  0  0
   26.4140   -0.4640   38.5980 C   0  0  0  0  0  0  0  0  0  0  0  0
   27.3300   -1.4770   38.8720 C   0  0  0  0  0  0  0  0  0  0  0  0
   28.5540   -1.1470   39.4470 C   0  0  0  0  0  0  0  0  0  0  0  0
   28.8350    0.1830   39.7330 C   0  0  0  0  0  0  0  0  0  0  0  0
   27.8640    1.1320   39.4350 C   0  0  0  0  0  0  0  0  0  0  0  0
   28.1230    2.5790   39.7150 C   0  0  0  0  0  0  0  0  0  0  0  0
   27.9290    2.9960   40.8570 O   0  0  0  0  0  0  0  0  0  0  0  0
   28.4770    3.4050   38.6350 N   0  0  0  0  0  0  0  0  0  0  0  0
   29.8130    3.4670   38.1300 C   0  0  0  0  0  0  0  0  0  0  0  0
   30.8940    3.4600   39.0330 C   0  0  0  0  0  0  0  0  0  0  0  0
   32.2140    3.5020   38.5790 C   0  0  0  0  0  0  0  0  0  0  0  0
   32.4770    3.5450   37.2160 C   0  0  0  0  0  0  0  0  0  0  0  0
   31.4100    3.5530   36.3230 C   0  0  0  0  0  0  0  0  0  0  0  0
   31.6450    3.5810   34.9660 O   0  0  0  0  0  0  0  0  0  0  0  0
   30.0650    3.5280   36.7520 C   0  0  0  0  0  0  0  0  0  0  0  0
   29.0710    3.4760   35.7500 N   0  0  0  0  0  0  0  0  0  0  0  0
   27.7580    3.8970   35.7910 C   0  0  0  0  0  0  0  0  0  0  0  0
   27.1020    4.3940   36.8650 C   0  0  0  0  0  0  0  0  0  0  0  0
   27.5720    4.5210   38.2840 C   0  0  2  0  0  0  0  0  0  0  0  0
   28.1320    5.8710   38.7340 C   0  0  0  0  0  0  0  0  0  0  0  0
   28.9330    6.6040   37.8380 C   0  0  0  0  0  0  0  0  0  0  0  0
   29.4500    7.8590   38.1790 C   0  0  0  0  0  0  0  0  0  0  0  0
   29.1810    8.4120   39.4290 C   0  0  0  0  0  0  0  0  0  0  0  0
   29.6110    9.6250   39.8880 O   0  0  0  0  0  0  0  0  0  0  0  0
   30.9100    9.7060   40.4810 C   0  0  0  0  0  0  0  0  0  0  0  0
   30.9240    9.3200   41.9440 C   0  0  0  0  0  0  0  0  0  0  0  0
   31.6610    8.2170   42.3970 C   0  0  0  0  0  0  0  0  0  0  0  0
   31.6870    7.8890   43.7530 C   0  0  0  0  0  0  0  0  0  0  0  0
   30.9870    8.6660   44.6730 C   0  0  0  0  0  0  0  0  0  0  0  0
   30.2640    9.7750   44.2380 C   0  0  0  0  0  0  0  0  0  0  0  0
   30.2370   10.1040   42.8820 C   0  0  0  0  0  0  0  0  0  0  0  0
   28.3820    7.7010   40.3230 C   0  0  0  0  0  0  0  0  0  0  0  0
   27.8700    6.4500   39.9770 C   0  0  0  0  0  0  0  0  0  0  0  0
   27.1210    5.8180   40.8900 F   0  0  0  0  0  0  0  0  0  0  0  0
   25.4760    4.9730   36.5910 S   0  0  0  0  0  0  0  0  0  0  0  0
   25.1010    5.9260   37.6170 O   0  0  0  0  0  0  0  0  0  0  0  0
   24.6030    3.8540   36.2900 O   0  0  0  0  0  0  0  0  0  0  0  0
   25.7010    5.9080   35.0930 C   0  0  0  0  0  0  0  0  0  0  0  0
   26.3850    5.1140   33.9590 C   0  0  0  0  0  0  0  0  0  0  0  0
   25.3440    4.7650   32.8770 C   0  0  0  0  0  0  0  0  0  0  0  0
   27.4620    6.0080   33.3100 C   0  0  0  0  0  0  0  0  0  0  0  0
   27.0370    3.7970   34.4480 C   0  0  0  0  0  0  0  0  0  0  0  0
   26.6620    0.8370   38.8730 N   0  0  0  0  0  0  0  0  0  0  0  0
   24.3484   -0.9785   38.7581 H   0  0  0  0  0  0  0  0  0  0  0  0
   24.7636    0.0506   37.3455 H   0  0  0  0  0  0  0  0  0  0  0  0
   25.1977   -1.6925   37.3455 H   0  0  0  0  0  0  0  0  0  0  0  0
   27.0892   -2.5243   38.6370 H   0  0  0  0  0  0  0  0  0  0  0  0
   29.2913   -1.9315   39.6726 H   0  0  0  0  0  0  0  0  0  0  0  0
   29.7958    0.4760   40.1813 H   0  0  0  0  0  0  0  0  0  0  0  0
   30.6951    3.4208   40.1142 H   0  0  0  0  0  0  0  0  0  0  0  0
   33.0446    3.5010   39.3002 H   0  0  0  0  0  0  0  0  0  0  0  0
   33.5132    3.5723   36.8480 H   0  0  0  0  0  0  0  0  0  0  0  0
   32.2440    2.8490   34.7460 H   0  0  0  0  0  0  0  0  0  0  0  0
   29.5140    3.5140   34.8290 H   0  0  0  0  0  0  0  0  0  0  0  0
   26.6399    4.4599   38.8649 H   0  0  0  0  0  0  0  0  0  0  0  0
   29.1575    6.1809   36.8478 H   0  0  0  0  0  0  0  0  0  0  0  0
   30.0708    8.4106   37.4576 H   0  0  0  0  0  0  0  0  0  0  0  0
   31.5859    9.0313   39.9352 H   0  0  0  0  0  0  0  0  0  0  0  0
   31.2328   10.7556   40.4174 H   0  0  0  0  0  0  0  0  0  0  0  0
   32.2238    7.6046   41.6771 H   0  0  0  0  0  0  0  0  0  0  0  0
   32.2611    7.0156   44.0959 H   0  0  0  0  0  0  0  0  0  0  0  0
   31.0049    8.4046   45.7413 H   0  0  0  0  0  0  0  0  0  0  0  0
   29.7140   10.3917   44.9641 H   0  0  0  0  0  0  0  0  0  0  0  0
   29.6719   10.9860   42.5461 H   0  0  0  0  0  0  0  0  0  0  0  0
   28.1532    8.1299   41.3098 H   0  0  0  0  0  0  0  0  0  0  0  0
   24.7133    6.2378   34.7385 H   0  0  0  0  0  0  0  0  0  0  0  0
   26.3636    6.7511   35.3383 H   0  0  0  0  0  0  0  0  0  0  0  0
   24.4062    4.4506   33.3583 H   0  0  0  0  0  0  0  0  0  0  0  0
   25.1560    5.6492   32.2503 H   0  0  0  0  0  0  0  0  0  0  0  0
   25.7270    3.9461   32.2503 H   0  0  0  0  0  0  0  0  0  0  0  0
   28.0536    6.4991   34.0966 H   0  0  0  0  0  0  0  0  0  0  0  0
   28.1238    5.3901   32.6853 H   0  0  0  0  0  0  0  0  0  0  0  0
   26.9765    6.7722   32.6853 H   0  0  0  0  0  0  0  0  0  0  0  0
   26.2463    3.0378   34.5402 H   0  0  0  0  0  0  0  0  0  0  0  0
   27.8046    3.5376   33.7040 H   0  0  0  0  0  0  0  0  0  0  0  0
  1  2  1  0
  2  3  2  0
  3  4  1  0
  4  5  2  0
  5  6  1  0
  6  7  1  0
  7  8  2  0
  7  9  1  0
  9 10  1  0
 10 11  2  0
 11 12  1  0
 12 13  2  0
 13 14  1  0
 14 15  1  0
 14 16  2  0
 16 17  1  0
 17 18  1  0
 18 19  2  0
 19 20  1  0
 20 21  1  0
 21 22  2  0
 22 23  1  0
 23 24  2  0
 24 25  1  0
 25 26  1  0
 26 27  1  0
 27 28  2  0
 28 29  1  0
 29 30  2  0
 30 31  1  0
 31 32  2  0
 24 33  1  0
 33 34  2  0
 34 35  1  0
 19 36  1  0
 36 37  2  0
 36 38  2  0
 36 39  1  0
 39 40  1  0
 40 41  1  0
 40 42  1  0
 40 43  1  0
  6 44  2  0
 44  2  1  0
 20  9  1  0
 34 21  1  0
 16 10  1  0
 43 18  1  0
 32 27  1  0
  1 45  1  0
  1 46  1  0
  1 47  1  0
  3 48  1  0
  4 49  1  0
  5 50  1  0
 11 51  1  0
 12 52  1  0
 13 53  1  0
 15 54  1  0
 17 55  1  0
 20 56  1  1
 22 57  1  0
 23 58  1  0
 26 59  1  0
 26 60  1  0
 28 61  1  0
 29 62  1  0
 30 63  1  0
 31 64  1  0
 32 65  1  0
 33 66  1  0
 39 67  1  0
 39 68  1  0
 41 69  1  0
 41 70  1  0
 41 71  1  0
 42 72  1  0
 42 73  1  0
 42 74  1  0
 43 75  1  0
 43 76  1  0
M  END
>  <meeko>  (9) 
{"is_sidechain": [false], "free_energy": -8.002, "intermolecular_energy": -12.739, "internal_energy": -1.315}

$$$$
